#    Name: 3srw_Q27_1_ligand
#    Modification time : Mon Mar 24 18:09:01 2014

@<TRIPOS>MOLECULE
3srw_Q27_1_ligand
   46    49     1     0     0
SMALL
NO_CHARGES


@<TRIPOS>ATOM
      1 C1         -4.0920  -28.6630    3.8390 C.ar      1 Q27168      0.0000 
      2 N2         -5.0400  -27.6850    3.8550 N.ar      1 Q27168      0.0000 
      3 C3         -6.1810  -27.7790    4.5750 C.ar      1 Q27168      0.0000 
      4 N4         -6.4600  -28.8560    5.3490 N.ar      1 Q27168      0.0000 
      5 C5         -5.6020  -29.9170    5.4150 C.ar      1 Q27168      0.0000 
      6 C6         -4.3480  -29.8810    4.6510 C.ar      1 Q27168      0.0000 
      7 C7         -5.9050  -31.0460    6.1750 C.ar      1 Q27168      0.0000 
      8 C8         -4.9730  -32.0950    6.1980 C.ar      1 Q27168      0.0000 
      9 C9         -3.7190  -32.0630    5.4260 C.ar      1 Q27168      0.0000 
     10 C10        -3.4200  -30.9380    4.6570 C.ar      1 Q27168      0.0000 
     11 N11        -2.9480  -28.5530    3.1460 N.pl3     1 Q27168      0.0000 
     12 N12        -7.0950  -26.7620    4.5460 N.pl3     1 Q27168      0.0000 
     13 C13        -2.7230  -33.2050    5.4580 C.3       1 Q27168      0.0000 
     14 C14        -5.2530  -33.3320    6.9520 C.ar      1 Q27168      0.0000 
     15 C15        -4.5380  -33.7250    8.1800 C.ar      1 Q27168      0.0000 
     16 C16        -4.8670  -34.9590    8.7820 C.ar      1 Q27168      0.0000 
     17 C17        -5.8570  -35.7900    8.2410 C.ar      1 Q27168      0.0000 
     18 C18        -6.5660  -35.4840    7.0770 C.ar      1 Q27168      0.0000 
     19 C19        -6.2730  -34.2180    6.3590 C.ar      1 Q27168      0.0000 
     20 C20        -6.9520  -33.8820    5.1850 C.ar      1 Q27168      0.0000 
     21 C21        -7.9260  -34.7400    4.6680 C.ar      1 Q27168      0.0000 
     22 C22        -8.2150  -35.9410    5.3390 C.ar      1 Q27168      0.0000 
     23 C23        -7.5490  -36.3100    6.5210 C.ar      1 Q27168      0.0000 
     24 O24        -3.5720  -32.8690    8.6380 O.3       1 Q27168      0.0000 
     25 C25        -2.5500  -33.3470    9.5350 C.3       1 Q27168      0.0000 
     26 C26        -1.1880  -33.1140    8.9480 C.3       1 Q27168      0.0000 
     27 H          -6.7698  -31.1112    6.6959 H         1 Q27168      0.0000 
     28 H          -2.5667  -30.8793    4.1204 H         1 Q27168      0.0000 
     29 H          -2.8116  -27.6922    2.6558 H         1 Q27168      0.0000 
     30 H          -2.3343  -29.3417    3.1818 H         1 Q27168      0.0000 
     31 H          -7.1488  -26.2428    3.6930 H         1 Q27168      0.0000 
     32 H          -7.6294  -26.6268    5.3803 H         1 Q27168      0.0000 
     33 H          -4.3666  -35.2501    9.6359 H         1 Q27168      0.0000 
     34 H          -6.0759  -36.6885    8.7374 H         1 Q27168      0.0000 
     35 H          -6.7347  -33.0026    4.7011 H         1 Q27168      0.0000 
     36 H          -8.4255  -34.5004    3.8108 H         1 Q27168      0.0000 
     37 H          -8.9397  -36.5726    4.9514 H         1 Q27168      0.0000 
     38 H          -7.7898  -37.1995    6.9808 H         1 Q27168      0.0000 
     39 H          -2.6682  -34.4232    9.7282 H         1 Q27168      0.0000 
     40 H          -2.6056  -32.8318   10.5050 H         1 Q27168      0.0000 
     41 H          -1.9307  -33.0232    4.8755 H         1 Q27168      0.0000 
     42 H          -2.3763  -33.3697    6.3814 H         1 Q27168      0.0000 
     43 H          -3.1298  -34.0616    5.1406 H         1 Q27168      0.0000 
     44 H          -0.4617  -33.4344    9.5561 H         1 Q27168      0.0000 
     45 H          -1.0725  -33.5911    8.0767 H         1 Q27168      0.0000 
     46 H          -1.0190  -32.1436    8.7755 H         1 Q27168      0.0000 
@<TRIPOS>BOND
     1    2    1 ar   
     2    6    1 ar   
     3   11    1 1    
     4    3    2 ar   
     5    4    3 ar   
     6   12    3 1    
     7    5    4 ar   
     8    6    5 ar   
     9    7    5 ar   
    10   10    6 ar   
    11    8    7 ar   
    12   27    7 1    
    13    9    8 ar   
    14   14    8 1    
    15   10    9 ar   
    16   13    9 1    
    17   28   10 1    
    18   29   11 1    
    19   30   11 1    
    20   31   12 1    
    21   32   12 1    
    22   41   13 1    
    23   42   13 1    
    24   43   13 1    
    25   15   14 ar   
    26   19   14 ar   
    27   16   15 ar   
    28   24   15 1    
    29   17   16 ar   
    30   33   16 1    
    31   18   17 ar   
    32   34   17 1    
    33   19   18 ar   
    34   23   18 ar   
    35   20   19 ar   
    36   21   20 ar   
    37   35   20 1    
    38   22   21 ar   
    39   36   21 1    
    40   23   22 ar   
    41   37   22 1    
    42   38   23 1    
    43   25   24 1    
    44   26   25 1    
    45   39   25 1    
    46   40   25 1    
    47   44   26 1    
    48   45   26 1    
    49   46   26 1    
@<TRIPOS>SUBSTRUCTURE
     1 Q27168      1 GROUP   
@<TRIPOS>SET

