#    Name: 2psw_COA_3_INTS_M
#    Modification time : Mon Mar 24 19:20:49 2014

@<TRIPOS>MOLECULE
2psw_COA_3_INTS_M
   91     0     9     0     0
SMALL
NO_CHARGES


@<TRIPOS>ATOM
      1 CA         38.5225  384.1670  -86.8975 C.3       3 GLC5        0.0000 
      2 CA         38.9110  384.7130  -88.5210 C.3       9 GLL5        0.0000 
      3 CA         38.1340  383.6210  -85.2740 C.3       6 GLP5        0.0000 
      4 CA         38.1920  379.7560  -87.3675 C.3       3 GLC5        0.0000 
      5 CA         37.9020  380.3650  -89.2400 C.3       9 GLL5        0.0000 
      6 CA         38.4820  379.1470  -85.4950 C.3       6 GLP5        0.0000 
      7 NZ         38.0440  382.5965  -93.2835 N.4       2 LYC4        0.0000 
      8 NZ         37.0850  381.7120  -93.7390 N.4       8 LYL4        0.0000 
      9 NZ         40.2490  383.2310  -92.4170 N.4       5 LYP4        0.0000 
     10 N          38.0440  382.5965  -93.2835 N.am      1 SEC2        0.0000 
     11 N          37.0850  381.7120  -93.7390 N.am      7 SEL2        0.0000 
     12 N          39.0030  383.4810  -92.8280 N.am      4 SEP2        0.0000 
     13 NZ         39.9165  381.1315  -93.4305 N.4       2 LYC4        0.0000 
     14 NZ         39.0220  380.2160  -94.2260 N.4       8 LYL4        0.0000 
     15 N          39.9165  381.1315  -93.4305 N.am      1 SEC2        0.0000 
     16 N          39.0220  380.2160  -94.2260 N.am      7 SEL2        0.0000 
     17 N          40.8110  382.0470  -92.6350 N.am      4 SEP2        0.0000 
     18 N          42.2110  376.3135  -93.7090 N.am      1 SEC2        0.0000 
     19 N          41.9730  377.2550  -92.6970 N.am      7 SEL2        0.0000 
     20 N          42.4490  375.3720  -94.7210 N.am      4 SEP2        0.0000 
     21 N          41.0990  374.0920  -90.6935 N.am      1 SEC2        0.0000 
     22 N          41.0980  375.3930  -91.3910 N.am      7 SEL2        0.0000 
     23 N          41.1000  372.7910  -89.9960 N.am      4 SEP2        0.0000 
     24 N          39.9950  374.6805  -91.2880 N.am      1 SEC2        0.0000 
     25 N          38.8920  373.9680  -91.1850 N.am      4 SEP2        0.0000 
     26 N          43.9355  374.7125  -90.6445 N.am      1 SEC2        0.0000 
     27 N          44.0990  376.0150  -90.9310 N.am      7 SEL2        0.0000 
     28 N          43.7720  373.4100  -90.3580 N.am      4 SEP2        0.0000 
     29 N          44.4575  378.9590  -91.7580 N.am      1 SEC2        0.0000 
     30 N          44.2460  378.5700  -90.4790 N.am      7 SEL2        0.0000 
     31 N          44.6690  379.3480  -93.0370 N.am      4 SEP2        0.0000 
     32 CA         42.2835  377.4560  -86.1800 C.3       3 GLC5        0.0000 
     33 CA         44.4760  377.7380  -86.3910 C.3       9 GLL5        0.0000 
     34 CA         40.0910  377.1740  -85.9690 C.3       6 GLP5        0.0000 
     35 CA         41.6640  377.2355  -87.4120 C.3       3 GLC5        0.0000 
     36 CA         43.4680  377.6950  -87.5420 C.3       9 GLL5        0.0000 
     37 CA         39.8600  376.7760  -87.2820 C.3       6 GLP5        0.0000 
     38 CA         43.0170  379.5065  -83.8510 C.3       3 GLC5        0.0000 
     39 CA         43.8700  378.4190  -85.1730 C.3       9 GLL5        0.0000 
     40 CA         42.1640  380.5940  -82.5290 C.3       6 GLP5        0.0000 
     41 CA         41.9055  378.5335  -85.3625 C.3       3 GLC5        0.0000 
     42 CA         39.9410  378.6480  -85.5520 C.3       6 GLP5        0.0000 
     43 CA         44.4285  374.5315  -85.4340 C.3       3 GLC5        0.0000 
     44 CA         44.8070  376.3010  -85.9930 C.3       9 GLL5        0.0000 
     45 CA         44.0500  372.7620  -84.8750 C.3       6 GLP5        0.0000 
     46 CA         46.5440  375.3445  -85.7275 C.3       3 GLC5        0.0000 
     47 CA         48.2810  374.3880  -85.4620 C.3       6 GLP5        0.0000 
     48 CA         42.6590  376.2570  -85.5200 C.3       3 GLC5        0.0000 
     49 CA         40.5110  376.2130  -85.0470 C.3       6 GLP5        0.0000 
     50 CA         46.9460  379.4190  -88.0010 C.3       3 GLC5        0.0000 
     51 CA         45.7150  378.4970  -86.8950 C.3       9 GLL5        0.0000 
     52 CA         48.1770  380.3410  -89.1070 C.3       6 GLP5        0.0000 
     53 N          48.5250  376.0805  -86.9470 N.am      1 SEC2        0.0000 
     54 N          47.6450  377.0270  -86.4400 N.am      7 SEL2        0.0000 
     55 N          49.4050  375.1340  -87.4540 N.am      4 SEP2        0.0000 
     56 CA         49.1245  376.3920  -82.2865 C.3       3 GLC5        0.0000 
     57 CA         48.5390  377.6950  -83.3470 C.3       9 GLL5        0.0000 
     58 CA         49.7100  375.0890  -81.2260 C.3       6 GLP5        0.0000 
     59 N          47.4405  380.3240  -80.9345 N.am      1 SEC2        0.0000 
     60 N          48.2930  379.1960  -81.5190 N.am      7 SEL2        0.0000 
     61 N          46.5880  381.4520  -80.3500 N.am      4 SEP2        0.0000 
     62 CA         47.8545  376.1900  -81.0480 C.3       3 GLC5        0.0000 
     63 CA         45.9990  377.2910  -80.8700 C.3       9 GLL5        0.0000 
     64 CA         43.3165  376.0885  -81.3690 C.3       3 GLC5        0.0000 
     65 CA         45.1070  376.1450  -81.3280 C.3       9 GLL5        0.0000 
     66 CA         41.5260  376.0320  -81.4100 C.3       6 GLP5        0.0000 
     67 CA         47.5335  374.8900  -80.7595 C.3       3 GLC5        0.0000 
     68 CA         45.3570  374.6910  -80.2930 C.3       9 GLL5        0.0000 
     69 CA         46.8310  373.1210  -79.8760 C.3       3 GLC5        0.0000 
     70 CA         48.3050  371.5510  -79.4590 C.3       6 GLP5        0.0000 
     71 CA         45.3070  373.2265  -81.5800 C.3       3 GLC5        0.0000 
     72 CA         45.2570  371.7620  -82.8670 C.3       6 GLP5        0.0000 
     73 CA         43.3845  374.6800  -80.9470 C.3       3 GLC5        0.0000 
     74 CA         41.4120  374.6690  -81.6010 C.3       6 GLP5        0.0000 
     75 CA         41.0922  382.0820  -90.4308 C.3       3 GLC5        0.0000 
     76 CA         40.7130  382.6060  -88.5870 C.3       9 GLL5        0.0000 
     77 CA         42.1550  381.6650  -92.1710 C.3       6 GLP5        0.0000 
     78 CA         42.1818  383.4840  -87.0948 C.3       3 GLC5        0.0000 
     79 CA         43.4300  383.7060  -85.7290 C.3       6 GLP5        0.0000 
     80 CA         39.3629  383.4147  -86.8931 C.3       3 GLC5        0.0000 
     81 CA         41.1540  383.9180  -88.3340 C.3       9 GLL5        0.0000 
     82 CA         39.1183  377.3300  -89.0083 C.3       3 GLC5        0.0000 
     83 CA         37.8720  378.4280  -90.5630 C.3       9 GLL5        0.0000 
     84 CA         50.1740  377.3585  -84.0708 C.3       3 GLC5        0.0000 
     85 CA         48.5830  378.7070  -84.4640 C.3       9 GLL5        0.0000 
     86 CA         51.7870  376.5160  -84.2360 C.3       6 GLP5        0.0000 
     87 CA         48.4210  376.2945  -84.6838 C.3       3 GLC5        0.0000 
     88 CA         44.3500  378.4480  -81.2775 C.3       3 GLC5        0.0000 
     89 CA         43.1470  380.1780  -81.4560 C.3       6 GLP5        0.0000 
     90 CA         44.0345  375.1705  -79.5048 C.3       3 GLC5        0.0000 
     91 CA         42.8370  374.9230  -78.1990 C.3       6 GLP5        0.0000 
@<TRIPOS>BOND
@<TRIPOS>SUBSTRUCTURE
     1 SEC2       10 GROUP        1 X    SEC  0     ROOT SEC X 2
     2 LYC4        7 GROUP        1 X    LYC  0     **** LYC X 4
     3 GLC5        1 GROUP        1 X    GLC  0     **** GLC X 6
     4 SEP2       12 GROUP        1 Y    SEP  0     ROOT SEP Y 9
     5 LYP4        9 GROUP        1 Y    LYP  0     **** LYP Y 11
     6 GLP5        3 GROUP        1 Y    GLP  0     **** GLP Y 13
     7 SEL2       11 GROUP        1 Z    SEL  0     ROOT SEL Z 16
     8 LYL4        8 GROUP        1 Z    LYL  0     **** LYL Z 18
     9 GLL5        2 GROUP        1 Z    GLL  0     **** GLL Z 20
@<TRIPOS>SET

