#    Name: 2psw_COA_3_ligand
#    Modification time : Mon Mar 24 19:20:49 2014

@<TRIPOS>MOLECULE
2psw_COA_3_ligand
   79    81     1     0     0
SMALL
NO_CHARGES


@<TRIPOS>ATOM
      1 N1A        40.2520  384.9650  -88.3130 N.ar      1 COA201      0.0000 
      2 C2A        38.9110  384.7130  -88.5210 C.ar      1 COA201      0.0000 
      3 N3A        38.4620  383.4200  -88.7480 N.ar      1 COA201      0.0000 
      4 C4A        39.3460  382.3920  -88.7940 C.ar      1 COA201      0.0000 
      5 C5A        40.7130  382.6060  -88.5870 C.ar      1 COA201      0.0000 
      6 C6A        41.1540  383.9180  -88.3340 C.ar      1 COA201      0.0000 
      7 N6A        42.4530  384.2040  -88.2460 N.pl3     1 COA201      0.0000 
      8 N7A        41.3580  381.4020  -88.6800 N.2       1 COA201      0.0000 
      9 C8A        40.4280  380.4610  -88.9310 C.2       1 COA201      0.0000 
     10 N9A        39.1780  381.0580  -89.0030 N.pl3     1 COA201      0.0000 
     11 C1B        37.9020  380.3650  -89.2400 C.3       1 COA201      0.0000 
     12 C2B        37.3550  380.7510  -90.5970 C.3       1 COA201      0.0000 
     13 O2B        35.9500  380.6630  -90.6210 O.3       1 COA201      0.0000 
     14 C3B        37.9090  379.6370  -91.4640 C.3       1 COA201      0.0000 
     15 O3B        37.1190  379.4690  -92.5980 O.3       1 COA201      0.0000 
     16 P3B        37.5310  380.2770  -93.9320 P.3       1 COA201      0.0000 
     17 O7A        36.7550  379.5610  -95.0160 O.co2     1 COA201      0.0000 
     18 O8A        37.0850  381.7120  -93.7390 O.co2     1 COA201      0.0000 
     19 O9A        39.0220  380.2160  -94.2260 O.co2     1 COA201      0.0000 
     20 C4B        37.8720  378.4280  -90.5630 C.3       1 COA201      0.0000 
     21 O4B        38.2200  378.9890  -89.3220 O.3       1 COA201      0.0000 
     22 C5B        38.8810  377.3400  -90.9060 C.3       1 COA201      0.0000 
     23 O5B        40.1360  377.8920  -91.2480 O.3       1 COA201      0.0000 
     24 P1A        41.3610  376.8600  -91.3950 P.3       1 COA201      0.0000 
     25 O1A        41.9730  377.2550  -92.6970 O.co2     1 COA201      0.0000 
     26 O2A        41.0980  375.3930  -91.3910 O.co2     1 COA201      0.0000 
     27 O3A        42.1570  377.1700  -90.0620 O.3       1 COA201      0.0000 
     28 P2A        43.7820  377.1920  -90.0730 P.3       1 COA201      0.0000 
     29 O4A        44.0990  376.0150  -90.9310 O.co2     1 COA201      0.0000 
     30 O5A        44.2460  378.5700  -90.4790 O.co2     1 COA201      0.0000 
     31 O6A        44.1150  376.9330  -88.5520 O.3       1 COA201      0.0000 
     32 CBP        44.4760  377.7380  -86.3910 C.3       1 COA201      0.0000 
     33 CCP        43.4680  377.6950  -87.5420 C.3       1 COA201      0.0000 
     34 CDP        43.8700  378.4190  -85.1730 C.3       1 COA201      0.0000 
     35 CEP        44.8070  376.3010  -85.9930 C.3       1 COA201      0.0000 
     36 CAP        45.7150  378.4970  -86.8950 C.3       1 COA201      0.0000 
     37 OAP        45.5110  379.8770  -86.7200 O.3       1 COA201      0.0000 
     38 C9P        46.9190  378.1410  -86.0780 C.2       1 COA201      0.0000 
     39 O9P        47.6450  377.0270  -86.4400 O.2       1 COA201      0.0000 
     40 N8P        47.2620  378.9020  -85.0410 N.am      1 COA201      0.0000 
     41 C7P        48.5830  378.7070  -84.4640 C.3       1 COA201      0.0000 
     42 C6P        48.5390  377.6950  -83.3470 C.3       1 COA201      0.0000 
     43 C5P        47.7640  378.3220  -82.2210 C.2       1 COA201      0.0000 
     44 O5P        48.2930  379.1960  -81.5190 O.2       1 COA201      0.0000 
     45 N4P        46.5220  377.9020  -82.0620 N.am      1 COA201      0.0000 
     46 C3P        45.9990  377.2910  -80.8700 C.3       1 COA201      0.0000 
     47 C2P        45.1070  376.1450  -81.3280 C.3       1 COA201      0.0000 
     48 S1P        45.3570  374.6910  -80.2930 S.3       1 COA201      0.0000 
     49 H          38.2317  385.4935  -88.5081 H         1 COA201      0.0000 
     50 H          42.6847  385.1717  -88.1463 H         1 COA201      0.0000 
     51 H          43.0788  383.4252  -88.2876 H         1 COA201      0.0000 
     52 H          40.5831  379.5155  -89.0463 H         1 COA201      0.0000 
     53 H          37.2049  380.5734  -88.4951 H         1 COA201      0.0000 
     54 H          37.7606  381.6515  -90.9007 H         1 COA201      0.0000 
     55 H          38.9308  379.8682  -91.6728 H         1 COA201      0.0000 
     56 H          36.8882  378.0359  -90.5404 H         1 COA201      0.0000 
     57 H          38.4556  376.7418  -91.7322 H         1 COA201      0.0000 
     58 H          38.9519  376.6663  -90.0328 H         1 COA201      0.0000 
     59 H          42.5708  377.2236  -87.1813 H         1 COA201      0.0000 
     60 H          43.2722  378.7067  -87.8509 H         1 COA201      0.0000 
     61 H          45.8866  378.2416  -87.9121 H         1 COA201      0.0000 
     62 H          46.6654  379.6085  -84.6256 H         1 COA201      0.0000 
     63 H          48.9755  379.6531  -84.0635 H         1 COA201      0.0000 
     64 H          49.2921  378.3548  -85.2273 H         1 COA201      0.0000 
     65 H          49.5406  377.4691  -83.0213 H         1 COA201      0.0000 
     66 H          48.0385  376.8027  -83.6842 H         1 COA201      0.0000 
     67 H          45.8126  378.0038  -82.8567 H         1 COA201      0.0000 
     68 H          45.3969  377.9823  -80.2951 H         1 COA201      0.0000 
     69 H          46.7858  376.8829  -80.2492 H         1 COA201      0.0000 
     70 H          45.3446  375.7816  -82.3010 H         1 COA201      0.0000 
     71 H          44.0663  376.3398  -81.2081 H         1 COA201      0.0000 
     72 H          44.5158  378.4598  -84.4106 H         1 COA201      0.0000 
     73 H          43.5924  379.3587  -85.3726 H         1 COA201      0.0000 
     74 H          43.0579  377.9372  -84.8438 H         1 COA201      0.0000 
     75 H          45.2068  375.7880  -86.7526 H         1 COA201      0.0000 
     76 H          45.4625  376.2662  -85.2386 H         1 COA201      0.0000 
     77 H          43.9932  375.8006  -85.6975 H         1 COA201      0.0000 
     78 H          35.7383  380.1282  -91.4390 H         1 COA201      0.0000 
     79 H          45.0505  380.1784  -87.5550 H         1 COA201      0.0000 
@<TRIPOS>BOND
     1    2    1 ar   
     2    6    1 ar   
     3    3    2 ar   
     4   49    2 1    
     5    4    3 ar   
     6    5    4 ar   
     7   10    4 1    
     8    6    5 ar   
     9    8    5 1    
    10    7    6 1    
    11   50    7 1    
    12   51    7 1    
    13    9    8 2    
    14   10    9 1    
    15   52    9 1    
    16   11   10 1    
    17   12   11 1    
    18   21   11 1    
    19   53   11 1    
    20   13   12 1    
    21   14   12 1    
    22   54   12 1    
    23   78   13 1    
    24   15   14 1    
    25   20   14 1    
    26   55   14 1    
    27   16   15 1    
    28   17   16 ar   
    29   18   16 ar   
    30   19   16 ar   
    31   21   20 1    
    32   22   20 1    
    33   56   20 1    
    34   23   22 1    
    35   57   22 1    
    36   58   22 1    
    37   24   23 1    
    38   25   24 ar   
    39   26   24 ar   
    40   27   24 1    
    41   28   27 1    
    42   29   28 ar   
    43   30   28 ar   
    44   31   28 1    
    45   33   31 1    
    46   33   32 1    
    47   34   32 1    
    48   35   32 1    
    49   36   32 1    
    50   59   33 1    
    51   60   33 1    
    52   72   34 1    
    53   73   34 1    
    54   74   34 1    
    55   75   35 1    
    56   76   35 1    
    57   77   35 1    
    58   37   36 1    
    59   38   36 1    
    60   61   36 1    
    61   79   37 1    
    62   39   38 2    
    63   40   38 am   
    64   41   40 1    
    65   62   40 1    
    66   42   41 1    
    67   63   41 1    
    68   64   41 1    
    69   43   42 1    
    70   65   42 1    
    71   66   42 1    
    72   44   43 2    
    73   45   43 am   
    74   46   45 1    
    75   67   45 1    
    76   47   46 1    
    77   68   46 1    
    78   69   46 1    
    79   48   47 1    
    80   70   47 1    
    81   71   47 1    
@<TRIPOS>SUBSTRUCTURE
     1 COA201      1 GROUP   
@<TRIPOS>SET

