#    Name: 2bj4_OHT_2_INTS_M
#    Modification time : Mon Mar 24 21:04:29 2014

@<TRIPOS>MOLECULE
2bj4_OHT_2_INTS_M
   89     0    12     0     0
SMALL
NO_CHARGES


@<TRIPOS>ATOM
      1 CA          0.4425   34.7925   12.4070 C.3       4 GLC5        0.0000 
      2 CA         -1.2800   33.4900   12.0250 C.3      12 GLL5        0.0000 
      3 CA          2.1650   36.0950   12.7890 C.3       8 GLP5        0.0000 
      4 CA         -0.7485   33.7680   13.7465 C.3       4 GLC5        0.0000 
      5 CA         -0.2170   34.0460   15.4680 C.3       8 GLP5        0.0000 
      6 CA         -2.0030   35.0735   12.7005 C.3       4 GLC5        0.0000 
      7 CA         -2.7260   36.6570   13.3760 C.3       8 GLP5        0.0000 
      8 CA         -3.0320   33.5720    9.5805 C.3       4 GLC5        0.0000 
      9 CA         -1.6040   33.0730   10.6030 C.3      12 GLL5        0.0000 
     10 CA         -4.4600   34.0710    8.5580 C.3       8 GLP5        0.0000 
     11 CA          1.6000   30.5885   14.3730 C.3       4 GLC5        0.0000 
     12 CA          1.8830   29.7610   12.4480 C.3      12 GLL5        0.0000 
     13 CA          1.3170   31.4160   16.2980 C.3       8 GLP5        0.0000 
     14 CA          2.3955   28.5335   13.9725 C.3       4 GLC5        0.0000 
     15 CA          2.9080   27.3060   15.4970 C.3       8 GLP5        0.0000 
     16 CA         -2.1200   29.9235   10.3015 C.3       4 GLC5        0.0000 
     17 CA         -0.2660   30.2380   11.3840 C.3      12 GLL5        0.0000 
     18 CA         -3.9740   29.6090    9.2190 C.3       8 GLP5        0.0000 
     19 CA         -2.0345   31.2620    6.7165 C.3       4 GLC5        0.0000 
     20 CA         -1.0870   33.1560    6.4900 C.3      12 GLL5        0.0000 
     21 CA         -2.9820   29.3680    6.9430 C.3       8 GLP5        0.0000 
     22 CA         -3.2550   33.8740    4.2525 C.3       4 GLC5        0.0000 
     23 CA         -1.5490   34.1540    5.6450 C.3      12 GLL5        0.0000 
     24 CA         -4.9610   33.5940    2.8600 C.3       8 GLP5        0.0000 
     25 N          -3.1650   37.4000    4.7195 N.am      2 SEC2        0.0000 
     26 N          -1.9700   36.4560    5.2300 N.am     10 SEL2        0.0000 
     27 N          -4.3600   38.3440    4.2090 N.am      6 SEP2        0.0000 
     28 O          -1.6455   36.1330    3.9940 O.2       1 ALC1        0.0000 
     29 O          -1.9700   36.4560    5.2300 O.2       9 ALL1        0.0000 
     30 O          -1.3210   35.8100    2.7580 O.2       5 ALP1        0.0000 
     31 CA          2.7985   30.9890    4.3355 C.3       4 GLC5        0.0000 
     32 CA          4.3440   29.6950    4.8220 C.3      12 GLL5        0.0000 
     33 CA          1.2530   32.2830    3.8490 C.3       8 GLP5        0.0000 
     34 CA          5.4825   31.2240    5.8015 C.3       4 GLC5        0.0000 
     35 CA          6.6210   32.7530    6.7810 C.3       8 GLP5        0.0000 
     36 OD1         5.3570   29.2025    2.4235 O.co2     3 ASC3        0.0000 
     37 OD1         6.1760   28.9360    3.3830 O.co2    11 ASL3        0.0000 
     38 OD1         4.5380   29.4690    1.4640 O.co2     7 ASP3        0.0000 
     39 OD1         5.0225   28.2795    1.9840 O.co2     3 ASC3        0.0000 
     40 OD1         3.8690   27.6230    0.5850 O.co2     7 ASP3        0.0000 
     41 O           5.3570   29.2025    2.4235 O.2       1 ALC1        0.0000 
     42 O           6.1760   28.9360    3.3830 O.2       9 ALL1        0.0000 
     43 O           4.5380   29.4690    1.4640 O.2       5 ALP1        0.0000 
     44 CA          6.4830   31.6915    2.9185 C.3       4 GLC5        0.0000 
     45 CA          6.8570   30.1650    3.7940 C.3      12 GLL5        0.0000 
     46 CA          6.1090   33.2180    2.0430 C.3       8 GLP5        0.0000 
     47 CA          6.7390   31.4590    5.2875 C.3       4 GLC5        0.0000 
     48 CA          2.9675   28.7390    8.6470 C.3       4 GLC5        0.0000 
     49 CA          1.7830   29.5120    7.2800 C.3      12 GLL5        0.0000 
     50 CA          4.1520   27.9660   10.0140 C.3       8 GLP5        0.0000 
     51 CA         -1.0795   29.8555    7.4205 C.3       4 GLC5        0.0000 
     52 CA          0.8230   30.3430    7.8980 C.3      12 GLL5        0.0000 
     53 CA         -3.3115   32.7257   12.1485 C.3       4 GLC5        0.0000 
     54 CA         -5.1810   32.1700   12.9830 C.3       8 GLP5        0.0000 
     55 CA         -2.5025   31.1405    9.7480 C.3       4 GLC5        0.0000 
     56 CA          3.7280   30.7002   10.6393 C.3       4 GLC5        0.0000 
     57 CA          1.5880   31.6980   11.0220 C.3      12 GLL5        0.0000 
     58 CA          5.4620   30.1040    9.8530 C.3       8 GLP5        0.0000 
     59 CA          3.4223   31.3590   13.2773 C.3       4 GLC5        0.0000 
     60 CA          2.4000   30.8950   11.8290 C.3      12 GLL5        0.0000 
     61 CA          4.7030   32.3900   14.4160 C.3       8 GLP5        0.0000 
     62 CA          2.6835   28.7812   11.1710 C.3       4 GLC5        0.0000 
     63 CA          0.5470   29.4320   12.2080 C.3      12 GLL5        0.0000 
     64 CA         -1.5753   29.2995   12.2960 C.3       4 GLC5        0.0000 
     65 CA         -3.2910   28.7640   12.7960 C.3       8 GLP5        0.0000 
     66 CA          0.6667   28.4816   10.6095 C.3       4 GLC5        0.0000 
     67 CA          0.8590   27.0460    9.3630 C.3       8 GLP5        0.0000 
     68 CA         -0.0325   32.9690    4.9582 C.3       4 GLC5        0.0000 
     69 CA         -2.3595   36.3725    8.7020 C.3       4 GLC5        0.0000 
     70 CA         -1.0590   35.8230    7.3220 C.3      12 GLL5        0.0000 
     71 CA         -3.8900   37.4380    9.6620 C.3       8 GLP5        0.0000 
     72 CA          0.5414   36.4745    6.7402 C.3       4 GLC5        0.0000 
     73 CA         -0.5990   34.7910    8.1620 C.3      12 GLL5        0.0000 
     74 CA          2.0240   37.7240    6.0560 C.3       8 GLP5        0.0000 
     75 CA          1.3915   32.1515    5.7675 C.3       4 GLC5        0.0000 
     76 CA          2.0890   32.3060    7.3750 C.3      12 GLL5        0.0000 
     77 CA          3.2015   33.5288    8.1480 C.3       4 GLC5        0.0000 
     78 CA          3.8390   35.1610    9.2280 C.3       8 GLP5        0.0000 
     79 CA          2.7320   33.7377    6.0515 C.3       4 GLC5        0.0000 
     80 CA          2.9000   35.5790    5.0350 C.3       8 GLP5        0.0000 
     81 CA          4.2148   30.4492    8.2883 C.3       4 GLC5        0.0000 
     82 CA          3.0390   31.4870    6.7610 C.3      12 GLL5        0.0000 
     83 CA          1.2532   28.8755    5.5360 C.3       4 GLC5        0.0000 
     84 CA          2.8960   30.1020    6.6860 C.3      12 GLL5        0.0000 
     85 CA          0.1670   27.9440    4.0890 C.3       8 GLP5        0.0000 
     86 CA          3.4108   27.6745    4.1492 C.3       4 GLC5        0.0000 
     87 CA          2.0020   26.2430    3.6510 C.3       8 GLP5        0.0000 
     88 CA          1.0810   28.4868    8.4760 C.3       4 GLC5        0.0000 
     89 CA          1.8141   31.2181    5.4254 C.3       4 GLC5        0.0000 
@<TRIPOS>BOND
@<TRIPOS>SUBSTRUCTURE
     1 ALC1       28 GROUP        1 X    ALC  0     ROOT ALC X 1
     2 SEC2       25 GROUP        1 X    SEC  0     **** SEC X 2
     3 ASC3       36 GROUP        1 X    ASC  0     **** ASC X 3
     4 GLC5        1 GROUP        1 X    GLC  0     **** GLC X 6
     5 ALP1       30 GROUP        1 Y    ALP  0     ROOT ALP Y 8
     6 SEP2       27 GROUP        1 Y    SEP  0     **** SEP Y 9
     7 ASP3       38 GROUP        1 Y    ASP  0     **** ASP Y 10
     8 GLP5        3 GROUP        1 Y    GLP  0     **** GLP Y 13
     9 ALL1       29 GROUP        1 Z    ALL  0     ROOT ALL Z 15
    10 SEL2       26 GROUP        1 Z    SEL  0     **** SEL Z 16
    11 ASL3       37 GROUP        1 Z    ASL  0     **** ASL Z 17
    12 GLL5        2 GROUP        1 Z    GLL  0     **** GLL Z 20
@<TRIPOS>SET

