#    Name: 2bj4_OHT_2_ligand
#    Modification time : Mon Mar 24 21:04:29 2014

@<TRIPOS>MOLECULE
2bj4_OHT_2_ligand
   59    61     1     0     0
SMALL
NO_CHARGES


@<TRIPOS>ATOM
      1 C10        -1.2800   33.4900   12.0250 C.3       1 OHT1530     0.0000 
      2 C9         -1.6040   33.0730   10.6030 C.3       1 OHT1530     0.0000 
      3 C8         -0.4580   32.2710    9.9510 C.2       1 OHT1530     0.0000 
      4 C11         0.2510   31.3600   10.7580 C.ar      1 OHT1530     0.0000 
      5 C16         1.5880   31.6980   11.0220 C.ar      1 OHT1530     0.0000 
      6 C15         2.4000   30.8950   11.8290 C.ar      1 OHT1530     0.0000 
      7 C14         1.8830   29.7610   12.4480 C.ar      1 OHT1530     0.0000 
      8 C13         0.5470   29.4320   12.2080 C.ar      1 OHT1530     0.0000 
      9 C12        -0.2660   30.2380   11.3840 C.ar      1 OHT1530     0.0000 
     10 C7         -0.0670   32.4920    8.6220 C.2       1 OHT1530     0.0000 
     11 C1         -0.6340   33.4560    7.7740 C.ar      1 OHT1530     0.0000 
     12 C2         -1.0870   33.1560    6.4900 C.ar      1 OHT1530     0.0000 
     13 C3         -1.5490   34.1540    5.6450 C.ar      1 OHT1530     0.0000 
     14 C4         -1.5080   35.4950    6.0520 C.ar      1 OHT1530     0.0000 
     15 O4         -1.9700   36.4560    5.2300 O.3       1 OHT1530     0.0000 
     16 C5         -1.0590   35.8230    7.3220 C.ar      1 OHT1530     0.0000 
     17 C6         -0.5990   34.7910    8.1620 C.ar      1 OHT1530     0.0000 
     18 C17         0.9710   31.7340    7.9970 C.ar      1 OHT1530     0.0000 
     19 C18         2.0890   32.3060    7.3750 C.ar      1 OHT1530     0.0000 
     20 C19         3.0390   31.4870    6.7610 C.ar      1 OHT1530     0.0000 
     21 C20         2.8960   30.1020    6.6860 C.ar      1 OHT1530     0.0000 
     22 O20         3.8480   29.2970    6.0910 O.3       1 OHT1530     0.0000 
     23 C23         4.3440   29.6950    4.8220 C.3       1 OHT1530     0.0000 
     24 C24         5.2950   28.5170    4.4730 C.3       1 OHT1530     0.0000 
     25 N24         6.1760   28.9360    3.3830 N.4       1 OHT1530     0.0000 
     26 C25         6.8570   30.1650    3.7940 C.3       1 OHT1530     0.0000 
     27 C26         7.1600   27.9070    3.0590 C.3       1 OHT1530     0.0000 
     28 C21         1.7830   29.5120    7.2800 C.ar      1 OHT1530     0.0000 
     29 C22         0.8230   30.3430    7.8980 C.ar      1 OHT1530     0.0000 
     30 H          -1.7973   33.9623    9.9943 H         1 OHT1530     0.0000 
     31 H          -2.5082   32.4556   10.5981 H         1 OHT1530     0.0000 
     32 H           1.9797   32.5629   10.6082 H         1 OHT1530     0.0000 
     33 H           3.3902   31.1479   11.9647 H         1 OHT1530     0.0000 
     34 H           2.4576   29.1885   13.0561 H         1 OHT1530     0.0000 
     35 H           0.1420   28.5858   12.6382 H         1 OHT1530     0.0000 
     36 H          -1.2559   29.9792   11.2532 H         1 OHT1530     0.0000 
     37 H          -1.0771   32.1731    6.1656 H         1 OHT1530     0.0000 
     38 H          -1.9233   33.9171    4.7176 H         1 OHT1530     0.0000 
     39 H          -1.0579   36.7853    7.6491 H         1 OHT1530     0.0000 
     40 H          -0.2237   35.0418    9.0979 H         1 OHT1530     0.0000 
     41 H           2.2073   33.3239    7.3719 H         1 OHT1530     0.0000 
     42 H           3.8873   31.9289    6.3429 H         1 OHT1530     0.0000 
     43 H           4.9312   30.5806    4.8623 H         1 OHT1530     0.0000 
     44 H           3.5908   29.7325    4.0724 H         1 OHT1530     0.0000 
     45 H           4.6819   27.6703    4.1846 H         1 OHT1530     0.0000 
     46 H           5.8584   28.2701    5.3661 H         1 OHT1530     0.0000 
     47 H           5.5725   29.1531    2.5030 H         1 OHT1530     0.0000 
     48 H           1.6561   28.5046    7.2736 H         1 OHT1530     0.0000 
     49 H          -0.0324   29.8987    8.2972 H         1 OHT1530     0.0000 
     50 H          -1.1101   32.7000   12.6141 H         1 OHT1530     0.0000 
     51 H          -0.4643   34.0671   12.0661 H         1 OHT1530     0.0000 
     52 H          -2.0276   34.0092   12.4392 H         1 OHT1530     0.0000 
     53 H           7.4020   30.0287    4.6213 H         1 OHT1530     0.0000 
     54 H           7.4783   30.5000    3.0856 H         1 OHT1530     0.0000 
     55 H           6.2090   30.9016    3.9879 H         1 OHT1530     0.0000 
     56 H           7.7630   28.1913    2.3136 H         1 OHT1530     0.0000 
     57 H           7.7435   27.6914    3.8420 H         1 OHT1530     0.0000 
     58 H           6.7244   27.0531    2.7742 H         1 OHT1530     0.0000 
     59 H          -2.1331   35.9942    4.3581 H         1 OHT1530     0.0000 
@<TRIPOS>BOND
     1    2    1 1    
     2   50    1 1    
     3   51    1 1    
     4   52    1 1    
     5    3    2 1    
     6   30    2 1    
     7   31    2 1    
     8    4    3 1    
     9   10    3 2    
    10    5    4 ar   
    11    9    4 ar   
    12    6    5 ar   
    13   32    5 1    
    14    7    6 ar   
    15   33    6 1    
    16    8    7 ar   
    17   34    7 1    
    18    9    8 ar   
    19   35    8 1    
    20   36    9 1    
    21   11   10 1    
    22   18   10 1    
    23   12   11 ar   
    24   17   11 ar   
    25   13   12 ar   
    26   37   12 1    
    27   14   13 ar   
    28   38   13 1    
    29   15   14 1    
    30   16   14 ar   
    31   59   15 1    
    32   17   16 ar   
    33   39   16 1    
    34   40   17 1    
    35   19   18 ar   
    36   29   18 ar   
    37   20   19 ar   
    38   41   19 1    
    39   21   20 ar   
    40   42   20 1    
    41   22   21 1    
    42   28   21 ar   
    43   23   22 1    
    44   24   23 1    
    45   43   23 1    
    46   44   23 1    
    47   25   24 1    
    48   45   24 1    
    49   46   24 1    
    50   26   25 1    
    51   27   25 1    
    52   47   25 1    
    53   53   26 1    
    54   54   26 1    
    55   55   26 1    
    56   56   27 1    
    57   57   27 1    
    58   58   27 1    
    59   29   28 ar   
    60   48   28 1    
    61   49   29 1    
@<TRIPOS>SUBSTRUCTURE
     1 OHT1530     1 GROUP   
@<TRIPOS>SET

