#    Name: 2go4_TUX_1_INTS_M
#    Modification time : Tue Mar 25 14:51:36 2014

@<TRIPOS>MOLECULE
2go4_TUX_1_INTS_M
   72     0    12     0     0
SMALL
NO_CHARGES


@<TRIPOS>ATOM
      1 CA        -31.6880   77.2960    2.5870 C.3       4 GLC5        0.0000 
      2 CA        -32.1150   78.8920    3.7840 C.3      12 GLL5        0.0000 
      3 CA        -31.2610   75.7000    1.3900 C.3       8 GLP5        0.0000 
      4 CA        -28.8295   78.6325    1.7625 C.3       4 GLC5        0.0000 
      5 CA        -29.7580   78.5920    3.5110 C.3      12 GLL5        0.0000 
      6 CA        -27.9010   78.6730    0.0140 C.3       8 GLP5        0.0000 
      7 CA        -29.1355   75.7720    8.3280 C.3       4 GLC5        0.0000 
      8 CA        -30.8580   74.8550    8.1670 C.3      12 GLL5        0.0000 
      9 CA        -27.4130   76.6890    8.4890 C.3       8 GLP5        0.0000 
     10 CA        -32.0230   76.0485    9.1840 C.3       4 GLC5        0.0000 
     11 CA        -33.1880   77.2420   10.2010 C.3       8 GLP5        0.0000 
     12 CA        -30.3715   75.1755   10.1475 C.3       4 GLC5        0.0000 
     13 CA        -29.8850   75.4960   12.1280 C.3       8 GLP5        0.0000 
     14 CA        -31.8540   71.3025    7.7535 C.3       4 GLC5        0.0000 
     15 CA        -31.3740   73.4170    8.2340 C.3      12 GLL5        0.0000 
     16 CA        -32.3340   69.1880    7.2730 C.3       8 GLP5        0.0000 
     17 CA        -32.5540   75.1920    9.9190 C.3       4 GLC5        0.0000 
     18 CA        -31.9200   73.1420    9.6370 C.3      12 GLL5        0.0000 
     19 CA        -30.9025   74.3190   10.8825 C.3       4 GLC5        0.0000 
     20 CA        -35.4975   71.7380   11.3755 C.3       4 GLC5        0.0000 
     21 CA        -33.3330   71.4890   10.9560 C.3      12 GLL5        0.0000 
     22 CA        -37.6620   71.9870   11.7950 C.3       8 GLP5        0.0000 
     23 CA        -32.4720   73.1030   16.5465 C.3       4 GLC5        0.0000 
     24 CA        -33.4930   72.1810   14.7710 C.3      12 GLL5        0.0000 
     25 CA        -31.4510   74.0250   18.3220 C.3       8 GLP5        0.0000 
     26 CA        -35.5725   75.1345   16.6210 C.3       4 GLC5        0.0000 
     27 CA        -36.3660   73.4080   17.7110 C.3      12 GLL5        0.0000 
     28 CA        -34.7790   76.8610   15.5310 C.3       8 GLP5        0.0000 
     29 Zn        -25.5380   78.3370    5.5130 Zn        3 ZIC7        0.0000 
     30 Zn        -26.5470   78.0000    5.8580 Zn       11 ZIL7        0.0000 
     31 Zn        -24.5290   78.6740    5.1680 Zn        7 ZIP7        0.0000 
     32 Zn        -24.9250   78.3925    4.3175 Zn        3 ZIC7        0.0000 
     33 Zn        -25.3210   78.1110    3.4670 Zn       11 ZIL7        0.0000 
     34 N         -26.0930   78.3795    2.1915 N.am      2 SEC2        0.0000 
     35 N         -25.3210   78.1110    3.4670 N.am     10 SEL2        0.0000 
     36 N         -26.8650   78.6480    0.9160 N.am      6 SEP2        0.0000 
     37 O         -25.1690   77.0550    2.5980 O.2       1 ALC1        0.0000 
     38 O         -25.3210   78.1110    3.4670 O.2       9 ALL1        0.0000 
     39 O         -25.0170   75.9990    1.7290 O.2       5 ALP1        0.0000 
     40 N         -33.6935   76.7735    4.1715 N.am      2 SEC2        0.0000 
     41 N         -33.3130   77.6660    5.4960 N.am     10 SEL2        0.0000 
     42 N         -34.0740   75.8810    2.8470 N.am      6 SEP2        0.0000 
     43 O         -34.2065   78.3880    6.7200 O.2       1 ALC1        0.0000 
     44 O         -33.3130   77.6660    5.4960 O.2       9 ALL1        0.0000 
     45 O         -35.1000   79.1100    7.9440 O.2       5 ALP1        0.0000 
     46 O         -34.5550   78.5025    5.6835 O.2       1 ALC1        0.0000 
     47 O         -35.7970   79.3390    5.8710 O.2       5 ALP1        0.0000 
     48 CA        -28.2323   77.0632    6.7020 C.3       4 GLC5        0.0000 
     49 CA        -29.6160   77.9540    4.8970 C.3      12 GLL5        0.0000 
     50 CA        -30.6389   76.9036    2.8478 C.3       4 GLC5        0.0000 
     51 CA        -30.9350   77.2910    5.3030 C.3      12 GLL5        0.0000 
     52 CA        -33.0600   74.3995    7.4062 C.3       4 GLC5        0.0000 
     53 CA        -35.0040   74.6630    6.6120 C.3       8 GLP5        0.0000 
     54 CA        -29.5850   73.0380    8.9639 C.3       4 GLC5        0.0000 
     55 CA        -27.6520   72.4370    9.0090 C.3       8 GLP5        0.0000 
     56 CA        -32.5825   70.3860    8.8293 C.3       4 GLC5        0.0000 
     57 CA        -32.3290   71.6790    9.8150 C.3      12 GLL5        0.0000 
     58 CA        -34.8938   73.0217   13.1165 C.3       4 GLC5        0.0000 
     59 CA        -32.8430   71.9980   12.3150 C.3      12 GLL5        0.0000 
     60 CA        -36.4440   74.2460   13.3750 C.3       8 GLP5        0.0000 
     61 CA        -31.2555   70.5880   11.4726 C.3       4 GLC5        0.0000 
     62 CA        -29.6740   69.3850   11.5950 C.3       8 GLP5        0.0000 
     63 CA        -35.1945   73.0625   14.3425 C.3       4 GLC5        0.0000 
     64 CA        -33.2785   73.7360   15.4570 C.3       4 GLC5        0.0000 
     65 CA        -32.6120   75.5930   15.6040 C.3       8 GLP5        0.0000 
     66 CA        -32.9810   73.4462   17.8260 C.3       4 GLC5        0.0000 
     67 CA        -34.1570   72.1950   17.2300 C.3      12 GLL5        0.0000 
     68 CA        -33.5615   74.2303   16.4670 C.3       4 GLC5        0.0000 
     69 CA        -36.0258   74.9770   18.9198 C.3       4 GLC5        0.0000 
     70 CA        -34.8650   73.5400   17.4300 C.3      12 GLL5        0.0000 
     71 CA        -36.4360   76.4800   20.2690 C.3       8 GLP5        0.0000 
     72 CA        -36.4169   73.7190   15.2059 C.3       4 GLC5        0.0000 
@<TRIPOS>BOND
@<TRIPOS>SUBSTRUCTURE
     1 ALC1       37 GROUP        1 X    ALC  0     ROOT ALC X 1
     2 SEC2       34 GROUP        1 X    SEC  0     **** SEC X 2
     3 ZIC7       29 GROUP        1 X    ZIC  0     **** ZIC X 5
     4 GLC5        1 GROUP        1 X    GLC  0     **** GLC X 6
     5 ALP1       39 GROUP        1 Y    ALP  0     ROOT ALP Y 8
     6 SEP2       36 GROUP        1 Y    SEP  0     **** SEP Y 9
     7 ZIP7       31 GROUP        1 Y    ZIP  0     **** ZIP Y 12
     8 GLP5        3 GROUP        1 Y    GLP  0     **** GLP Y 13
     9 ALL1       38 GROUP        1 Z    ALL  0     ROOT ALL Z 15
    10 SEL2       35 GROUP        1 Z    SEL  0     **** SEL Z 16
    11 ZIL7       30 GROUP        1 Z    ZIL  0     **** ZIL Z 19
    12 GLL5        2 GROUP        1 Z    GLL  0     **** GLL Z 20
@<TRIPOS>SET

