#    Name: 2go4_TUX_1_ligand
#    Modification time : Tue Mar 25 14:51:36 2014

@<TRIPOS>MOLECULE
2go4_TUX_1_ligand
   71    71     1     0     0
SMALL
NO_CHARGES


@<TRIPOS>ATOM
      1 C3G       -30.9350   77.2910    5.3030 C.3       1 TUX901      0.0000 
      2 C4G       -32.0710   78.3100    5.2000 C.3       1 TUX901      0.0000 
      3 C5G       -32.1150   78.8920    3.7840 C.3       1 TUX901      0.0000 
      4 C2G       -29.6160   77.9540    4.8970 C.3       1 TUX901      0.0000 
      5 C1G       -29.7580   78.5920    3.5110 C.3       1 TUX901      0.0000 
      6 O5G       -30.8550   79.5230    3.4950 O.3       1 TUX901      0.0000 
      7 O3G       -30.8270   76.8150    6.6520 O.3       1 TUX901      0.0000 
      8 O1A       -31.2350   74.7680    5.7900 O.2       1 TUX901      0.0000 
      9 C1A       -30.9760   75.4670    6.7690 C.2       1 TUX901      0.0000 
     10 C2A       -30.8580   74.8550    8.1670 C.3       1 TUX901      0.0000 
     11 C3A       -31.3740   73.4170    8.2340 C.3       1 TUX901      0.0000 
     12 C4A       -31.9200   73.1420    9.6370 C.3       1 TUX901      0.0000 
     13 C5A       -32.3290   71.6790    9.8150 C.3       1 TUX901      0.0000 
     14 C6A       -33.3330   71.4890   10.9560 C.3       1 TUX901      0.0000 
     15 C7A       -32.8430   71.9980   12.3150 C.3       1 TUX901      0.0000 
     16 C8A       -33.8440   71.5970   13.4010 C.3       1 TUX901      0.0000 
     17 C9A       -33.4930   72.1810   14.7710 C.3       1 TUX901      0.0000 
     18 CAA       -34.3970   71.5770   15.8490 C.3       1 TUX901      0.0000 
     19 CBA       -34.1570   72.1950   17.2300 C.3       1 TUX901      0.0000 
     20 CCA       -34.8650   73.5400   17.4300 C.3       1 TUX901      0.0000 
     21 CDA       -36.3660   73.4080   17.7110 C.3       1 TUX901      0.0000 
     22 CEA       -37.1640   72.9100   16.5030 C.3       1 TUX901      0.0000 
     23 CZH       -28.4870   76.9210    4.9330 C.3       1 TUX901      0.0000 
     24 CYH       -27.1010   77.5640    4.8510 C.2       1 TUX901      0.0000 
     25 OYH       -26.5470   78.0000    5.8580 O.2       1 TUX901      0.0000 
     26 NXH       -26.5680   77.5970    3.6340 N.am      1 TUX901      0.0000 
     27 OXH       -25.3210   78.1110    3.4670 O.3       1 TUX901      0.0000 
     28 O4G       -33.3130   77.6660    5.4960 O.3       1 TUX901      0.0000 
     29 C6G       -33.2640   79.8990    3.6810 C.3       1 TUX901      0.0000 
     30 O6G       -33.4170   80.3350    2.3280 O.3       1 TUX901      0.0000 
     31 H         -31.1334   76.4895    4.6175 H         1 TUX901      0.0000 
     32 H         -31.8685   79.1107    5.8878 H         1 TUX901      0.0000 
     33 H         -32.3118   78.0824    3.0998 H         1 TUX901      0.0000 
     34 H         -29.3955   78.7328    5.6157 H         1 TUX901      0.0000 
     35 H         -29.9061   77.7833    2.7841 H         1 TUX901      0.0000 
     36 H         -28.8078   79.0858    3.2711 H         1 TUX901      0.0000 
     37 H         -31.4244   75.4721    8.8760 H         1 TUX901      0.0000 
     38 H         -29.8054   74.8726    8.4769 H         1 TUX901      0.0000 
     39 H         -30.5623   72.7335    8.0246 H         1 TUX901      0.0000 
     40 H         -32.1654   73.2847    7.5087 H         1 TUX901      0.0000 
     41 H         -32.7887   73.7813    9.8146 H         1 TUX901      0.0000 
     42 H         -31.1533   73.3922   10.3748 H         1 TUX901      0.0000 
     43 H         -31.4364   71.0796   10.0213 H         1 TUX901      0.0000 
     44 H         -32.7742   71.3151    8.8834 H         1 TUX901      0.0000 
     45 H         -33.5750   70.4168   11.0431 H         1 TUX901      0.0000 
     46 H         -34.2697   72.0097   10.6970 H         1 TUX901      0.0000 
     47 H         -32.7587   73.0766   12.2846 H         1 TUX901      0.0000 
     48 H         -31.8785   71.5592   12.5356 H         1 TUX901      0.0000 
     49 H         -33.8729   70.5037   13.4747 H         1 TUX901      0.0000 
     50 H         -34.8435   71.9409   13.1108 H         1 TUX901      0.0000 
     51 H         -33.6314   73.2572   14.7488 H         1 TUX901      0.0000 
     52 H         -32.4574   71.9545   15.0034 H         1 TUX901      0.0000 
     53 H         -34.2166   70.4981   15.9041 H         1 TUX901      0.0000 
     54 H         -35.4437   71.7308   15.5657 H         1 TUX901      0.0000 
     55 H         -33.0764   72.3360   17.3753 H         1 TUX901      0.0000 
     56 H         -34.5032   71.4919   18.0011 H         1 TUX901      0.0000 
     57 H         -34.7234   74.1549   16.5293 H         1 TUX901      0.0000 
     58 H         -34.3906   74.0715   18.2678 H         1 TUX901      0.0000 
     59 H         -36.7582   74.3859   18.0203 H         1 TUX901      0.0000 
     60 H         -36.5122   72.7122   18.5478 H         1 TUX901      0.0000 
     61 H         -28.6101   76.2273    4.0940 H         1 TUX901      0.0000 
     62 H         -28.5596   76.3440    5.8615 H         1 TUX901      0.0000 
     63 H         -27.0883   77.2368    2.8095 H         1 TUX901      0.0000 
     64 H         -33.0354   80.7349    4.3541 H         1 TUX901      0.0000 
     65 H         -34.1713   79.4082    4.0550 H         1 TUX901      0.0000 
     66 H         -37.0784   73.5276   15.7212 H         1 TUX901      0.0000 
     67 H         -36.8549   72.0086   16.1997 H         1 TUX901      0.0000 
     68 H         -38.1394   72.8314   16.7090 H         1 TUX901      0.0000 
     69 H         -24.8856   77.5185    2.7892 H         1 TUX901      0.0000 
     70 H         -33.9763   78.4096    5.5803 H         1 TUX901      0.0000 
     71 H         -32.5495   80.7766    2.0989 H         1 TUX901      0.0000 
@<TRIPOS>BOND
     1    2    1 1    
     2    4    1 1    
     3    7    1 1    
     4   31    1 1    
     5    3    2 1    
     6   28    2 1    
     7   32    2 1    
     8    6    3 1    
     9   29    3 1    
    10   33    3 1    
    11    5    4 1    
    12   23    4 1    
    13   34    4 1    
    14    6    5 1    
    15   35    5 1    
    16   36    5 1    
    17    9    7 1    
    18    9    8 2    
    19   10    9 1    
    20   11   10 1    
    21   37   10 1    
    22   38   10 1    
    23   12   11 1    
    24   39   11 1    
    25   40   11 1    
    26   13   12 1    
    27   41   12 1    
    28   42   12 1    
    29   14   13 1    
    30   43   13 1    
    31   44   13 1    
    32   15   14 1    
    33   45   14 1    
    34   46   14 1    
    35   16   15 1    
    36   47   15 1    
    37   48   15 1    
    38   17   16 1    
    39   49   16 1    
    40   50   16 1    
    41   18   17 1    
    42   51   17 1    
    43   52   17 1    
    44   19   18 1    
    45   53   18 1    
    46   54   18 1    
    47   20   19 1    
    48   55   19 1    
    49   56   19 1    
    50   21   20 1    
    51   57   20 1    
    52   58   20 1    
    53   22   21 1    
    54   59   21 1    
    55   60   21 1    
    56   66   22 1    
    57   67   22 1    
    58   68   22 1    
    59   24   23 1    
    60   61   23 1    
    61   62   23 1    
    62   25   24 2    
    63   26   24 am   
    64   27   26 1    
    65   63   26 1    
    66   69   27 1    
    67   70   28 1    
    68   30   29 1    
    69   64   29 1    
    70   65   29 1    
    71   71   30 1    
@<TRIPOS>SUBSTRUCTURE
     1 TUX901      1 GROUP   
@<TRIPOS>SET

