#    Name: 3K14_2_CAVITY_N1_6.mol2
#    Modification time : Tue Mar 11 05:37:12 2014

@<TRIPOS>MOLECULE
3K14_2_CAVITY_N1_6.mol2
   70     0     6     0     0
SMALL
NO_CHARGES


@<TRIPOS>ATOM
      1 O          36.8241  -38.2093  -31.3699 O.2       2 ALA2        0.0000 
      2 N          37.8011  -38.9379  -29.0754 N.2       2 ALA2        0.0000 
      3 DU         35.7524  -36.7841  -29.4804 H         6 CUB7        0.0000 
      4 N          36.0260  -38.7527  -30.2220 N.2       2 ALA2        0.0000 
      5 N          35.0016  -37.6758  -30.4244 N.2       2 ALA2        0.0000 
      6 N          34.2508  -38.5675  -31.3685 N.2       2 ALA2        0.0000 
      7 CA         38.7781  -39.6664  -26.7809 C.3       5 GLY6        0.0000 
      8 DU         36.7294  -37.5127  -27.1859 H         6 CUB7        0.0000 
      9 DU         34.6806  -35.3590  -27.5909 H         6 CUB7        0.0000 
     10 DU         33.6562  -34.2821  -27.7933 H         6 CUB7        0.0000 
     11 N          32.6319  -33.2052  -27.9958 N.2       2 ALA2        0.0000 
     12 CA         35.9786  -38.4044  -28.1300 C.3       5 GLY6        0.0000 
     13 DU         34.9542  -37.3275  -28.3324 H         6 CUB7        0.0000 
     14 DU         33.9299  -36.2506  -28.5349 H         6 CUB7        0.0000 
     15 OD1        32.9055  -35.1738  -28.7374 O.3       3 ASP3        0.0000 
     16 N          35.2278  -39.2961  -29.0740 N.2       2 ALA2        0.0000 
     17 DU         34.2035  -38.2192  -29.2765 H         6 CUB7        0.0000 
     18 DU         33.1791  -37.1423  -29.4790 H         6 CUB7        0.0000 
     19 CA         32.1547  -36.0655  -29.6815 C.3       5 GLY6        0.0000 
     20 N          34.4771  -40.1877  -30.0181 N.2       2 ALA2        0.0000 
     21 CA         33.4527  -39.1109  -30.2206 C.3       5 GLY6        0.0000 
     22 CA         32.4283  -38.0340  -30.4231 C.3       5 GLY6        0.0000 
     23 DU         39.2079  -36.4579  -23.0033 H         6 CUB7        0.0000 
     24 CA         38.1836  -35.3810  -23.2058 C.3       5 GLY6        0.0000 
     25 OG         35.3840  -34.1190  -24.5548 O.2       1 SER1        0.0000 
     26 CA         38.7308  -39.3181  -24.6889 C.3       5 GLY6        0.0000 
     27 DU         37.7064  -38.2413  -24.8914 H         6 CUB7        0.0000 
     28 DU         36.6820  -37.1644  -25.0939 H         6 CUB7        0.0000 
     29 DU         35.6576  -36.0875  -25.2964 H         6 CUB7        0.0000 
     30 OD1        34.6333  -35.0107  -25.4989 O.3       3 ASP3        0.0000 
     31 NZ         33.6089  -33.9338  -25.7014 N.2       4 LYS4        0.0000 
     32 NZ         32.5845  -32.8569  -25.9038 N.2       4 LYS4        0.0000 
     33 N          39.0044  -41.2867  -25.4305 N.2       2 ALA2        0.0000 
     34 CA         37.9800  -40.2098  -25.6330 C.3       5 GLY6        0.0000 
     35 CA         36.9556  -39.1329  -25.8355 C.3       5 GLY6        0.0000 
     36 CA         35.9313  -38.0561  -26.0380 C.3       5 GLY6        0.0000 
     37 DU         34.9069  -36.9792  -26.2405 H         6 CUB7        0.0000 
     38 OD1        33.8825  -35.9023  -26.4429 O.3       3 ASP3        0.0000 
     39 OD1        32.8581  -34.8255  -26.6454 O.3       3 ASP3        0.0000 
     40 CA         35.1805  -38.9478  -26.9820 C.3       5 GLY6        0.0000 
     41 CA         34.1561  -37.8709  -27.1845 C.3       5 GLY6        0.0000 
     42 CA         33.1317  -36.7940  -27.3870 C.3       5 GLY6        0.0000 
     43 OD1        32.1074  -35.7171  -27.5895 O.3       3 ASP3        0.0000 
     44 O          34.4297  -39.8394  -27.9261 O.2       2 ALA2        0.0000 
     45 CA         33.4053  -38.7626  -28.1286 C.3       5 GLY6        0.0000 
     46 CA         32.3810  -37.6857  -28.3311 C.3       5 GLY6        0.0000 
     47 CA         31.3566  -36.6088  -28.5335 C.3       5 GLY6        0.0000 
     48 CA         37.3854  -35.9244  -22.0578 C.3       5 GLY6        0.0000 
     49 N          37.6590  -37.8930  -22.7994 N.2       2 ALA2        0.0000 
     50 N          36.6347  -36.8161  -23.0019 N.2       2 ALA2        0.0000 
     51 O          35.6103  -35.7392  -23.2044 O.2       2 ALA2        0.0000 
     52 O          34.5859  -34.6624  -23.4069 O.2       2 ALA2        0.0000 
     53 OG         33.5615  -33.5855  -23.6094 O.2       1 SER1        0.0000 
     54 N          36.9083  -38.7846  -23.7435 N.2       2 ALA2        0.0000 
     55 N          35.8839  -37.7078  -23.9460 N.2       2 ALA2        0.0000 
     56 OD1        34.8595  -36.6309  -24.1485 O.3       3 ASP3        0.0000 
     57 OD1        33.8351  -35.5540  -24.3509 O.3       3 ASP3        0.0000 
     58 CA         37.1819  -40.7532  -24.4851 C.3       5 GLY6        0.0000 
     59 CA         36.1575  -39.6763  -24.6876 C.3       5 GLY6        0.0000 
     60 CA         35.1331  -38.5995  -24.8900 C.3       5 GLY6        0.0000 
     61 OD1        34.1088  -37.5226  -25.0925 O.3       3 ASP3        0.0000 
     62 CA         34.3824  -39.4911  -25.8341 C.3       5 GLY6        0.0000 
     63 CA         33.3580  -38.4143  -26.0366 C.3       5 GLY6        0.0000 
     64 OD1        32.3336  -37.3374  -26.2391 O.3       3 ASP3        0.0000 
     65 OD1        31.3092  -36.2605  -26.4416 O.3       3 ASP3        0.0000 
     66 CA         34.0614  -37.1743  -23.0005 C.3       5 GLY6        0.0000 
     67 N          35.3594  -40.2197  -23.5396 N.2       2 ALA2        0.0000 
     68 N          34.3350  -39.1428  -23.7421 N.2       2 ALA2        0.0000 
     69 CA         33.3106  -38.0660  -23.9446 C.3       5 GLY6        0.0000 
     70 CA         33.5842  -40.0345  -24.6862 C.3       5 GLY6        0.0000 
@<TRIPOS>BOND
@<TRIPOS>SUBSTRUCTURE
     1 SER1       25 GROUP   
     2 ALA2        1 GROUP   
     3 ASP3       15 GROUP   
     4 LYS4       31 GROUP   
     5 GLY6        7 GROUP   
     6 CUB7        3 GROUP   
@<TRIPOS>SET

