#    Name: 3k14_535_2_INTS_M
#    Modification time : Mon Mar 24 17:57:38 2014

@<TRIPOS>MOLECULE
3k14_535_2_INTS_M
   20     0     6     0     0
SMALL
NO_CHARGES


@<TRIPOS>ATOM
      1 Zn         30.5725  -34.3780  -27.4260 Zn        1 ZIC7        0.0000 
      2 Zn         31.5580  -34.4400  -27.0930 Zn        5 ZIL7        0.0000 
      3 Zn         29.5870  -34.3160  -27.7590 Zn        3 ZIP7        0.0000 
      4 CA         30.4310  -32.4680  -26.8325 C.3       2 GLC5        0.0000 
      5 CA         32.1920  -33.4500  -26.1970 C.3       6 GLL5        0.0000 
      6 CA         28.6700  -31.4860  -27.4680 C.3       4 GLP5        0.0000 
      7 CA         30.4015  -36.6670  -28.9935 C.3       2 GLC5        0.0000 
      8 CA         32.3570  -36.6300  -28.6490 C.3       6 GLL5        0.0000 
      9 CA         28.4460  -36.7040  -29.3380 C.3       4 GLP5        0.0000 
     10 CA         31.3975  -38.5830  -29.0120 C.3       2 GLC5        0.0000 
     11 CA         30.4380  -40.5360  -29.3750 C.3       4 GLP5        0.0000 
     12 CA         37.4680  -37.9885  -32.4785 C.3       2 GLC5        0.0000 
     13 CA         35.3190  -38.2160  -32.4130 C.3       6 GLL5        0.0000 
     14 CA         39.6170  -37.7610  -32.5440 C.3       4 GLP5        0.0000 
     15 CA         32.7998  -31.7525  -25.2825 C.3       2 GLC5        0.0000 
     16 CA         33.7030  -33.7660  -26.3210 C.3       6 GLL5        0.0000 
     17 CA         32.6520  -29.8970  -24.3060 C.3       4 GLP5        0.0000 
     18 CA         33.0703  -39.0787  -32.9545 C.3       2 GLC5        0.0000 
     19 CA         34.0040  -38.0210  -31.6890 C.3       6 GLL5        0.0000 
     20 CA         31.4790  -40.0390  -33.8580 C.3       4 GLP5        0.0000 
@<TRIPOS>BOND
@<TRIPOS>SUBSTRUCTURE
     1 ZIC7        1 GROUP        1 X    ZIC  0     ROOT ZIC X 5
     2 GLC5        4 GROUP        1 X    GLC  0     **** GLC X 6
     3 ZIP7        3 GROUP        1 Y    ZIP  0     ROOT ZIP Y 12
     4 GLP5        6 GROUP        1 Y    GLP  0     **** GLP Y 13
     5 ZIL7        2 GROUP        1 Z    ZIL  0     ROOT ZIL Z 19
     6 GLL5        5 GROUP        1 Z    GLL  0     **** GLL Z 20
@<TRIPOS>SET

