#    Name: 3k14_535_2_ligand
#    Modification time : Mon Mar 24 17:57:38 2014

@<TRIPOS>MOLECULE
3k14_535_2_ligand
   24    25     1     0     0
SMALL
NO_CHARGES


@<TRIPOS>ATOM
      1 N1         31.5580  -34.4400  -27.0930 N.2       1 535164      0.0000 
      2 C2         32.4980  -35.2680  -27.6040 C.2       1 535164      0.0000 
      3 N3         33.7040  -34.9250  -27.1970 N.pl3     1 535164      0.0000 
      4 C4         33.7030  -33.7660  -26.3210 C.2       1 535164      0.0000 
      5 C5         32.1920  -33.4500  -26.1970 C.2       1 535164      0.0000 
      6 C6         34.6930  -35.7260  -27.6790 C.2       1 535164      0.0000 
      7 C7         34.0860  -36.7910  -28.5580 C.2       1 535164      0.0000 
      8 S8         32.3570  -36.6300  -28.6490 S.3       1 535164      0.0000 
      9 C9         36.1630  -35.5610  -27.3760 C.3       1 535164      0.0000 
     10 C10        34.7630  -37.8940  -29.3040 C.2       1 535164      0.0000 
     11 O11        34.0730  -38.5910  -30.3800 O.3       1 535164      0.0000 
     12 C12        34.0040  -38.0210  -31.6890 C.3       1 535164      0.0000 
     13 C13        35.3190  -38.2160  -32.4130 C.3       1 535164      0.0000 
     14 O14        35.9050  -38.2300  -29.0290 O.2       1 535164      0.0000 
     15 H          34.3420  -33.3254  -25.9394 H         1 535164      0.0000 
     16 H          31.8418  -32.8274  -25.7043 H         1 535164      0.0000 
     17 H          33.7940  -36.9430  -31.6478 H         1 535164      0.0000 
     18 H          33.2113  -38.4883  -32.2900 H         1 535164      0.0000 
     19 H          36.7164  -36.2593  -27.8300 H         1 535164      0.0000 
     20 H          36.5070  -34.6720  -27.6783 H         1 535164      0.0000 
     21 H          36.3502  -35.6299  -26.3961 H         1 535164      0.0000 
     22 H          36.0781  -37.7821  -31.9277 H         1 535164      0.0000 
     23 H          35.5490  -39.1842  -32.5110 H         1 535164      0.0000 
     24 H          35.2978  -37.8252  -33.3332 H         1 535164      0.0000 
@<TRIPOS>BOND
     1    2    1 2    
     2    5    1 1    
     3    3    2 1    
     4    8    2 1    
     5    4    3 1    
     6    6    3 1    
     7    5    4 2    
     8   15    4 1    
     9   16    5 1    
    10    7    6 2    
    11    9    6 1    
    12    8    7 1    
    13   10    7 1    
    14   19    9 1    
    15   20    9 1    
    16   21    9 1    
    17   11   10 1    
    18   14   10 2    
    19   12   11 1    
    20   13   12 1    
    21   17   12 1    
    22   18   12 1    
    23   22   13 1    
    24   23   13 1    
    25   24   13 1    
@<TRIPOS>SUBSTRUCTURE
     1 535164      1 GROUP   
@<TRIPOS>SET

