#    Name: 3kyb_FAD_1_INTS_M
#    Modification time : Mon Mar 24 20:41:31 2014

@<TRIPOS>MOLECULE
3kyb_FAD_1_INTS_M
  107     0     9     0     0
SMALL
NO_CHARGES


@<TRIPOS>ATOM
      1 N          58.7215   31.4290    6.3550 N.am      2 SEC2        0.0000 
      2 N          60.0910   30.9080    6.1310 N.am      8 SEL2        0.0000 
      3 N          57.3520   31.9500    6.5790 N.am      5 SEP2        0.0000 
      4 N          60.3845   27.9805    7.0690 N.am      2 SEC2        0.0000 
      5 N          60.7240   28.5120    5.8130 N.am      8 SEL2        0.0000 
      6 N          60.0450   27.4490    8.3250 N.am      5 SEP2        0.0000 
      7 CA         64.0220   32.2720    4.1095 C.3       3 GLC5        0.0000 
      8 CA         63.1680   31.4500    5.9970 C.3       9 GLL5        0.0000 
      9 CA         64.8760   33.0940    2.2220 C.3       6 GLP5        0.0000 
     10 CA         66.0825   31.4315    6.5465 C.3       3 GLC5        0.0000 
     11 CA         64.2980   31.4500    7.0810 C.3       9 GLL5        0.0000 
     12 CA         67.8670   31.4130    6.0120 C.3       6 GLP5        0.0000 
     13 CA         63.1305   29.3055    8.5105 C.3       3 GLC5        0.0000 
     14 CA         63.7970   31.1810    8.5000 C.3       9 GLL5        0.0000 
     15 CA         62.4640   27.4300    8.5210 C.3       6 GLP5        0.0000 
     16 N          64.8285   28.8870    9.9070 N.am      2 SEC2        0.0000 
     17 N          64.3040   30.0590    9.2010 N.am      8 SEL2        0.0000 
     18 N          65.3530   27.7150   10.6130 N.am      5 SEP2        0.0000 
     19 O          65.6045   30.3890   10.1330 O.2       1 ALC1        0.0000 
     20 O          64.3040   30.0590    9.2010 O.2       7 ALL1        0.0000 
     21 O          66.9050   30.7190   11.0650 O.2       4 ALP1        0.0000 
     22 O          65.6470   30.0170    9.1050 O.2       1 ALC1        0.0000 
     23 O          66.9900   29.9750    9.0090 O.2       4 ALP1        0.0000 
     24 O          65.6985   31.4640   10.8270 O.2       1 ALC1        0.0000 
     25 O          64.4920   32.2090   10.5890 O.2       7 ALL1        0.0000 
     26 CA         66.5910   32.1935    7.2495 C.3       3 GLC5        0.0000 
     27 CA         65.3150   32.9740    8.4870 C.3       9 GLL5        0.0000 
     28 CA         65.2215   36.5725    7.1120 C.3       3 GLC5        0.0000 
     29 CA         66.4040   36.4100    8.9580 C.3       9 GLL5        0.0000 
     30 CA         64.0390   36.7350    5.2660 C.3       6 GLP5        0.0000 
     31 CA         69.2785   38.1825    8.6400 C.3       3 GLC5        0.0000 
     32 CA         67.4350   37.3140    9.3130 C.3       9 GLL5        0.0000 
     33 CA         71.1220   39.0510    7.9670 C.3       6 GLP5        0.0000 
     34 N          69.9835   37.5105    9.9480 N.am      2 SEC2        0.0000 
     35 N          68.6650   36.7890    9.6500 N.am      8 SEL2        0.0000 
     36 N          71.3020   38.2320   10.2460 N.am      5 SEP2        0.0000 
     37 CA         69.0170   35.7560    7.8855 C.3       3 GLC5        0.0000 
     38 CA         68.8970   35.4470    9.7010 C.3       9 GLL5        0.0000 
     39 CA         69.1370   36.0650    6.0700 C.3       6 GLP5        0.0000 
     40 CA         71.0190   35.5560    9.0225 C.3       3 GLC5        0.0000 
     41 CA         73.1410   35.6650    8.3440 C.3       6 GLP5        0.0000 
     42 CA         69.3195   33.5115    9.9820 C.3       3 GLC5        0.0000 
     43 CA         69.7420   31.5760   10.2630 C.3       6 GLP5        0.0000 
     44 CA         68.3195   35.1820   11.4935 C.3       3 GLC5        0.0000 
     45 CA         67.7420   34.9170   13.2860 C.3       6 GLP5        0.0000 
     46 CA         69.9250   36.4385   11.1100 C.3       3 GLC5        0.0000 
     47 CA         70.9530   37.4300   12.5190 C.3       6 GLP5        0.0000 
     48 N          68.3190   33.8345   10.6320 N.am      2 SEC2        0.0000 
     49 N          67.8670   34.5750    9.3660 N.am      8 SEL2        0.0000 
     50 N          68.7710   33.0940   11.8980 N.am      5 SEP2        0.0000 
     51 N          54.6235   24.1665    0.8830 N.am      2 SEC2        0.0000 
     52 N          53.5840   24.1680    2.1560 N.am      8 SEL2        0.0000 
     53 N          55.6630   24.1650   -0.3900 N.am      5 SEP2        0.0000 
     54 N          54.7295   23.3310    0.1370 N.am      2 SEC2        0.0000 
     55 N          53.7960   22.4970    0.6640 N.am      8 SEL2        0.0000 
     56 O          52.2205   20.7920    1.9995 O.2       1 ALC1        0.0000 
     57 O          52.3160   22.1930    2.3140 O.2       7 ALL1        0.0000 
     58 O          52.1250   19.3910    1.6850 O.2       4 ALP1        0.0000 
     59 N          51.4340   20.6110    4.2140 N.am      2 SEC2        0.0000 
     60 N          50.8520   21.9130    3.9610 N.am      8 SEL2        0.0000 
     61 N          52.0160   19.3090    4.4670 N.am      5 SEP2        0.0000 
     62 CA         49.5575   28.6560    9.6505 C.3       3 GLC5        0.0000 
     63 CA         50.6160   27.9420    8.3220 C.3       9 GLL5        0.0000 
     64 CA         48.4990   29.3700   10.9790 C.3       6 GLP5        0.0000 
     65 CA         51.6405   29.2445    9.2870 C.3       3 GLC5        0.0000 
     66 CA         52.6650   30.5470   10.2520 C.3       6 GLP5        0.0000 
     67 CA         49.1945   28.7895    7.4755 C.3       3 GLC5        0.0000 
     68 CA         47.7730   29.6370    6.6290 C.3       6 GLP5        0.0000 
     69 CA         52.6315   30.1110    8.5935 C.3       3 GLC5        0.0000 
     70 CA         52.5980   29.6750    6.9350 C.3       9 GLL5        0.0000 
     71 CA         52.5265   27.3600    2.3905 C.3       3 GLC5        0.0000 
     72 CA         54.3560   26.6210    2.9090 C.3       9 GLL5        0.0000 
     73 CA         50.6970   28.0990    1.8720 C.3       6 GLP5        0.0000 
     74 CA         54.1370   26.1680    0.9195 C.3       3 GLC5        0.0000 
     75 CA         53.9180   25.7150   -1.0700 C.3       6 GLP5        0.0000 
     76 CA         56.2800   24.5260    2.7895 C.3       3 GLC5        0.0000 
     77 CA         55.7730   26.3620    3.5160 C.3       9 GLL5        0.0000 
     78 CA         56.7870   22.6900    2.0630 C.3       6 GLP5        0.0000 
     79 N          55.5295   25.6310    5.7185 N.am      2 SEC2        0.0000 
     80 N          55.9220   26.6680    4.8950 N.am      8 SEL2        0.0000 
     81 N          55.1370   24.5940    6.5420 N.am      5 SEP2        0.0000 
     82 N          57.5665   27.1435    0.1780 N.am      2 SEC2        0.0000 
     83 N          56.7140   26.6010    1.4210 N.am      8 SEL2        0.0000 
     84 N          58.4190   27.6860   -1.0650 N.am      5 SEP2        0.0000 
     85 O          55.8100   27.2590    0.8395 O.2       1 ALC1        0.0000 
     86 O          56.7140   26.6010    1.4210 O.2       7 ALL1        0.0000 
     87 O          54.9060   27.9170    0.2580 O.2       4 ALP1        0.0000 
     88 CA         59.9185   27.7820    0.7790 C.3       3 GLC5        0.0000 
     89 CA         59.0220   28.1900    2.4830 C.3       9 GLL5        0.0000 
     90 CA         60.8150   27.3740   -0.9250 C.3       6 GLP5        0.0000 
     91 N          63.4850   28.1210    2.0480 N.am      2 SEC2        0.0000 
     92 N          62.6970   28.7500    3.0640 N.am      8 SEL2        0.0000 
     93 N          64.2730   27.4920    1.0320 N.am      5 SEP2        0.0000 
     94 N          62.1480   30.0495    0.4665 N.am      2 SEC2        0.0000 
     95 N          61.3170   30.1470    1.4820 N.am      8 SEL2        0.0000 
     96 N          62.9790   29.9520   -0.5490 N.am      5 SEP2        0.0000 
     97 CA         67.9609   36.0082    7.5654 C.3       3 GLC5        0.0000 
     98 CA         66.5159   35.3762   10.9279 C.3       3 GLC5        0.0000 
     99 CA         66.6500   35.0410    8.9860 C.3       9 GLL5        0.0000 
    100 CA         66.2470   34.8010   12.7950 C.3       6 GLP5        0.0000 
    101 CA         53.7177   24.7353    5.5312 C.3       3 GLC5        0.0000 
    102 CA         52.6880   26.4570    4.8310 C.3       9 GLL5        0.0000 
    103 CA         55.2270   23.4020    5.8880 C.3       6 GLP5        0.0000 
    104 CA         55.1457   24.9467    4.5503 C.3       3 GLC5        0.0000 
    105 CA         57.6931   29.3673    3.3351 C.3       3 GLC5        0.0000 
    106 CA         56.7990   27.1670    2.7040 C.3       9 GLL5        0.0000 
    107 CA         57.1150   31.0790    3.9570 C.3       6 GLP5        0.0000 
@<TRIPOS>BOND
@<TRIPOS>SUBSTRUCTURE
     1 ALC1       19 GROUP        1 X    ALC  0     ROOT ALC X 1
     2 SEC2        1 GROUP        1 X    SEC  0     **** SEC X 2
     3 GLC5        7 GROUP        1 X    GLC  0     **** GLC X 6
     4 ALP1       21 GROUP        1 Y    ALP  0     ROOT ALP Y 8
     5 SEP2        3 GROUP        1 Y    SEP  0     **** SEP Y 9
     6 GLP5        9 GROUP        1 Y    GLP  0     **** GLP Y 13
     7 ALL1       20 GROUP        1 Z    ALL  0     ROOT ALL Z 15
     8 SEL2        2 GROUP        1 Z    SEL  0     **** SEL Z 16
     9 GLL5        8 GROUP        1 Z    GLL  0     **** GLL Z 20
@<TRIPOS>SET

