#    Name: 3kyb_FAD_1_ligand
#    Modification time : Mon Mar 24 20:41:31 2014

@<TRIPOS>MOLECULE
3kyb_FAD_1_ligand
   84    89     1     0     0
SMALL
NO_CHARGES


@<TRIPOS>ATOM
      1 PA         60.9900   29.9550    5.4830 P.3       1 FAD391      0.0000 
      2 O1A        60.0910   30.9080    6.1310 O.co2     1 FAD391      0.0000 
      3 O2A        60.7240   28.5120    5.8130 O.co2     1 FAD391      0.0000 
      4 O5B        62.4510   30.2340    6.0940 O.3       1 FAD391      0.0000 
      5 C5B        63.1680   31.4500    5.9970 C.3       1 FAD391      0.0000 
      6 C4B        64.2980   31.4500    7.0810 C.3       1 FAD391      0.0000 
      7 O4B        64.9330   32.7530    7.1420 O.3       1 FAD391      0.0000 
      8 C3B        63.7970   31.1810    8.5000 C.3       1 FAD391      0.0000 
      9 O3B        64.3040   30.0590    9.2010 O.3       1 FAD391      0.0000 
     10 C2B        64.1640   32.4320    9.2620 C.3       1 FAD391      0.0000 
     11 O2B        64.4920   32.2090   10.5890 O.3       1 FAD391      0.0000 
     12 C1B        65.3150   32.9740    8.4870 C.3       1 FAD391      0.0000 
     13 N9A        65.4890   34.4130    8.6380 N.pl3     1 FAD391      0.0000 
     14 C8A        64.5680   35.3660    8.3650 C.2       1 FAD391      0.0000 
     15 N7A        65.1340   36.5700    8.5650 N.2       1 FAD391      0.0000 
     16 C5A        66.4040   36.4100    8.9580 C.ar      1 FAD391      0.0000 
     17 C6A        67.4350   37.3140    9.3130 C.ar      1 FAD391      0.0000 
     18 N6A        67.2840   38.6360    9.1990 N.pl3     1 FAD391      0.0000 
     19 N1A        68.6650   36.7890    9.6500 N.ar      1 FAD391      0.0000 
     20 C2A        68.8970   35.4470    9.7010 C.ar      1 FAD391      0.0000 
     21 N3A        67.8670   34.5750    9.3660 N.ar      1 FAD391      0.0000 
     22 C4A        66.6500   35.0410    8.9860 C.ar      1 FAD391      0.0000 
     23 N1         53.5840   24.1680    2.1560 N.2       1 FAD391      0.0000 
     24 C2         53.2560   22.9390    1.6820 C.2       1 FAD391      0.0000 
     25 O2         53.7960   22.4970    0.6640 O.2       1 FAD391      0.0000 
     26 N3         52.3160   22.1930    2.3140 N.am      1 FAD391      0.0000 
     27 C4         51.7000   22.6380    3.4370 C.2       1 FAD391      0.0000 
     28 O4         50.8520   21.9130    3.9610 O.2       1 FAD391      0.0000 
     29 C4X        52.0060   23.9020    3.9180 C.2       1 FAD391      0.0000 
     30 N5         51.3820   24.4160    5.0580 N.2       1 FAD391      0.0000 
     31 C5X        51.7290   25.6800    5.5180 C.ar      1 FAD391      0.0000 
     32 C6         51.0630   26.1780    6.6380 C.ar      1 FAD391      0.0000 
     33 C7         51.3570   27.4680    7.0920 C.ar      1 FAD391      0.0000 
     34 C7M        50.6160   27.9420    8.3220 C.3       1 FAD391      0.0000 
     35 C8         52.3080   28.2690    6.4310 C.ar      1 FAD391      0.0000 
     36 C8M        52.5980   29.6750    6.9350 C.3       1 FAD391      0.0000 
     37 C9         52.9970   27.7600    5.2950 C.ar      1 FAD391      0.0000 
     38 C9A        52.6880   26.4570    4.8310 C.ar      1 FAD391      0.0000 
     39 N10        53.3070   25.8930    3.7180 N.pl3     1 FAD391      0.0000 
     40 C10        52.9640   24.6420    3.2730 C.2       1 FAD391      0.0000 
     41 C1'        54.3560   26.6210    2.9090 C.3       1 FAD391      0.0000 
     42 C2'        55.7730   26.3620    3.5160 C.3       1 FAD391      0.0000 
     43 O2'        55.9220   26.6680    4.8950 O.3       1 FAD391      0.0000 
     44 C3'        56.7990   27.1670    2.7040 C.3       1 FAD391      0.0000 
     45 O3'        56.7140   26.6010    1.4210 O.3       1 FAD391      0.0000 
     46 C4'        58.2420   27.0750    3.1830 C.3       1 FAD391      0.0000 
     47 O4'        58.3460   27.3300    4.5860 O.3       1 FAD391      0.0000 
     48 C5'        59.0220   28.1900    2.4830 C.3       1 FAD391      0.0000 
     49 O5'        60.3850   28.1070    2.8570 O.3       1 FAD391      0.0000 
     50 P          61.3910   29.3740    2.7400 P.3       1 FAD391      0.0000 
     51 O1P        62.6970   28.7500    3.0640 O.co2     1 FAD391      0.0000 
     52 O2P        61.3170   30.1470    1.4820 O.co2     1 FAD391      0.0000 
     53 O3P        60.9420   30.3610    3.9340 O.3       1 FAD391      0.0000 
     54 H          62.5468   32.3236    6.1916 H         1 FAD391      0.0000 
     55 H          63.6588   31.5755    5.0324 H         1 FAD391      0.0000 
     56 H          65.0228   30.6996    6.8252 H         1 FAD391      0.0000 
     57 H          62.6988   31.1800    8.4598 H         1 FAD391      0.0000 
     58 H          63.3390   33.1315    9.1329 H         1 FAD391      0.0000 
     59 H          66.1933   32.4396    8.7194 H         1 FAD391      0.0000 
     60 H          63.6614   35.2049    8.0765 H         1 FAD391      0.0000 
     61 H          68.0810   39.1919    9.4353 H         1 FAD391      0.0000 
     62 H          66.3875   38.9513    8.8876 H         1 FAD391      0.0000 
     63 H          69.8102   35.0743    9.9798 H         1 FAD391      0.0000 
     64 H          52.0604   21.2525    1.9260 H         1 FAD391      0.0000 
     65 H          50.3677   25.6081    7.1226 H         1 FAD391      0.0000 
     66 H          53.6962   28.3214    4.8274 H         1 FAD391      0.0000 
     67 H          54.1700   27.6880    2.9258 H         1 FAD391      0.0000 
     68 H          54.3554   26.2652    1.8859 H         1 FAD391      0.0000 
     69 H          56.0067   25.3010    3.3174 H         1 FAD391      0.0000 
     70 H          56.4820   28.1911    2.6838 H         1 FAD391      0.0000 
     71 H          58.6581   26.1490    2.8997 H         1 FAD391      0.0000 
     72 H          58.5702   29.1433    2.7759 H         1 FAD391      0.0000 
     73 H          58.8809   28.0650    1.4045 H         1 FAD391      0.0000 
     74 H          50.7933   27.3547    9.1117 H         1 FAD391      0.0000 
     75 H          50.8824   28.8703    8.5814 H         1 FAD391      0.0000 
     76 H          49.6263   27.9502    8.1792 H         1 FAD391      0.0000 
     77 H          52.9381   29.6697    7.8754 H         1 FAD391      0.0000 
     78 H          53.2882   30.1348    6.3763 H         1 FAD391      0.0000 
     79 H          51.7800   30.2501    6.9224 H         1 FAD391      0.0000 
     80 H          65.2963   30.1104    9.0883 H         1 FAD391      0.0000 
     81 H          65.3430   31.6846   10.5605 H         1 FAD391      0.0000 
     82 H          56.5811   27.4195    4.9235 H         1 FAD391      0.0000 
     83 H          55.7676   26.7502    1.1346 H         1 FAD391      0.0000 
     84 H          59.2408   27.7602    4.7051 H         1 FAD391      0.0000 
@<TRIPOS>BOND
     1    2    1 ar   
     2    3    1 ar   
     3    4    1 1    
     4   53    1 1    
     5    5    4 1    
     6    6    5 1    
     7   54    5 1    
     8   55    5 1    
     9    7    6 1    
    10    8    6 1    
    11   56    6 1    
    12   12    7 1    
    13    9    8 1    
    14   10    8 1    
    15   57    8 1    
    16   80    9 1    
    17   11   10 1    
    18   12   10 1    
    19   58   10 1    
    20   81   11 1    
    21   13   12 1    
    22   59   12 1    
    23   14   13 1    
    24   22   13 1    
    25   15   14 2    
    26   60   14 1    
    27   16   15 1    
    28   17   16 ar   
    29   22   16 ar   
    30   18   17 1    
    31   19   17 ar   
    32   61   18 1    
    33   62   18 1    
    34   20   19 ar   
    35   21   20 ar   
    36   63   20 1    
    37   22   21 ar   
    38   24   23 1    
    39   40   23 2    
    40   25   24 2    
    41   26   24 am   
    42   27   26 am   
    43   64   26 1    
    44   28   27 2    
    45   29   27 1    
    46   30   29 2    
    47   40   29 1    
    48   31   30 1    
    49   32   31 ar   
    50   38   31 ar   
    51   33   32 ar   
    52   65   32 1    
    53   34   33 1    
    54   35   33 ar   
    55   74   34 1    
    56   75   34 1    
    57   76   34 1    
    58   36   35 1    
    59   37   35 ar   
    60   77   36 1    
    61   78   36 1    
    62   79   36 1    
    63   38   37 ar   
    64   66   37 1    
    65   39   38 1    
    66   40   39 1    
    67   41   39 1    
    68   42   41 1    
    69   67   41 1    
    70   68   41 1    
    71   43   42 1    
    72   44   42 1    
    73   69   42 1    
    74   82   43 1    
    75   45   44 1    
    76   46   44 1    
    77   70   44 1    
    78   83   45 1    
    79   47   46 1    
    80   48   46 1    
    81   71   46 1    
    82   84   47 1    
    83   49   48 1    
    84   72   48 1    
    85   73   48 1    
    86   50   49 1    
    87   51   50 ar   
    88   52   50 ar   
    89   53   50 1    
@<TRIPOS>SUBSTRUCTURE
     1 FAD391      1 GROUP   
@<TRIPOS>SET

