#    Name: 2QL6_3_CAVITY_N1_6.mol2
#    Modification time : Tue Mar 11 08:21:36 2014

@<TRIPOS>MOLECULE
2QL6_3_CAVITY_N1_6.mol2
  152     0     7     0     0
SMALL
NO_CHARGES


@<TRIPOS>ATOM
      1 DU         17.3407  -21.1608   50.4356 H         7 CUB7        0.0000 
      2 DU         16.3761  -20.2597   51.1479 H         7 CUB7        0.0000 
      3 N          15.4114  -19.3585   51.8602 N.2       2 ALA2        0.0000 
      4 N          14.4468  -18.4574   52.5725 N.2       2 ALA2        0.0000 
      5 N          13.4821  -17.5562   53.2848 N.2       2 ALA2        0.0000 
      6 CA         12.5175  -16.6550   53.9971 C.3       6 GLY6        0.0000 
      7 NZ          9.6236  -13.9516   56.1341 N.2       4 LYS4        0.0000 
      8 NZ          8.6589  -13.0504   56.8464 N.2       4 LYS4        0.0000 
      9 N          15.4141  -20.3851   50.0039 N.2       2 ALA2        0.0000 
     10 OD1         7.6969  -13.1759   55.7023 O.3       3 ASP3        0.0000 
     11 N          21.4821  -18.3993   52.5504 N.2       2 ALA2        0.0000 
     12 O          17.6236  -14.7947   55.3997 O.2       2 ALA2        0.0000 
     13 N          21.4848  -19.4259   50.6941 N.2       2 ALA2        0.0000 
     14 DU         20.5201  -18.5248   51.4064 H         7 CUB7        0.0000 
     15 N          19.5555  -17.6236   52.1187 N.2       2 ALA2        0.0000 
     16 N          18.5908  -16.7225   52.8310 N.2       2 ALA2        0.0000 
     17 N          17.6262  -15.8213   53.5433 N.2       2 ALA2        0.0000 
     18 N          16.6616  -14.9202   54.2556 N.2       2 ALA2        0.0000 
     19 CZ         15.6969  -14.0190   54.9679 C.ar      5 PHE5        0.0000 
     20 N          20.5228  -19.5514   49.5501 N.2       2 ALA2        0.0000 
     21 DU         19.5581  -18.6502   50.2624 H         7 CUB7        0.0000 
     22 DU         18.5935  -17.7491   50.9747 H         7 CUB7        0.0000 
     23 DU         17.6288  -16.8479   51.6870 H         7 CUB7        0.0000 
     24 DU         16.6642  -15.9468   52.3993 H         7 CUB7        0.0000 
     25 CZ         15.6996  -15.0456   53.1116 C.ar      5 PHE5        0.0000 
     26 CZ         14.7349  -14.1445   53.8239 C.ar      5 PHE5        0.0000 
     27 CZ         13.7703  -13.2433   54.5362 C.ar      5 PHE5        0.0000 
     28 CZ         12.8056  -12.3422   55.2485 C.ar      5 PHE5        0.0000 
     29 OG         11.8410  -11.4410   55.9608 O.2       1 SER1        0.0000 
     30 DU         18.5961  -18.7757   49.1183 H         7 CUB7        0.0000 
     31 CA         17.6315  -17.8746   49.8306 C.3       6 GLY6        0.0000 
     32 CA         16.6669  -16.9734   50.5429 C.3       6 GLY6        0.0000 
     33 CZ         15.7022  -16.0723   51.2553 C.ar      5 PHE5        0.0000 
     34 CZ         12.8083  -13.3688   53.3922 C.ar      5 PHE5        0.0000 
     35 NZ         11.8436  -12.4676   54.1045 N.2       4 LYS4        0.0000 
     36 OG         10.8790  -11.5665   54.8168 O.2       1 SER1        0.0000 
     37 OG          9.9144  -10.6653   55.5291 O.2       1 SER1        0.0000 
     38 N          16.6695  -18.0000   48.6866 N.2       2 ALA2        0.0000 
     39 NZ         10.8816  -12.5931   52.9605 N.2       4 LYS4        0.0000 
     40 CZ          9.9170  -11.6920   53.6728 C.ar      5 PHE5        0.0000 
     41 CZ          8.9524  -10.7908   54.3851 C.ar      5 PHE5        0.0000 
     42 CA         18.8790  -12.4096   54.0824 C.3       6 GLY6        0.0000 
     43 N          17.9144  -11.5084   54.7947 N.2       2 ALA2        0.0000 
     44 O          16.9497  -10.6073   55.5070 O.2       2 ALA2        0.0000 
     45 CZ         17.9170  -12.5351   52.9384 C.ar      5 PHE5        0.0000 
     46 CZ         16.9524  -11.6339   53.6507 C.ar      5 PHE5        0.0000 
     47 O          15.9877  -10.7327   54.3630 O.2       2 ALA2        0.0000 
     48 CA         15.0257  -10.8582   53.2190 C.3       6 GLY6        0.0000 
     49 NZ         14.0611   -9.9571   53.9313 N.2       4 LYS4        0.0000 
     50 NZ         13.0991  -10.0825   52.7872 N.2       4 LYS4        0.0000 
     51 CA         20.7595   -7.8053   53.9629 C.3       6 GLY6        0.0000 
     52 NZ         22.1098  -17.2068   51.8918 N.2       4 LYS4        0.0000 
     53 N          18.2513  -13.6021   54.7410 N.2       2 ALA2        0.0000 
     54 CA         17.2866  -12.7010   55.4534 C.3       6 GLY6        0.0000 
     55 CA         22.1125  -18.2334   50.0355 C.3       6 GLY6        0.0000 
     56 NZ         21.1478  -17.3322   50.7478 N.2       4 LYS4        0.0000 
     57 N          20.1832  -16.4311   51.4601 N.2       2 ALA2        0.0000 
     58 N          18.2539  -14.6288   52.8847 N.2       2 ALA2        0.0000 
     59 N          17.2893  -13.7276   53.5970 N.2       2 ALA2        0.0000 
     60 CZ         16.3246  -12.8264   54.3093 C.ar      5 PHE5        0.0000 
     61 CZ         15.3600  -11.9253   55.0216 C.ar      5 PHE5        0.0000 
     62 O          14.3954  -11.0241   55.7339 O.2       2 ALA2        0.0000 
     63 O          21.1505  -18.3589   48.8914 O.2       2 ALA2        0.0000 
     64 O          20.1859  -17.4577   49.6037 O.2       2 ALA2        0.0000 
     65 OG         19.2212  -16.5565   50.3160 O.2       1 SER1        0.0000 
     66 CZ         18.2566  -15.6554   51.0284 C.ar      5 PHE5        0.0000 
     67 CZ         17.2919  -14.7542   51.7407 C.ar      5 PHE5        0.0000 
     68 CZ         16.3273  -13.8531   52.4530 C.ar      5 PHE5        0.0000 
     69 CZ         15.3626  -12.9519   53.1653 C.ar      5 PHE5        0.0000 
     70 CZ         14.3980  -12.0508   53.8776 C.ar      5 PHE5        0.0000 
     71 O          13.4334  -11.1496   54.5899 O.2       2 ALA2        0.0000 
     72 O          12.4687  -10.2485   55.3022 O.2       2 ALA2        0.0000 
     73 CA         19.2239  -17.5832   48.4597 C.3       6 GLY6        0.0000 
     74 N          18.2592  -16.6820   49.1720 N.2       2 ALA2        0.0000 
     75 CA         17.2946  -15.7809   49.8843 C.3       6 GLY6        0.0000 
     76 CZ         16.3299  -14.8797   50.5966 C.ar      5 PHE5        0.0000 
     77 CZ         12.4714  -11.2751   53.4459 C.ar      5 PHE5        0.0000 
     78 NZ         11.5067  -10.3739   54.1582 N.2       4 LYS4        0.0000 
     79 CA         10.5421   -9.4728   54.8705 C.3       6 GLY6        0.0000 
     80 CZ         10.5447  -10.4994   53.0141 C.ar      5 PHE5        0.0000 
     81 N          20.1318   -8.9979   54.6215 N.2       2 ALA2        0.0000 
     82 CZ         18.5421  -10.3159   54.1361 C.ar      5 PHE5        0.0000 
     83 CZ         17.5774   -9.4147   54.8484 C.ar      5 PHE5        0.0000 
     84 CA         16.6154   -9.5402   53.7044 C.3       6 GLY6        0.0000 
     85 N          18.9251  -17.7895   54.6337 N.2       2 ALA2        0.0000 
     86 N          17.9605  -16.8884   55.3460 N.2       2 ALA2        0.0000 
     87 NZ         16.9958  -15.9872   56.0583 N.2       4 LYS4        0.0000 
     88 CZ         16.0312  -15.0861   56.7706 C.ar      5 PHE5        0.0000 
     89 N          19.8924  -19.7173   52.0650 N.2       2 ALA2        0.0000 
     90 N          18.9278  -18.8162   52.7773 N.2       2 ALA2        0.0000 
     91 N          17.9631  -17.9150   53.4896 N.2       2 ALA2        0.0000 
     92 N          16.9985  -17.0139   54.2020 N.2       2 ALA2        0.0000 
     93 NZ         16.0338  -16.1127   54.9143 N.2       4 LYS4        0.0000 
     94 CZ         15.0692  -15.2115   55.6266 C.ar      5 PHE5        0.0000 
     95 CZ         14.1046  -14.3104   56.3389 C.ar      5 PHE5        0.0000 
     96 DU         18.9304  -19.8428   50.9210 H         7 CUB7        0.0000 
     97 DU         17.9658  -18.9416   51.6333 H         7 CUB7        0.0000 
     98 DU         17.0011  -18.0405   52.3456 H         7 CUB7        0.0000 
     99 DU         16.0365  -17.1393   53.0579 H         7 CUB7        0.0000 
    100 DU         15.0718  -16.2382   53.7702 H         7 CUB7        0.0000 
    101 DU         14.1072  -15.3370   54.4825 H         7 CUB7        0.0000 
    102 O          13.1426  -14.4359   55.1948 O.2       2 ALA2        0.0000 
    103 O          12.1779  -13.5347   55.9072 O.2       2 ALA2        0.0000 
    104 OG         11.2133  -12.6336   56.6195 O.2       1 SER1        0.0000 
    105 DU         17.9684  -19.9683   49.7770 H         7 CUB7        0.0000 
    106 DU         17.0038  -19.0671   50.4893 H         7 CUB7        0.0000 
    107 CA         16.0391  -18.1660   51.2016 C.3       6 GLY6        0.0000 
    108 N          15.0745  -17.2648   51.9139 N.2       2 ALA2        0.0000 
    109 CZ         14.1098  -16.3636   52.6262 C.ar      5 PHE5        0.0000 
    110 CZ         13.1452  -15.4625   53.3385 C.ar      5 PHE5        0.0000 
    111 NZ         12.1806  -14.5613   54.0508 N.2       4 LYS4        0.0000 
    112 NZ         11.2159  -13.6602   54.7631 N.2       4 LYS4        0.0000 
    113 NZ         10.2513  -12.7590   55.4754 N.2       4 LYS4        0.0000 
    114 OG          9.2866  -11.8579   56.1877 O.2       1 SER1        0.0000 
    115 N          17.0064  -20.0937   48.6329 N.2       2 ALA2        0.0000 
    116 N          16.0418  -19.1926   49.3452 N.2       2 ALA2        0.0000 
    117 N          15.0771  -18.2914   50.0575 N.2       2 ALA2        0.0000 
    118 NZ          9.2893  -12.8845   54.3314 N.2       4 LYS4        0.0000 
    119 CA          8.3246  -11.9833   55.0437 C.3       6 GLY6        0.0000 
    120 N          15.0798  -19.3181   48.2012 N.2       2 ALA2        0.0000 
    121 O          11.2594  -18.0135   57.1707 O.2       2 ALA2        0.0000 
    122 NZ         10.2974  -18.1390   56.0267 N.2       4 LYS4        0.0000 
    123 NZ          9.3328  -17.2378   56.7390 N.2       4 LYS4        0.0000 
    124 OG          8.3681  -16.3367   57.4513 O.2       1 SER1        0.0000 
    125 NZ         13.8138  -17.5966   56.9438 N.2       4 LYS4        0.0000 
    126 N          16.7103  -21.3267   52.9506 N.2       2 ALA2        0.0000 
    127 N          15.7457  -20.4256   53.6629 N.2       2 ALA2        0.0000 
    128 NZ         14.7810  -19.5244   54.3752 N.2       4 LYS4        0.0000 
    129 NZ         13.8164  -18.6233   55.0875 N.2       4 LYS4        0.0000 
    130 O          12.8518  -17.7221   55.7998 O.2       2 ALA2        0.0000 
    131 DU         15.7483  -21.4522   51.8065 H         7 CUB7        0.0000 
    132 N          14.7837  -20.5511   52.5188 N.2       2 ALA2        0.0000 
    133 N          13.8191  -19.6499   53.2311 N.2       2 ALA2        0.0000 
    134 CA         12.8544  -18.7487   53.9434 C.3       6 GLY6        0.0000 
    135 CA         11.8898  -17.8476   54.6558 C.3       6 GLY6        0.0000 
    136 CA         10.9251  -16.9464   55.3681 C.3       6 GLY6        0.0000 
    137 NZ          9.9605  -16.0453   56.0804 N.2       4 LYS4        0.0000 
    138 O           8.9958  -15.1441   56.7927 O.2       2 ALA2        0.0000 
    139 N          13.8217  -20.6765   51.3748 N.2       2 ALA2        0.0000 
    140 NZ         15.4035  -16.2786   57.4292 N.2       4 LYS4        0.0000 
    141 N          19.2647  -20.9099   52.7237 N.2       2 ALA2        0.0000 
    142 N          18.3000  -20.0087   53.4360 N.2       2 ALA2        0.0000 
    143 CA         17.3354  -19.1076   54.1483 C.3       6 GLY6        0.0000 
    144 NZ         15.4061  -17.3053   55.5729 N.2       4 LYS4        0.0000 
    145 NZ         14.4415  -16.4041   56.2852 N.2       4 LYS4        0.0000 
    146 N          18.3027  -21.0353   51.5796 N.2       2 ALA2        0.0000 
    147 DU         17.3380  -20.1342   52.2919 H         7 CUB7        0.0000 
    148 DU         16.3734  -19.2330   53.0042 H         7 CUB7        0.0000 
    149 NZ         15.4088  -18.3319   53.7165 N.2       4 LYS4        0.0000 
    150 NZ         14.4441  -17.4307   54.4289 N.2       4 LYS4        0.0000 
    151 O          13.4795  -16.5296   55.1412 O.2       2 ALA2        0.0000 
    152 O          12.5148  -15.6284   55.8535 O.2       2 ALA2        0.0000 
@<TRIPOS>BOND
@<TRIPOS>SUBSTRUCTURE
     1 SER1       29 GROUP   
     2 ALA2        3 GROUP   
     3 ASP3       10 GROUP   
     4 LYS4        7 GROUP   
     5 PHE5       19 GROUP   
     6 GLY6        6 GROUP   
     7 CUB7        1 GROUP   
@<TRIPOS>SET

