#    Name: 2ql6_TIZ_3_INTS_M
#    Modification time : Mon Mar 24 22:25:33 2014

@<TRIPOS>MOLECULE
2ql6_TIZ_3_INTS_M
   37     0     9     0     0
SMALL
NO_CHARGES


@<TRIPOS>ATOM
      1 N          14.8500   -8.8135   55.7875 N.am      2 SEC2        0.0000 
      2 N          14.5230   -8.9260   54.3480 N.am      8 SEL2        0.0000 
      3 N          15.1770   -8.7010   57.2270 N.am      5 SEP2        0.0000 
      4 O          13.8945   -8.0880   53.5620 O.2       1 ALC1        0.0000 
      5 O          14.5230   -8.9260   54.3480 O.2       7 ALL1        0.0000 
      6 O          13.2660   -7.2500   52.7760 O.2       4 ALP1        0.0000 
      7 CA         14.8385   -9.5970   52.2920 C.3       3 GLC5        0.0000 
      8 CA         13.7680  -10.0180   53.8160 C.3       9 GLL5        0.0000 
      9 CA         15.9090   -9.1760   50.7680 C.3       6 GLP5        0.0000 
     10 CA         10.7830   -9.4260   52.4740 C.3       3 GLC5        0.0000 
     11 CA         12.2580   -9.8120   53.9580 C.3       9 GLL5        0.0000 
     12 CA          9.3080   -9.0400   50.9900 C.3       6 GLP5        0.0000 
     13 N          12.4550   -8.7225   56.1560 N.am      2 SEC2        0.0000 
     14 N          11.9940   -8.6770   54.7890 N.am      8 SEL2        0.0000 
     15 N          12.9160   -8.7680   57.5230 N.am      5 SEP2        0.0000 
     16 O          12.6300   -7.9635   53.7825 O.2       1 ALC1        0.0000 
     17 O          11.9940   -8.6770   54.7890 O.2       7 ALL1        0.0000 
     18 O          11.7450   -7.4785   54.1955 O.2       1 ALC1        0.0000 
     19 O          11.4960   -6.2800   53.6020 O.2       4 ALP1        0.0000 
     20 CA          9.2870  -11.5350   52.7895 C.3       3 GLC5        0.0000 
     21 CA         10.4460  -11.5600   54.0950 C.3       9 GLL5        0.0000 
     22 CA          8.1280  -11.5100   51.4840 C.3       6 GLP5        0.0000 
     23 O           9.9995  -13.8810   53.8975 O.2       1 ALC1        0.0000 
     24 O          10.0750  -12.7770   54.7490 O.2       7 ALL1        0.0000 
     25 O           9.9240  -14.9850   53.0460 O.2       4 ALP1        0.0000 
     26 CA         14.7545  -12.0240   56.2960 C.3       3 GLC5        0.0000 
     27 CA         14.0040  -11.3070   54.6020 C.3       9 GLL5        0.0000 
     28 CA         15.5050  -12.7410   57.9900 C.3       6 GLP5        0.0000 
     29 CA         17.4490  -12.0985   56.4990 C.3       3 GLC5        0.0000 
     30 CA         16.8860  -11.5110   54.6440 C.3       9 GLL5        0.0000 
     31 CA         18.0120  -12.6860   58.3540 C.3       6 GLP5        0.0000 
     32 CA         19.6630  -12.9345   53.5245 C.3       3 GLC5        0.0000 
     33 CA         17.6300  -12.8290   53.8540 C.3       9 GLL5        0.0000 
     34 CA         21.6960  -13.0400   53.1950 C.3       6 GLP5        0.0000 
     35 CA         11.7357  -12.1725   52.5145 C.3       3 GLC5        0.0000 
     36 CA         11.7970  -11.1000   54.6470 C.3       9 GLL5        0.0000 
     37 CA         12.3500  -13.0150   50.6580 C.3       6 GLP5        0.0000 
@<TRIPOS>BOND
@<TRIPOS>SUBSTRUCTURE
     1 ALC1        4 GROUP        1 X    ALC  0     ROOT ALC X 1
     2 SEC2        1 GROUP        1 X    SEC  0     **** SEC X 2
     3 GLC5        7 GROUP        1 X    GLC  0     **** GLC X 6
     4 ALP1        6 GROUP        1 Y    ALP  0     ROOT ALP Y 8
     5 SEP2        3 GROUP        1 Y    SEP  0     **** SEP Y 9
     6 GLP5        9 GROUP        1 Y    GLP  0     **** GLP Y 13
     7 ALL1        5 GROUP        1 Z    ALL  0     ROOT ALL Z 15
     8 SEL2        2 GROUP        1 Z    SEL  0     **** SEL Z 16
     9 GLL5        8 GROUP        1 Z    GLL  0     **** GLL Z 20
@<TRIPOS>SET

