#    Name: 2ql6_TIZ_3_ligand
#    Modification time : Mon Mar 24 22:25:33 2014

@<TRIPOS>MOLECULE
2ql6_TIZ_3_ligand
   29    30     1     0     0
SMALL
NO_CHARGES


@<TRIPOS>ATOM
      1 O2'        14.5230   -8.9260   54.3480 O.3       1 TIZ302      0.0000 
      2 C2'        13.7680  -10.0180   53.8160 C.3       1 TIZ302      0.0000 
      3 C3'        12.2580   -9.8120   53.9580 C.3       1 TIZ302      0.0000 
      4 O3'        11.9940   -8.6770   54.7890 O.3       1 TIZ302      0.0000 
      5 C4'        11.7970  -11.1000   54.6470 C.3       1 TIZ302      0.0000 
      6 C5'        10.4460  -11.5600   54.0950 C.3       1 TIZ302      0.0000 
      7 O5'        10.0750  -12.7770   54.7490 O.3       1 TIZ302      0.0000 
      8 O4'        12.8160  -12.0520   54.2980 O.3       1 TIZ302      0.0000 
      9 C1'        14.0040  -11.3070   54.6020 C.3       1 TIZ302      0.0000 
     10 C1M        15.3050  -12.0120   54.2110 C.2       1 TIZ302      0.0000 
     11 N1H        15.3970  -13.1330   53.4960 N.2       1 TIZ302      0.0000 
     12 S1J        16.8860  -11.5110   54.6440 S.3       1 TIZ302      0.0000 
     13 C1F        17.6300  -12.8290   53.8540 C.2       1 TIZ302      0.0000 
     14 C1L        16.6520  -13.5620   53.3150 C.2       1 TIZ302      0.0000 
     15 C1K        16.9460  -14.8600   52.5560 C.2       1 TIZ302      0.0000 
     16 O1B        16.0340  -15.5750   52.1460 O.2       1 TIZ302      0.0000 
     17 N1A        18.2350  -15.1520   52.3950 N.am      1 TIZ302      0.0000 
     18 H          13.9726  -10.2239   52.7893 H         1 TIZ302      0.0000 
     19 H          11.8311   -9.7641   53.0045 H         1 TIZ302      0.0000 
     20 H          11.7458  -10.9390   55.6807 H         1 TIZ302      0.0000 
     21 H          10.5531  -11.6938   53.0174 H         1 TIZ302      0.0000 
     22 H           9.7222  -10.7640   54.2764 H         1 TIZ302      0.0000 
     23 H          14.0210  -11.0418   55.6447 H         1 TIZ302      0.0000 
     24 H          18.5330  -12.8416   53.9106 H         1 TIZ302      0.0000 
     25 H          18.4363  -15.9930   51.8928 H         1 TIZ302      0.0000 
     26 H          18.8857  -14.5040   52.7908 H         1 TIZ302      0.0000 
     27 H          14.1576   -8.1134   53.8940 H         1 TIZ302      0.0000 
     28 H          12.2853   -7.8875   54.2488 H         1 TIZ302      0.0000 
     29 H          10.1010  -13.4741   54.0325 H         1 TIZ302      0.0000 
@<TRIPOS>BOND
     1    2    1 1    
     2   27    1 1    
     3    3    2 1    
     4    9    2 1    
     5   18    2 1    
     6    4    3 1    
     7    5    3 1    
     8   19    3 1    
     9   28    4 1    
    10    6    5 1    
    11    8    5 1    
    12   20    5 1    
    13    7    6 1    
    14   21    6 1    
    15   22    6 1    
    16   29    7 1    
    17    9    8 1    
    18   10    9 1    
    19   23    9 1    
    20   11   10 2    
    21   12   10 1    
    22   14   11 1    
    23   13   12 1    
    24   14   13 2    
    25   24   13 1    
    26   15   14 1    
    27   16   15 2    
    28   17   15 am   
    29   25   17 1    
    30   26   17 1    
@<TRIPOS>SUBSTRUCTURE
     1 TIZ302      1 GROUP   
@<TRIPOS>SET

