#    Name: 3zmg_6Z0_1_INTS_M
#    Modification time : Tue Mar 25 03:41:50 2014

@<TRIPOS>MOLECULE
3zmg_6Z0_1_INTS_M
   57     0     6     0     0
SMALL
NO_CHARGES


@<TRIPOS>ATOM
      1 CA        -20.5105   39.9200    4.2495 C.3       2 GLC5        0.0000 
      2 CA        -20.8190   42.1320    4.0770 C.3       6 GLL5        0.0000 
      3 CA        -20.2020   37.7080    4.4220 C.3       4 GLP5        0.0000 
      4 CA        -17.9730   41.6075    2.8105 C.3       2 GLC5        0.0000 
      5 CA        -19.5260   42.4900    2.2200 C.3       6 GLL5        0.0000 
      6 CA        -16.4200   40.7250    3.4010 C.3       4 GLP5        0.0000 
      7 CA        -17.8745   43.4915    3.1010 C.3       2 GLC5        0.0000 
      8 CA        -16.2230   44.4930    3.9820 C.3       4 GLP5        0.0000 
      9 O         -18.5050   41.5075    5.5230 O.2       1 ALC1        0.0000 
     10 O         -19.8300   40.8870    5.8690 O.2       5 ALL1        0.0000 
     11 O         -17.1800   42.1280    5.1770 O.2       3 ALP1        0.0000 
     12 CA        -20.1535   43.2305   -1.6630 C.3       2 GLC5        0.0000 
     13 CA        -20.2130   44.0230    0.4280 C.3       6 GLL5        0.0000 
     14 CA        -20.0940   42.4380   -3.7540 C.3       4 GLP5        0.0000 
     15 CA        -18.7995   44.8130   -0.7885 C.3       2 GLC5        0.0000 
     16 CA        -17.3860   45.6030   -2.0050 C.3       4 GLP5        0.0000 
     17 CA        -18.5415   38.0735   12.1830 C.3       2 GLC5        0.0000 
     18 CA        -18.7580   38.5860   10.7390 C.3       6 GLL5        0.0000 
     19 CA        -18.3250   37.5610   13.6270 C.3       4 GLP5        0.0000 
     20 CA        -19.8110   37.3125   10.8610 C.3       2 GLC5        0.0000 
     21 CA        -20.8640   36.0390   10.9830 C.3       4 GLP5        0.0000 
     22 CA        -14.6850   36.8915    9.0135 C.3       2 GLC5        0.0000 
     23 CA        -16.3260   37.9570    9.7040 C.3       6 GLL5        0.0000 
     24 CA        -13.0440   35.8260    8.3230 C.3       4 GLP5        0.0000 
     25 CA        -16.1445   37.8060   11.4875 C.3       2 GLC5        0.0000 
     26 CA        -15.9630   37.6550   13.2710 C.3       4 GLP5        0.0000 
     27 CA        -15.7455   40.6130    5.5090 C.3       2 GLC5        0.0000 
     28 CA        -15.0710   40.5010    7.6170 C.3       6 GLL5        0.0000 
     29 O         -15.5285   38.3505    7.1675 O.2       1 ALC1        0.0000 
     30 O         -15.7170   39.4190    7.9390 O.2       5 ALL1        0.0000 
     31 O         -15.3400   37.2820    6.3960 O.2       3 ALP1        0.0000 
     32 O         -14.3525   39.4435    5.5930 O.2       1 ALC1        0.0000 
     33 O         -14.2580   40.5230    6.5210 O.2       5 ALL1        0.0000 
     34 O         -14.4470   38.3640    4.6650 O.2       3 ALP1        0.0000 
     35 O         -14.7990   38.9025    6.4585 O.2       1 ALC1        0.0000 
     36 O         -13.4490   41.5780    5.9515 O.2       1 ALC1        0.0000 
     37 O         -12.6400   42.6330    5.3820 O.2       3 ALP1        0.0000 
     38 CA        -23.6160   42.9848    2.4585 C.3       2 GLC5        0.0000 
     39 CA        -21.7590   43.0680    3.6480 C.3       6 GLL5        0.0000 
     40 CA        -25.5580   42.5870    1.8750 C.3       4 GLP5        0.0000 
     41 CA        -21.8402   41.9356    1.9123 C.3       2 GLC5        0.0000 
     42 CA        -21.5890   43.6970    2.4360 C.3       6 GLL5        0.0000 
     43 CA        -22.4340   41.1140    0.2650 C.3       4 GLP5        0.0000 
     44 CA        -19.2212   45.3670    1.4945 C.3       2 GLC5        0.0000 
     45 CA        -20.4280   43.4170    1.7080 C.3       6 GLL5        0.0000 
     46 CA        -18.1220   47.0140    1.9210 C.3       4 GLP5        0.0000 
     47 CA        -21.2645   42.3011    0.7305 C.3       2 GLC5        0.0000 
     48 CA        -18.1710   37.8355    7.6885 C.3       2 GLC5        0.0000 
     49 CA        -18.3180   40.0960    7.5270 C.3       6 GLL5        0.0000 
     50 CA        -18.1780   35.8600    7.2560 C.3       4 GLP5        0.0000 
     51 CA        -19.7176   38.8916    5.9744 C.3       2 GLC5        0.0000 
     52 CA        -18.7054   37.3789    8.6535 C.3       2 GLC5        0.0000 
     53 CA        -20.3610   39.2870    9.1700 C.3       6 GLL5        0.0000 
     54 CA        -17.3153   37.2580    8.3353 C.3       2 GLC5        0.0000 
     55 CA        -16.0870   39.6831   12.3245 C.3       2 GLC5        0.0000 
     56 CA        -17.0180   40.6140   11.1340 C.3       6 GLL5        0.0000 
     57 CA        -15.9250   38.8790   13.9130 C.3       4 GLP5        0.0000 
@<TRIPOS>BOND
@<TRIPOS>SUBSTRUCTURE
     1 ALC1        9 GROUP        1 X    ALC  0     ROOT ALC X 1
     2 GLC5        1 GROUP        1 X    GLC  0     **** GLC X 6
     3 ALP1       11 GROUP        1 Y    ALP  0     ROOT ALP Y 8
     4 GLP5        3 GROUP        1 Y    GLP  0     **** GLP Y 13
     5 ALL1       10 GROUP        1 Z    ALL  0     ROOT ALL Z 15
     6 GLL5        2 GROUP        1 Z    GLL  0     **** GLL Z 20
@<TRIPOS>SET

