#    Name: 3zmg_6Z0_1_ligand
#    Modification time : Tue Mar 25 03:41:50 2014

@<TRIPOS>MOLECULE
3zmg_6Z0_1_ligand
   43    45     1     0     0
SMALL
NO_CHARGES


@<TRIPOS>ATOM
      1 C2        -21.5890   43.6970    2.4360 C.ar      1 6Z01448     0.0000 
      2 C3        -21.7590   43.0680    3.6480 C.ar      1 6Z01448     0.0000 
      3 C4        -20.8190   42.1320    4.0770 C.ar      1 6Z01448     0.0000 
      4 N5        -19.7380   41.8690    3.3570 N.ar      1 6Z01448     0.0000 
      5 C6        -19.5260   42.4900    2.2200 C.ar      1 6Z01448     0.0000 
      6 N9        -19.8300   40.8870    5.8690 N.am      1 6Z01448     0.0000 
      7 C15       -19.0540   39.1320    9.5560 C.ar      1 6Z01448     0.0000 
      8 C1        -20.4280   43.4170    1.7080 C.ar      1 6Z01448     0.0000 
      9 C7        -20.9470   41.4840    5.3860 C.2       1 6Z01448     0.0000 
     10 O8        -22.0160   41.5370    5.9750 O.2       1 6Z01448     0.0000 
     11 C10       -20.2130   44.0230    0.4280 C.1       1 6Z01448     0.0000 
     12 N11       -20.0060   44.4920   -0.5990 N.1       1 6Z01448     0.0000 
     13 C12       -19.6310   40.2560    7.1000 C.ar      1 6Z01448     0.0000 
     14 C13       -20.6660   39.8530    7.9530 C.ar      1 6Z01448     0.0000 
     15 C14       -20.3610   39.2870    9.1700 C.ar      1 6Z01448     0.0000 
     16 C16       -18.0100   39.5260    8.7150 C.ar      1 6Z01448     0.0000 
     17 C17       -18.3180   40.0960    7.5270 C.ar      1 6Z01448     0.0000 
     18 F18       -18.7580   38.5860   10.7390 F         1 6Z01448     0.0000 
     19 C20       -16.3260   37.9570    9.7040 C.3       1 6Z01448     0.0000 
     20 O22       -15.0900   41.6650    8.2420 O.3       1 6Z01448     0.0000 
     21 C23       -15.0710   40.5010    7.6170 C.2       1 6Z01448     0.0000 
     22 N28       -15.7170   39.4190    7.9390 N.pl3     1 6Z01448     0.0000 
     23 C25       -16.1120   40.4920   10.0690 C.3       1 6Z01448     0.0000 
     24 C60       -16.0340   41.8090    9.3270 C.3       1 6Z01448     0.0000 
     25 F26       -14.8480   40.2290   10.6070 F         1 6Z01448     0.0000 
     26 F27       -17.0180   40.6140   11.1340 F         1 6Z01448     0.0000 
     27 C5        -16.5790   39.3550    9.1250 C.3       1 6Z01448     0.0000 
     28 N24       -14.2580   40.5230    6.5210 N.pl3     1 6Z01448     0.0000 
     29 H         -22.2794   44.3466    2.0719 H         1 6Z01448     0.0000 
     30 H         -22.5717   43.2813    4.2397 H         1 6Z01448     0.0000 
     31 H         -18.6561   42.3040    1.6526 H         1 6Z01448     0.0000 
     32 H         -18.9506   40.8919    5.2128 H         1 6Z01448     0.0000 
     33 H         -21.6413   39.9834    7.6628 H         1 6Z01448     0.0000 
     34 H         -21.1257   38.9765    9.7975 H         1 6Z01448     0.0000 
     35 H         -17.5503   40.4339    6.8951 H         1 6Z01448     0.0000 
     36 H         -15.6681   38.5334    7.3842 H         1 6Z01448     0.0000 
     37 H         -17.0282   42.0566    8.9561 H         1 6Z01448     0.0000 
     38 H         -15.7176   42.5822   10.0266 H         1 6Z01448     0.0000 
     39 H         -13.8174   41.3973    6.3174 H         1 6Z01448     0.0000 
     40 H         -14.1743   39.6629    6.0179 H         1 6Z01448     0.0000 
     41 H         -15.3729   37.8371    9.9820 H         1 6Z01448     0.0000 
     42 H         -16.8908   37.7811   10.5102 H         1 6Z01448     0.0000 
     43 H         -16.5305   37.2375    9.0403 H         1 6Z01448     0.0000 
@<TRIPOS>BOND
     1    2    1 ar   
     2    8    1 ar   
     3   29    1 1    
     4    3    2 ar   
     5   30    2 1    
     6    4    3 ar   
     7    9    3 1    
     8    5    4 ar   
     9    8    5 ar   
    10   31    5 1    
    11    9    6 am   
    12   13    6 1    
    13   32    6 1    
    14   15    7 ar   
    15   16    7 ar   
    16   18    7 1    
    17   11    8 1    
    18   10    9 2    
    19   12   11 3    
    20   14   13 ar   
    21   17   13 ar   
    22   15   14 ar   
    23   33   14 1    
    24   34   15 1    
    25   17   16 ar   
    26   27   16 1    
    27   35   17 1    
    28   27   19 1    
    29   41   19 1    
    30   42   19 1    
    31   43   19 1    
    32   21   20 1    
    33   24   20 1    
    34   22   21 2    
    35   28   21 1    
    36   27   22 1    
    37   36   22 1    
    38   24   23 1    
    39   25   23 1    
    40   26   23 1    
    41   27   23 1    
    42   37   24 1    
    43   38   24 1    
    44   39   28 1    
    45   40   28 1    
@<TRIPOS>SUBSTRUCTURE
     1 6Z01448     1 GROUP   
@<TRIPOS>SET

