#    Name: 1vhn_FMN_1_INTS_M
#    Modification time : Tue Mar 25 07:54:25 2014

@<TRIPOS>MOLECULE
1vhn_FMN_1_INTS_M
   80     0    12     0     0
SMALL
NO_CHARGES


@<TRIPOS>ATOM
      1 N          -0.3075   20.3535    8.0815 N.am      2 SEC2        0.0000 
      2 N          -0.2130   18.8240    7.9170 N.am     10 SEL2        0.0000 
      3 N          -0.4020   21.8830    8.2460 N.am      6 SEP2        0.0000 
      4 N           0.0685   20.0840    4.5525 N.am      2 SEC2        0.0000 
      5 N           0.2240   19.8480    5.9770 N.am     10 SEL2        0.0000 
      6 N          -0.0870   20.3200    3.1280 N.am      6 SEP2        0.0000 
      7 O          -0.1380   17.8420    4.4965 O.2       1 ALC1        0.0000 
      8 O          -0.2700   17.6280    5.8600 O.2       9 ALL1        0.0000 
      9 O          -0.0060   18.0560    3.1330 O.2       5 ALP1        0.0000 
     10 N          -1.7705   14.3745    6.5940 N.am      2 SEC2        0.0000 
     11 N          -0.7670   15.4080    5.7090 N.am     10 SEL2        0.0000 
     12 N          -2.7740   13.3410    7.4790 N.am      6 SEP2        0.0000 
     13 N          -1.1030   14.8285    4.1885 N.am      2 SEC2        0.0000 
     14 N          -1.4390   14.2490    2.6680 N.am      6 SEP2        0.0000 
     15 N          -1.8005   14.2970    7.9870 N.am      2 SEC2        0.0000 
     16 N          -0.8270   15.2530    8.4950 N.am     10 SEL2        0.0000 
     17 CA         -2.0315   13.0695    8.7480 C.3       4 GLC5        0.0000 
     18 CA         -1.5220   14.1550   10.5310 C.3      12 GLL5        0.0000 
     19 CA         -2.5410   11.9840    6.9650 C.3       8 GLP5        0.0000 
     20 CA         -3.7490   11.7760   12.6335 C.3       4 GLC5        0.0000 
     21 CA         -2.4140   12.9530   12.5880 C.3      12 GLL5        0.0000 
     22 CA         -5.0840   10.5990   12.6790 C.3       8 GLP5        0.0000 
     23 CA         -4.1960   15.8840   13.0095 C.3       4 GLC5        0.0000 
     24 CA         -2.3850   15.4740   14.0100 C.3      12 GLL5        0.0000 
     25 CA         -6.0070   16.2940   12.0090 C.3       8 GLP5        0.0000 
     26 CA         -3.3930   16.3665   15.2070 C.3       4 GLC5        0.0000 
     27 CA         -4.4010   17.2590   16.4040 C.3       8 GLP5        0.0000 
     28 CA         -3.5285   18.0185   10.5675 C.3       4 GLC5        0.0000 
     29 CA         -2.1030   19.6420   10.7340 C.3      12 GLL5        0.0000 
     30 CA         -4.9540   16.3950   10.4010 C.3       8 GLP5        0.0000 
     31 O          -3.0640   18.8840    8.6850 O.2       1 ALC1        0.0000 
     32 O          -2.6070   19.9970    9.4360 O.2       9 ALL1        0.0000 
     33 O          -3.5210   17.7710    7.9340 O.2       5 ALP1        0.0000 
     34 N          -0.8860   21.9435    9.6070 N.am      2 SEC2        0.0000 
     35 N          -1.3700   22.0040   10.9680 N.am     10 SEL2        0.0000 
     36 O          -2.1360   23.2820   11.3310 O.2       1 ALC1        0.0000 
     37 O          -1.3700   22.0040   10.9680 O.2       9 ALL1        0.0000 
     38 O          -2.9020   24.5600   11.6940 O.2       5 ALP1        0.0000 
     39 CA         -0.1225   23.0295   13.4950 C.3       4 GLC5        0.0000 
     40 CA         -1.6260   21.8630   13.8960 C.3      12 GLL5        0.0000 
     41 CA          1.3810   24.1960   13.0940 C.3       8 GLP5        0.0000 
     42 CA         -1.8805   23.6110   14.8010 C.3       4 GLC5        0.0000 
     43 CA         -2.1350   25.3590   15.7060 C.3       8 GLP5        0.0000 
     44 NZ         -2.2205   21.2250   17.7015 N.4       3 LYC4        0.0000 
     45 NZ         -2.6480   22.0210   16.6530 N.4      11 LYL4        0.0000 
     46 NZ         -2.0780   19.1580   18.6350 N.4       7 LYP4        0.0000 
     47 N          -2.8880   23.2480   17.1945 N.am      2 SEC2        0.0000 
     48 N          -2.6480   22.0210   16.6530 N.am     10 SEL2        0.0000 
     49 N          -3.1280   24.4750   17.7360 N.am      6 SEP2        0.0000 
     50 N          -2.7550   20.3855   17.1450 N.am      2 SEC2        0.0000 
     51 N          -2.8620   18.7500   17.6370 N.am      6 SEP2        0.0000 
     52 N          -2.2205   21.2250   17.7015 N.am      2 SEC2        0.0000 
     53 N          -1.7930   20.4290   18.7500 N.am      6 SEP2        0.0000 
     54 NZ         -3.4480   19.5140   16.5880 N.4       3 LYC4        0.0000 
     55 NZ         -4.0340   20.2780   15.5390 N.4      11 LYL4        0.0000 
     56 N          -5.2630   19.5320   15.1760 N.am      2 SEC2        0.0000 
     57 N          -4.0340   20.2780   15.5390 N.am     10 SEL2        0.0000 
     58 N          -6.4920   18.7860   14.8130 N.am      6 SEP2        0.0000 
     59 N          -3.4480   19.5140   16.5880 N.am      2 SEC2        0.0000 
     60 N          -5.4060   23.7255   16.7145 N.am      2 SEC2        0.0000 
     61 N          -4.8470   22.7140   15.6120 N.am     10 SEL2        0.0000 
     62 N          -5.9650   24.7370   17.8170 N.am      6 SEP2        0.0000 
     63 CA         -2.7388   14.9243    9.2677 C.3       4 GLC5        0.0000 
     64 CA         -1.0770   15.3340    9.8460 C.3      12 GLL5        0.0000 
     65 CA         -4.1780   15.1040    8.3470 C.3       8 GLP5        0.0000 
     66 CA         -3.5777   14.3300   10.9215 C.3       4 GLC5        0.0000 
     67 CA         -1.9310   14.1930   11.8280 C.3      12 GLL5        0.0000 
     68 CA         -4.9830   15.0870    9.6350 C.3       8 GLP5        0.0000 
     69 CA         -3.1861   16.3413   10.9104 C.3       4 GLC5        0.0000 
     70 CA         -1.9740   15.4380   12.5380 C.3      12 GLL5        0.0000 
     71 CA         -3.8718   20.6623   10.0762 C.3       4 GLC5        0.0000 
     72 CA         -5.6460   21.0510    8.9810 C.3       8 GLP5        0.0000 
     73 CA         -1.7838   21.4873    9.3848 C.3       4 GLC5        0.0000 
     74 CA         -1.4700   22.7010    7.5980 C.3       8 GLP5        0.0000 
     75 CA         -3.7843   20.1472   11.8308 C.3       4 GLC5        0.0000 
     76 CA         -5.4710   20.0210   12.4900 C.3       8 GLP5        0.0000 
     77 CA         -0.5032   20.1523   14.5518 C.3       4 GLC5        0.0000 
     78 CA         -1.4490   20.6900   12.9530 C.3      12 GLL5        0.0000 
     79 CA          0.5310   19.0280   15.6790 C.3       8 GLP5        0.0000 
     80 CA         -3.5042   20.6487   12.9573 C.3       4 GLC5        0.0000 
@<TRIPOS>BOND
@<TRIPOS>SUBSTRUCTURE
     1 ALC1        7 GROUP        1 X    ALC  0     ROOT ALC X 1
     2 SEC2        1 GROUP        1 X    SEC  0     **** SEC X 2
     3 LYC4       44 GROUP        1 X    LYC  0     **** LYC X 4
     4 GLC5       17 GROUP        1 X    GLC  0     **** GLC X 6
     5 ALP1        9 GROUP        1 Y    ALP  0     ROOT ALP Y 8
     6 SEP2        3 GROUP        1 Y    SEP  0     **** SEP Y 9
     7 LYP4       46 GROUP        1 Y    LYP  0     **** LYP Y 11
     8 GLP5       19 GROUP        1 Y    GLP  0     **** GLP Y 13
     9 ALL1        8 GROUP        1 Z    ALL  0     ROOT ALL Z 15
    10 SEL2        2 GROUP        1 Z    SEL  0     **** SEL Z 16
    11 LYL4       45 GROUP        1 Z    LYL  0     **** LYL Z 18
    12 GLL5       18 GROUP        1 Z    GLL  0     **** GLL Z 20
@<TRIPOS>SET

