#    Name: 1vhn_FMN_1_ligand
#    Modification time : Tue Mar 25 07:54:25 2014

@<TRIPOS>MOLECULE
1vhn_FMN_1_ligand
   50    52     1     0     0
SMALL
NO_CHARGES


@<TRIPOS>ATOM
      1 N1         -0.2130   18.8240    7.9170 N.2       1 FMN322      0.0000 
      2 C2         -0.0720   18.8480    6.5760 C.2       1 FMN322      0.0000 
      3 O2          0.2240   19.8480    5.9770 O.2       1 FMN322      0.0000 
      4 N3         -0.2700   17.6280    5.8600 N.am      1 FMN322      0.0000 
      5 C4         -0.5730   16.4320    6.4070 C.2       1 FMN322      0.0000 
      6 O4         -0.7670   15.4080    5.7090 O.2       1 FMN322      0.0000 
      7 C4A        -0.6650   16.3820    7.8520 C.2       1 FMN322      0.0000 
      8 N5         -0.8270   15.2530    8.4950 N.2       1 FMN322      0.0000 
      9 C5A        -1.0770   15.3340    9.8460 C.ar      1 FMN322      0.0000 
     10 C6         -1.5220   14.1550   10.5310 C.ar      1 FMN322      0.0000 
     11 C7         -1.9310   14.1930   11.8280 C.ar      1 FMN322      0.0000 
     12 C7M        -2.4140   12.9530   12.5880 C.3       1 FMN322      0.0000 
     13 C8         -1.9740   15.4380   12.5380 C.ar      1 FMN322      0.0000 
     14 C8M        -2.3850   15.4740   14.0100 C.3       1 FMN322      0.0000 
     15 C9         -1.5190   16.5940   11.9450 C.ar      1 FMN322      0.0000 
     16 C9A        -1.0900   16.5590   10.5980 C.ar      1 FMN322      0.0000 
     17 N10        -0.8450   17.7210    9.8670 N.pl3     1 FMN322      0.0000 
     18 C10        -0.5490   17.6800    8.5320 C.2       1 FMN322      0.0000 
     19 C1'        -0.7090   19.0350   10.5450 C.3       1 FMN322      0.0000 
     20 C2'        -2.1030   19.6420   10.7340 C.3       1 FMN322      0.0000 
     21 O2'        -2.6070   19.9970    9.4360 O.3       1 FMN322      0.0000 
     22 C3'        -2.0920   20.9050   11.6090 C.3       1 FMN322      0.0000 
     23 O3'        -1.3700   22.0040   10.9680 O.3       1 FMN322      0.0000 
     24 C4'        -1.4490   20.6900   12.9530 C.3       1 FMN322      0.0000 
     25 O4'        -2.0580   19.5410   13.5540 O.3       1 FMN322      0.0000 
     26 C5'        -1.6260   21.8630   13.8960 C.3       1 FMN322      0.0000 
     27 O5'        -3.0290   22.1600   14.1640 O.3       1 FMN322      0.0000 
     28 P          -3.6660   21.7400   15.5750 P.3       1 FMN322      0.0000 
     29 O1P        -2.6480   22.0210   16.6530 O.co2     1 FMN322      0.0000 
     30 O2P        -4.0340   20.2780   15.5390 O.co2     1 FMN322      0.0000 
     31 O3P        -4.8470   22.7140   15.6120 O.co2     1 FMN322      0.0000 
     32 H          -0.1619   17.7005    4.7975 H         1 FMN322      0.0000 
     33 H          -1.5202   13.2649    9.9958 H         1 FMN322      0.0000 
     34 H          -1.4850   17.4771   12.4586 H         1 FMN322      0.0000 
     35 H          -0.1133   19.7141    9.9439 H         1 FMN322      0.0000 
     36 H          -0.2477   18.9150   11.5197 H         1 FMN322      0.0000 
     37 H          -2.7386   18.9084   11.1959 H         1 FMN322      0.0000 
     38 H          -3.1262   21.2141   11.7774 H         1 FMN322      0.0000 
     39 H          -0.3918   20.5145   12.8129 H         1 FMN322      0.0000 
     40 H          -1.1219   22.7419   13.4537 H         1 FMN322      0.0000 
     41 H          -1.0921   21.6345   14.8367 H         1 FMN322      0.0000 
     42 H          -1.7066   12.2478   12.6358 H         1 FMN322      0.0000 
     43 H          -2.6739   13.1717   13.5286 H         1 FMN322      0.0000 
     44 H          -3.2127   12.5380   12.1522 H         1 FMN322      0.0000 
     45 H          -1.7733   14.9253   14.5799 H         1 FMN322      0.0000 
     46 H          -2.3714   16.4042   14.3767 H         1 FMN322      0.0000 
     47 H          -3.3098   15.1187   14.1462 H         1 FMN322      0.0000 
     48 H          -2.9289   19.1373    9.0395 H         1 FMN322      0.0000 
     49 H          -1.8915   22.8255   11.1986 H         1 FMN322      0.0000 
     50 H          -2.7029   19.9103   14.2231 H         1 FMN322      0.0000 
@<TRIPOS>BOND
     1    2    1 1    
     2   18    1 2    
     3    3    2 2    
     4    4    2 am   
     5    5    4 am   
     6   32    4 1    
     7    6    5 2    
     8    7    5 1    
     9    8    7 2    
    10   18    7 1    
    11    9    8 1    
    12   10    9 ar   
    13   16    9 ar   
    14   11   10 ar   
    15   33   10 1    
    16   12   11 1    
    17   13   11 ar   
    18   42   12 1    
    19   43   12 1    
    20   44   12 1    
    21   14   13 1    
    22   15   13 ar   
    23   45   14 1    
    24   46   14 1    
    25   47   14 1    
    26   16   15 ar   
    27   34   15 1    
    28   17   16 1    
    29   18   17 1    
    30   19   17 1    
    31   20   19 1    
    32   35   19 1    
    33   36   19 1    
    34   21   20 1    
    35   22   20 1    
    36   37   20 1    
    37   48   21 1    
    38   23   22 1    
    39   24   22 1    
    40   38   22 1    
    41   49   23 1    
    42   25   24 1    
    43   26   24 1    
    44   39   24 1    
    45   50   25 1    
    46   27   26 1    
    47   40   26 1    
    48   41   26 1    
    49   28   27 1    
    50   29   28 ar   
    51   30   28 ar   
    52   31   28 ar   
@<TRIPOS>SUBSTRUCTURE
     1 FMN322      1 GROUP   
@<TRIPOS>SET

