#    Name: 4ei7_GDP_1_INTS_M
#    Modification time : Mon Mar 24 17:54:04 2014

@<TRIPOS>MOLECULE
4ei7_GDP_1_INTS_M
   46     0     9     0     0
SMALL
NO_CHARGES


@<TRIPOS>ATOM
      1 N          13.1130   34.8715   53.2640 N.am      2 SEC2        0.0000 
      2 N          13.6240   33.9970   54.2330 N.am      8 SEL2        0.0000 
      3 N          12.6020   35.7460   52.2950 N.am      5 SEP2        0.0000 
      4 N          12.8610   31.1230   52.5700 N.am      2 SEC2        0.0000 
      5 N          13.8800   31.9880   52.8010 N.am      8 SEL2        0.0000 
      6 N          11.8420   30.2580   52.3390 N.am      5 SEP2        0.0000 
      7 N          14.8905   30.5515   55.1605 N.am      2 SEC2        0.0000 
      8 N          14.4020   31.8680   55.1990 N.am      8 SEL2        0.0000 
      9 N          15.3790   29.2350   55.1220 N.am      5 SEP2        0.0000 
     10 N          13.4375   30.7035   55.1780 N.am      2 SEC2        0.0000 
     11 N          12.4730   29.5390   55.1570 N.am      5 SEP2        0.0000 
     12 N          15.1250   35.6980   50.9505 N.am      2 SEC2        0.0000 
     13 N          15.5350   34.5480   51.4630 N.am      8 SEL2        0.0000 
     14 N          14.7150   36.8480   50.4380 N.am      5 SEP2        0.0000 
     15 CA         17.6160   31.3460   52.5445 C.3       3 GLC5        0.0000 
     16 CA         18.1090   32.7470   51.4790 C.3       9 GLL5        0.0000 
     17 CA         17.1230   29.9450   53.6100 C.3       6 GLP5        0.0000 
     18 O          22.3895   32.9600   51.7255 O.2       1 ALC1        0.0000 
     19 O          21.3770   32.5300   51.3840 O.2       7 ALL1        0.0000 
     20 O          23.4020   33.3900   52.0670 O.2       4 ALP1        0.0000 
     21 N          22.1345   34.5755   47.6900 N.am      2 SEC2        0.0000 
     22 N          21.9760   33.9290   49.2270 N.am      8 SEL2        0.0000 
     23 N          22.2930   35.2220   46.1530 N.am      5 SEP2        0.0000 
     24 O          22.6890   33.6595   50.6470 O.2       1 ALC1        0.0000 
     25 O          21.9760   33.9290   49.2270 O.2       7 ALL1        0.0000 
     26 O          23.2185   33.8075   49.6950 O.2       1 ALC1        0.0000 
     27 O          24.4610   33.6860   50.1630 O.2       4 ALP1        0.0000 
     28 CA         18.3120   33.7400   48.2175 C.3       3 GLC5        0.0000 
     29 CA         19.7940   34.8710   49.1460 C.3       9 GLL5        0.0000 
     30 CA         16.8300   32.6090   47.2890 C.3       6 GLP5        0.0000 
     31 N          17.3000   41.5935   47.3470 N.am      2 SEC2        0.0000 
     32 N          17.7680   40.5690   48.3910 N.am      8 SEL2        0.0000 
     33 N          16.8320   42.6180   46.3030 N.am      5 SEP2        0.0000 
     34 O          18.4090   40.3380   45.8420 O.2       1 ALC1        0.0000 
     35 O          18.8490   39.4400   46.7350 O.2       7 ALL1        0.0000 
     36 O          17.9690   41.2360   44.9490 O.2       4 ALP1        0.0000 
     37 O          21.3275   37.4415   44.6930 O.2       1 ALC1        0.0000 
     38 O          19.9700   38.3170   44.9820 O.2       7 ALL1        0.0000 
     39 O          22.6850   36.5660   44.4040 O.2       4 ALP1        0.0000 
     40 N          20.9765   36.2125   46.5970 N.am      2 SEC2        0.0000 
     41 N          19.6600   37.2030   47.0410 N.am      8 SEL2        0.0000 
     42 CA         17.7425   32.7398   49.1270 C.3       3 GLC5        0.0000 
     43 CA         19.2010   32.9940   50.4510 C.3       9 GLL5        0.0000 
     44 CA         17.0990   37.4387   48.8950 C.3       3 GLC5        0.0000 
     45 CA         19.2000   37.1590   48.3480 C.3       9 GLL5        0.0000 
     46 CA         15.3430   37.1260   49.1600 C.3       6 GLP5        0.0000 
@<TRIPOS>BOND
@<TRIPOS>SUBSTRUCTURE
     1 ALC1       18 GROUP        1 X    ALC  0     ROOT ALC X 1
     2 SEC2        1 GROUP        1 X    SEC  0     **** SEC X 2
     3 GLC5       15 GROUP        1 X    GLC  0     **** GLC X 6
     4 ALP1       20 GROUP        1 Y    ALP  0     ROOT ALP Y 8
     5 SEP2        3 GROUP        1 Y    SEP  0     **** SEP Y 9
     6 GLP5       17 GROUP        1 Y    GLP  0     **** GLP Y 13
     7 ALL1       19 GROUP        1 Z    ALL  0     ROOT ALL Z 15
     8 SEL2        2 GROUP        1 Z    SEL  0     **** SEL Z 16
     9 GLL5       16 GROUP        1 Z    GLL  0     **** GLL Z 20
@<TRIPOS>SET

