#    Name: 4ei7_GDP_1_ligand
#    Modification time : Mon Mar 24 17:54:04 2014

@<TRIPOS>MOLECULE
4ei7_GDP_1_ligand
   40    42     1     0     0
SMALL
NO_CHARGES


@<TRIPOS>ATOM
      1 PB         14.4320   32.7390   53.9690 P.3       1 GDP500      0.0000 
      2 O1B        13.6240   33.9970   54.2330 O.co2     1 GDP500      0.0000 
      3 O2B        13.8800   31.9880   52.8010 O.co2     1 GDP500      0.0000 
      4 O3B        14.4020   31.8680   55.1990 O.co2     1 GDP500      0.0000 
      5 O3A        15.9670   33.1810   53.6590 O.3       1 GDP500      0.0000 
      6 PA         16.4300   34.3830   52.6680 P.3       1 GDP500      0.0000 
      7 O1A        15.5350   34.5480   51.4630 O.co2     1 GDP500      0.0000 
      8 O2A        16.5310   35.6740   53.4490 O.co2     1 GDP500      0.0000 
      9 O5'        17.9160   33.9180   52.2340 O.3       1 GDP500      0.0000 
     10 C5'        18.1090   32.7470   51.4790 C.3       1 GDP500      0.0000 
     11 C4'        19.2010   32.9940   50.4510 C.3       1 GDP500      0.0000 
     12 O4'        18.7750   33.9200   49.4490 O.3       1 GDP500      0.0000 
     13 C3'        20.4610   33.5750   51.0660 C.3       1 GDP500      0.0000 
     14 O3'        21.3770   32.5300   51.3840 O.3       1 GDP500      0.0000 
     15 C2'        20.9690   34.5500   50.0220 C.3       1 GDP500      0.0000 
     16 O2'        21.9760   33.9290   49.2270 O.3       1 GDP500      0.0000 
     17 C1'        19.7940   34.8710   49.1460 C.3       1 GDP500      0.0000 
     18 N9         19.2130   36.2290   49.3250 N.pl3     1 GDP500      0.0000 
     19 C8         18.6070   36.7560   50.4180 C.2       1 GDP500      0.0000 
     20 N7         18.1790   38.0270   50.1850 N.2       1 GDP500      0.0000 
     21 C5         18.5100   38.3440   48.9120 C.2       1 GDP500      0.0000 
     22 C6         18.3490   39.5260   48.0000 C.2       1 GDP500      0.0000 
     23 O6         17.7680   40.5690   48.3910 O.2       1 GDP500      0.0000 
     24 N1         18.8490   39.4400   46.7350 N.am      1 GDP500      0.0000 
     25 C2         19.4890   38.3230   46.2590 C.2       1 GDP500      0.0000 
     26 N2         19.9700   38.3170   44.9820 N.pl3     1 GDP500      0.0000 
     27 N3         19.6600   37.2030   47.0410 N.2       1 GDP500      0.0000 
     28 C4         19.2000   37.1590   48.3480 C.2       1 GDP500      0.0000 
     29 H          17.2034   32.4481   50.9372 H         1 GDP500      0.0000 
     30 H          18.4224   31.8991   52.1003 H         1 GDP500      0.0000 
     31 H          19.4685   32.0457   49.9901 H         1 GDP500      0.0000 
     32 H          20.1566   34.1410   51.9315 H         1 GDP500      0.0000 
     33 H          21.3018   35.4300   50.5003 H         1 GDP500      0.0000 
     34 H          20.0932   34.7451   48.1049 H         1 GDP500      0.0000 
     35 H          18.4905   36.2831   51.2701 H         1 GDP500      0.0000 
     36 H          18.7411   40.2686   46.0884 H         1 GDP500      0.0000 
     37 H          20.7912   37.7688   44.8237 H         1 GDP500      0.0000 
     38 H          19.4590   38.8613   44.3167 H         1 GDP500      0.0000 
     39 H          22.2801   32.9050   51.1748 H         1 GDP500      0.0000 
     40 H          22.7854   33.8971   49.8134 H         1 GDP500      0.0000 
@<TRIPOS>BOND
     1    2    1 ar   
     2    3    1 ar   
     3    4    1 ar   
     4    5    1 1    
     5    6    5 1    
     6    7    6 ar   
     7    8    6 ar   
     8    9    6 1    
     9   10    9 1    
    10   11   10 1    
    11   29   10 1    
    12   30   10 1    
    13   12   11 1    
    14   13   11 1    
    15   31   11 1    
    16   17   12 1    
    17   14   13 1    
    18   15   13 1    
    19   32   13 1    
    20   39   14 1    
    21   16   15 1    
    22   17   15 1    
    23   33   15 1    
    24   40   16 1    
    25   18   17 1    
    26   34   17 1    
    27   19   18 1    
    28   28   18 1    
    29   20   19 2    
    30   35   19 1    
    31   21   20 1    
    32   22   21 1    
    33   28   21 2    
    34   23   22 2    
    35   24   22 am   
    36   25   24 1    
    37   36   24 1    
    38   26   25 1    
    39   27   25 2    
    40   37   26 1    
    41   38   26 1    
    42   28   27 1    
@<TRIPOS>SUBSTRUCTURE
     1 GDP500      1 GROUP   
@<TRIPOS>SET

