#    Name: 2ONB_1_CAVITY_N1_6.mol2
#    Modification time : Tue Mar 11 03:13:52 2014

@<TRIPOS>MOLECULE
2ONB_1_CAVITY_N1_6.mol2
   71     0     5     0     0
SMALL
NO_CHARGES


@<TRIPOS>ATOM
      1 CA         49.0176  -17.3286   20.8984 C.3       4 GLY6        0.0000 
      2 NZ         55.8001  -15.6093   23.9874 N.2       3 LYS4        0.0000 
      3 CA         53.7697  -16.1028   23.6215 C.3       4 GLY6        0.0000 
      4 CA         51.7393  -16.5963   23.2556 C.3       4 GLY6        0.0000 
      5 O          50.6331  -15.9982   22.4379 O.2       2 ALA2        0.0000 
      6 DU         49.5269  -15.4000   21.6202 H         5 CUB7        0.0000 
      7 DU         48.4207  -14.8019   20.8025 H         5 CUB7        0.0000 
      8 O          50.8150  -17.6880   23.7073 O.2       2 ALA2        0.0000 
      9 O          49.7089  -17.0898   22.8897 O.2       2 ALA2        0.0000 
     10 CA         48.6027  -16.4917   22.0720 C.3       4 GLY6        0.0000 
     11 NZ         47.4965  -15.8935   21.2543 N.2       3 LYS4        0.0000 
     12 O          55.2032  -13.0826   23.8915 O.2       2 ALA2        0.0000 
     13 NZ         55.3852  -14.7724   25.1610 N.2       3 LYS4        0.0000 
     14 O          54.2790  -14.1742   24.3433 O.2       2 ALA2        0.0000 
     15 O          54.4609  -15.8640   25.6127 O.2       2 ALA2        0.0000 
     16 O          53.3548  -15.2659   24.7951 O.2       2 ALA2        0.0000 
     17 DU         52.2486  -14.6677   23.9774 H         5 CUB7        0.0000 
     18 DU         51.1424  -14.0696   23.1597 H         5 CUB7        0.0000 
     19 DU         50.0362  -13.4714   22.3420 H         5 CUB7        0.0000 
     20 NZ         47.8239  -12.2751   20.7067 N.2       3 LYS4        0.0000 
     21 O          52.4305  -16.3575   25.2468 O.2       2 ALA2        0.0000 
     22 DU         51.3243  -15.7594   24.4292 H         5 CUB7        0.0000 
     23 DU         50.2182  -15.1612   23.6115 H         5 CUB7        0.0000 
     24 DU         49.1120  -14.5630   22.7938 H         5 CUB7        0.0000 
     25 NZ         48.0058  -13.9649   21.9761 N.2       3 LYS4        0.0000 
     26 O          51.5063  -17.4492   25.6986 O.2       2 ALA2        0.0000 
     27 CA         50.4001  -16.8510   24.8809 C.3       4 GLY6        0.0000 
     28 CA         49.2939  -16.2528   24.0632 C.3       4 GLY6        0.0000 
     29 DU         48.1878  -15.6547   23.2456 H         5 CUB7        0.0000 
     30 NZ         47.0816  -15.0565   22.4279 N.2       3 LYS4        0.0000 
     31 O          51.6882  -19.1390   26.9680 O.2       2 ALA2        0.0000 
     32 CA         50.5820  -18.5408   26.1504 C.3       4 GLY6        0.0000 
     33 CA         49.4759  -17.9426   25.3327 C.3       4 GLY6        0.0000 
     34 CA         48.3697  -17.3445   24.5150 C.3       4 GLY6        0.0000 
     35 CA         47.2635  -16.7463   23.6973 C.3       4 GLY6        0.0000 
     36 OG         49.6578  -19.6324   26.6021 O.2       1 SER1        0.0000 
     37 CA         46.3393  -17.8380   24.1491 C.3       4 GLY6        0.0000 
     38 O          52.7579  -12.7391   24.6992 O.2       2 ALA2        0.0000 
     39 O          51.6517  -12.1409   23.8815 O.2       2 ALA2        0.0000 
     40 O          54.0460  -15.0270   26.7863 O.2       2 ALA2        0.0000 
     41 O          52.9398  -14.4289   25.9686 O.2       2 ALA2        0.0000 
     42 O          51.8337  -13.8307   25.1510 O.2       2 ALA2        0.0000 
     43 OG         50.7275  -13.2326   24.3333 O.2       1 SER1        0.0000 
     44 DU         52.0156  -15.5205   26.4204 H         5 CUB7        0.0000 
     45 OG         50.9094  -14.9224   25.6027 O.2       1 SER1        0.0000 
     46 OG         49.8032  -14.3242   24.7851 O.2       1 SER1        0.0000 
     47 CA         48.6971  -13.7261   23.9674 C.3       4 GLY6        0.0000 
     48 NZ         47.5909  -13.1279   23.1497 N.2       3 LYS4        0.0000 
     49 DU         51.0914  -16.6122   26.8722 H         5 CUB7        0.0000 
     50 OG         49.9852  -16.0140   26.0545 O.2       1 SER1        0.0000 
     51 OG         48.8790  -15.4159   25.2368 O.2       1 SER1        0.0000 
     52 CA         47.7728  -14.8177   24.4192 C.3       4 GLY6        0.0000 
     53 NZ         46.6667  -14.2196   23.6015 N.2       3 LYS4        0.0000 
     54 DU         50.1671  -17.7038   27.3239 H         5 CUB7        0.0000 
     55 OG         49.0609  -17.1057   26.5063 O.2       1 SER1        0.0000 
     56 N          47.9548  -16.5075   25.6886 N.2       2 ALA2        0.0000 
     57 N          46.8486  -15.9094   24.8709 N.2       2 ALA2        0.0000 
     58 O          45.7424  -15.3112   24.0533 O.2       2 ALA2        0.0000 
     59 O          52.5249  -13.5919   27.1422 O.2       2 ALA2        0.0000 
     60 O          51.4187  -12.9938   26.3246 O.2       2 ALA2        0.0000 
     61 OG         50.3126  -12.3956   25.5069 O.2       1 SER1        0.0000 
     62 O          52.7069  -15.2817   28.4117 O.2       2 ALA2        0.0000 
     63 O          51.6007  -14.6836   27.5940 O.2       2 ALA2        0.0000 
     64 OG         50.4945  -14.0854   26.7763 O.2       1 SER1        0.0000 
     65 O          51.7826  -16.3734   28.8634 O.2       2 ALA2        0.0000 
     66 DU         50.6764  -15.7752   28.0458 H         5 CUB7        0.0000 
     67 OG         49.5703  -15.1771   27.2281 O.2       1 SER1        0.0000 
     68 DU         49.7522  -16.8669   28.4975 H         5 CUB7        0.0000 
     69 OG         48.6460  -16.2687   27.6799 O.2       1 SER1        0.0000 
     70 OG         47.5399  -15.6705   26.8622 O.2       1 SER1        0.0000 
     71 OG         47.7218  -17.3603   28.1316 O.2       1 SER1        0.0000 
@<TRIPOS>BOND
@<TRIPOS>SUBSTRUCTURE
     1 SER1       36 GROUP   
     2 ALA2        5 GROUP   
     3 LYS4        2 GROUP   
     4 GLY6        1 GROUP   
     5 CUB7        6 GROUP   
@<TRIPOS>SET

