#    Name: 2onb_7PA_1_ligand
#    Modification time : Tue Mar 25 23:00:48 2014

@<TRIPOS>MOLECULE
2onb_7PA_1_ligand
   17    16     1     0     0
SMALL
NO_CHARGES


@<TRIPOS>ATOM
      1 O1         51.4810  -14.0090   24.8910 O.co2     1 7PA319      0.0000 
      2 O2         52.7180  -12.7770   26.7340 O.co2     1 7PA319      0.0000 
      3 C1         50.8790  -17.6940   26.8310 C.3       1 7PA319      0.0000 
      4 C2         51.3140  -16.5480   27.7530 C.3       1 7PA319      0.0000 
      5 P1         50.4480  -19.4620   27.1570 P.3       1 7PA319      0.0000 
      6 C3         52.0970  -15.4400   27.0350 C.3       1 7PA319      0.0000 
      7 P2         51.5920  -13.7620   26.4150 P.3       1 7PA319      0.0000 
      8 O3         51.5400  -19.8480   28.1780 O.co2     1 7PA319      0.0000 
      9 O4         50.6270  -20.2640   25.8670 O.co2     1 7PA319      0.0000 
     10 O5         50.2560  -13.3580   27.0200 O.co2     1 7PA319      0.0000 
     11 O6         49.0530  -19.5720   27.7130 O.co2     1 7PA319      0.0000 
     12 H          51.6463  -17.8367   25.9585 H         1 7PA319      0.0000 
     13 H          49.9501  -17.3802   26.1914 H         1 7PA319      0.0000 
     14 H          51.9374  -16.9576   28.5614 H         1 7PA319      0.0000 
     15 H          50.4208  -16.1072   28.2199 H         1 7PA319      0.0000 
     16 H          52.6177  -15.8526   26.0749 H         1 7PA319      0.0000 
     17 H          53.0505  -15.1439   27.6403 H         1 7PA319      0.0000 
@<TRIPOS>BOND
     1    7    1 ar   
     2    7    2 ar   
     3    4    3 1    
     4    5    3 1    
     5   12    3 1    
     6   13    3 1    
     7    6    4 1    
     8   14    4 1    
     9   15    4 1    
    10    8    5 ar   
    11    9    5 ar   
    12   11    5 ar   
    13    7    6 1    
    14   16    6 1    
    15   17    6 1    
    16   10    7 ar   
@<TRIPOS>SUBSTRUCTURE
     1 7PA319      1 GROUP   
@<TRIPOS>SET

