#    Name: 3q2h_QHF_1_INTS_M
#    Modification time : Tue Mar 25 08:47:23 2014

@<TRIPOS>MOLECULE
3q2h_QHF_1_INTS_M
   72     0     9     0     0
SMALL
NO_CHARGES


@<TRIPOS>ATOM
      1 CA         13.8895  -19.0120    5.2330 C.3       3 GLC5        0.0000 
      2 CA         12.8150  -19.1190    3.9190 C.3       9 GLL5        0.0000 
      3 CA         14.9640  -18.9050    6.5470 C.3       6 GLP5        0.0000 
      4 Zn         10.2740  -15.5895    8.7205 Zn        2 ZIC7        0.0000 
      5 Zn          9.3110  -14.0750    9.6020 Zn        8 ZIL7        0.0000 
      6 Zn         11.2370  -17.1040    7.8390 Zn        5 ZIP7        0.0000 
      7 N           9.7405  -10.2545    9.3080 N.am      1 SEC2        0.0000 
      8 N           9.3610  -11.6400    8.8480 N.am      7 SEL2        0.0000 
      9 N          10.1200   -8.8690    9.7680 N.am      4 SEP2        0.0000 
     10 Zn         10.5875  -16.5130    7.4740 Zn        2 ZIC7        0.0000 
     11 Zn          9.9380  -15.9220    7.1090 Zn        8 ZIL7        0.0000 
     12 CA         10.3955  -10.5245    6.2370 C.3       3 GLC5        0.0000 
     13 CA         10.1940  -12.3920    5.9920 C.3       9 GLL5        0.0000 
     14 CA         10.5970   -8.6570    6.4820 C.3       6 GLP5        0.0000 
     15 CA         11.5840  -11.7125    4.6265 C.3       3 GLC5        0.0000 
     16 CA         12.9740  -11.0330    3.2610 C.3       6 GLP5        0.0000 
     17 Zn         11.8240  -16.2490    7.6795 Zn        2 ZIC7        0.0000 
     18 Zn         12.4110  -15.3940    7.5200 Zn        8 ZIL7        0.0000 
     19 N          13.6560  -14.9500    7.7660 N.am      1 SEC2        0.0000 
     20 N          12.4110  -15.3940    7.5200 N.am      7 SEL2        0.0000 
     21 N          14.9010  -14.5060    8.0120 N.am      4 SEP2        0.0000 
     22 CA          6.6670  -14.8435   13.1585 C.3       3 GLC5        0.0000 
     23 CA          8.2660  -14.9340   11.6710 C.3       9 GLL5        0.0000 
     24 CA          5.0680  -14.7530   14.6460 C.3       6 GLP5        0.0000 
     25 CA         11.2255  -16.1355   12.0165 C.3       3 GLC5        0.0000 
     26 CA          9.6430  -14.9950   12.3100 C.3       9 GLL5        0.0000 
     27 CA         12.8080  -17.2760   11.7230 C.3       6 GLP5        0.0000 
     28 CA          8.1390  -14.2005   15.3470 C.3       3 GLC5        0.0000 
     29 CA          9.4200  -14.9230   13.8120 C.3       9 GLL5        0.0000 
     30 CA          6.8580  -13.4780   16.8820 C.3       6 GLP5        0.0000 
     31 CA         12.5980  -13.8950   14.6530 C.3       3 GLC5        0.0000 
     32 CA         10.6680  -14.6630   14.6410 C.3       9 GLL5        0.0000 
     33 CA         14.5280  -13.1270   14.6650 C.3       6 GLP5        0.0000 
     34 CA         12.2380  -15.7995   13.7160 C.3       3 GLC5        0.0000 
     35 CA         13.8080  -16.9360   12.7910 C.3       6 GLP5        0.0000 
     36 CA          9.6340  -11.2080   15.3210 C.3       3 GLC5        0.0000 
     37 CA         10.4620  -12.0930   16.9110 C.3       9 GLL5        0.0000 
     38 CA          8.8060  -10.3230   13.7310 C.3       6 GLP5        0.0000 
     39 CA         10.9930  -11.0185   18.6875 C.3       3 GLC5        0.0000 
     40 CA         11.5240   -9.9440   20.4640 C.3       6 GLP5        0.0000 
     41 CA         11.9490  -13.4625   17.8195 C.3       3 GLC5        0.0000 
     42 CA         13.4360  -14.8320   18.7280 C.3       6 GLP5        0.0000 
     43 CA          8.6600  -12.7855   16.8965 C.3       3 GLC5        0.0000 
     44 CA          9.0015  -11.1620   18.2255 C.3       3 GLC5        0.0000 
     45 CA          7.5410  -10.2310   19.5400 C.3       6 GLP5        0.0000 
     46 CA         12.1190  -17.9540   16.6160 C.3       3 GLC5        0.0000 
     47 CA         10.1980  -17.2040   16.6760 C.3       9 GLL5        0.0000 
     48 CA         14.0400  -18.7040   16.5560 C.3       6 GLP5        0.0000 
     49 CA         12.3395  -12.6505   12.3130 C.3       3 GLC5        0.0000 
     50 CA         10.5150  -13.8380   11.8240 C.3       9 GLL5        0.0000 
     51 CA         14.1640  -11.4630   12.8020 C.3       6 GLP5        0.0000 
     52 CA         13.0515  -14.8110    3.5570 C.3       3 GLC5        0.0000 
     53 CA         12.6920  -16.8060    3.9850 C.3       9 GLL5        0.0000 
     54 CA         13.4110  -12.8160    3.1290 C.3       6 GLP5        0.0000 
     55 CA         13.8547  -19.6247    3.3120 C.3       3 GLC5        0.0000 
     56 CA         12.0760  -18.0180    3.8790 C.3       9 GLL5        0.0000 
     57 CA         15.2640  -20.6810    2.7250 C.3       6 GLP5        0.0000 
     58 CA         11.8507  -13.9953    3.4555 C.3       3 GLC5        0.0000 
     59 CA         10.6570  -15.8280    3.8080 C.3       9 GLL5        0.0000 
     60 CA          6.4082  -15.5805   11.0650 C.3       3 GLC5        0.0000 
     61 CA          8.3850  -15.0800   10.1790 C.3       9 GLL5        0.0000 
     62 CA          4.4910  -16.1540   11.2050 C.3       6 GLP5        0.0000 
     63 CA         11.8837  -15.0120   17.6277 C.3       3 GLC5        0.0000 
     64 CA         10.4240  -14.6360   16.1260 C.3       9 GLL5        0.0000 
     65 CA          8.5948  -14.3350   16.7048 C.3       3 GLC5        0.0000 
     66 CA         10.2390  -15.7480   16.9290 C.3       9 GLL5        0.0000 
     67 CA         10.5453  -11.6782   11.5757 C.3       3 GLC5        0.0000 
     68 CA         10.5510   -9.5940   12.0780 C.3       6 GLP5        0.0000 
     69 CA         11.6007  -15.2877   10.7628 C.3       3 GLC5        0.0000 
     70 CA         12.6620  -16.8130   10.4520 C.3       6 GLP5        0.0000 
     71 CA         13.2690  -17.6485    5.4215 C.3       3 GLC5        0.0000 
     72 CA         14.1540  -17.8850    6.9110 C.3       6 GLP5        0.0000 
@<TRIPOS>BOND
@<TRIPOS>SUBSTRUCTURE
     1 SEC2        7 GROUP        1 X    SEC  0     ROOT SEC X 2
     2 ZIC7        4 GROUP        1 X    ZIC  0     **** ZIC X 5
     3 GLC5        1 GROUP        1 X    GLC  0     **** GLC X 6
     4 SEP2        9 GROUP        1 Y    SEP  0     ROOT SEP Y 9
     5 ZIP7        6 GROUP        1 Y    ZIP  0     **** ZIP Y 12
     6 GLP5        3 GROUP        1 Y    GLP  0     **** GLP Y 13
     7 SEL2        8 GROUP        1 Z    SEL  0     ROOT SEL Z 16
     8 ZIL7        5 GROUP        1 Z    ZIL  0     **** ZIL Z 19
     9 GLL5        2 GROUP        1 Z    GLL  0     **** GLL Z 20
@<TRIPOS>SET

