#    Name: 3q2h_QHF_1_ligand
#    Modification time : Tue Mar 25 08:47:23 2014

@<TRIPOS>MOLECULE
3q2h_QHF_1_ligand
   69    71     1     0     0
SMALL
NO_CHARGES


@<TRIPOS>ATOM
      1 C1          9.2210  -14.5250    2.4060 C.3       1 QHF1        0.0000 
      2 F1         12.8150  -19.1190    3.9190 F         1 QHF1        0.0000 
      3 N1          9.3110  -14.0750    9.6020 N.pl3     1 QHF1        0.0000 
      4 O1          9.3610  -11.6400    8.8480 O.2       1 QHF1        0.0000 
      5 S1          8.4950  -12.8020    8.8450 S.o2      1 QHF1        0.0000 
      6 C2          9.9240  -14.5210    3.7560 C.3       1 QHF1        0.0000 
      7 N2         10.1540  -13.9680   18.3050 N.2       1 QHF1        0.0000 
      8 O2          7.1680  -12.7320    9.4210 O.2       1 QHF1        0.0000 
      9 C3          8.9290  -14.2280    4.8970 C.3       1 QHF1        0.0000 
     10 N3         10.4060  -14.6410    6.7830 N.am      1 QHF1        0.0000 
     11 O3         10.0690  -15.3550   18.2270 O.3       1 QHF1        0.0000 
     12 C4          9.4650  -13.6770    6.2230 C.3       1 QHF1        0.0000 
     13 N4         11.9730  -15.6910    3.9550 N.ar      1 QHF1        0.0000 
     14 O4          9.9380  -15.9220    7.1090 O.3       1 QHF1        0.0000 
     15 C5         10.1940  -12.3920    5.9920 C.3       1 QHF1        0.0000 
     16 N5          9.9760  -16.9700    3.6870 N.ar      1 QHF1        0.0000 
     17 O5         12.4110  -15.3940    7.5200 O.2       1 QHF1        0.0000 
     18 C6          8.2710  -13.4040    7.1560 C.3       1 QHF1        0.0000 
     19 C7          8.3850  -15.0800   10.1790 C.3       1 QHF1        0.0000 
     20 C8          8.2660  -14.9340   11.6710 C.3       1 QHF1        0.0000 
     21 C9          9.6430  -14.9950   12.3100 C.3       1 QHF1        0.0000 
     22 C10         9.4200  -14.9230   13.8120 C.3       1 QHF1        0.0000 
     23 C11        10.6680  -14.6630   14.6410 C.3       1 QHF1        0.0000 
     24 C12        10.4240  -14.6360   16.1260 C.2       1 QHF1        0.0000 
     25 C13        10.3540  -13.5470   17.0580 C.2       1 QHF1        0.0000 
     26 C14        10.4620  -12.0930   16.9110 C.3       1 QHF1        0.0000 
     27 C15        10.2390  -15.7480   16.9290 C.2       1 QHF1        0.0000 
     28 C16        10.1980  -17.2040   16.6760 C.3       1 QHF1        0.0000 
     29 C17        10.5150  -13.8380   11.8240 C.3       1 QHF1        0.0000 
     30 C18        10.5640  -13.6870   10.3230 C.3       1 QHF1        0.0000 
     31 C19        11.7350  -14.4980    7.0400 C.2       1 QHF1        0.0000 
     32 C20        10.6570  -15.8280    3.8080 C.ar      1 QHF1        0.0000 
     33 C21        12.6920  -16.8060    3.9850 C.ar      1 QHF1        0.0000 
     34 C22        12.0760  -18.0180    3.8790 C.ar      1 QHF1        0.0000 
     35 C23        10.7090  -18.0780    3.7340 C.ar      1 QHF1        0.0000 
     36 H          10.6623  -13.7113    3.7130 H         1 QHF1        0.0000 
     37 H           8.3577  -15.1708    5.1104 H         1 QHF1        0.0000 
     38 H           8.1521  -13.5176    4.5066 H         1 QHF1        0.0000 
     39 H           7.5730  -12.6450    6.7304 H         1 QHF1        0.0000 
     40 H           7.6485  -14.3158    7.3159 H         1 QHF1        0.0000 
     41 H           8.7417  -16.0940    9.9453 H         1 QHF1        0.0000 
     42 H           7.3878  -14.9716    9.7274 H         1 QHF1        0.0000 
     43 H           7.6499  -15.7372   12.0720 H         1 QHF1        0.0000 
     44 H           7.8020  -13.9790   11.9121 H         1 QHF1        0.0000 
     45 H          10.0986  -15.9263   12.0675 H         1 QHF1        0.0000 
     46 H           8.9569  -15.8727   14.1511 H         1 QHF1        0.0000 
     47 H           8.6765  -14.1275   14.0258 H         1 QHF1        0.0000 
     48 H          11.1092  -13.6991   14.3252 H         1 QHF1        0.0000 
     49 H          11.4176  -15.4421   14.4075 H         1 QHF1        0.0000 
     50 H          11.5405  -13.9833   12.2106 H         1 QHF1        0.0000 
     51 H          10.1392  -12.9006   12.2738 H         1 QHF1        0.0000 
     52 H          10.8140  -12.6300   10.0789 H         1 QHF1        0.0000 
     53 H          11.4132  -14.2910    9.9314 H         1 QHF1        0.0000 
     54 H          12.1502  -13.5333    6.7886 H         1 QHF1        0.0000 
     55 H          13.7298  -16.7729    4.0892 H         1 QHF1        0.0000 
     56 H          10.2583  -19.0214    3.6613 H         1 QHF1        0.0000 
     57 H           9.8567  -14.7110    1.6568 H         1 QHF1        0.0000 
     58 H           8.5047  -15.2214    2.3623 H         1 QHF1        0.0000 
     59 H           8.7870  -13.6455    2.2107 H         1 QHF1        0.0000 
     60 H          10.5520  -12.0098    6.8439 H         1 QHF1        0.0000 
     61 H          10.9717  -12.5120    5.3750 H         1 QHF1        0.0000 
     62 H           9.6015  -11.6968    5.5850 H         1 QHF1        0.0000 
     63 H          11.2261  -11.7221   17.4389 H         1 QHF1        0.0000 
     64 H          10.6068  -11.8258   15.9583 H         1 QHF1        0.0000 
     65 H           9.6352  -11.6256   17.2241 H         1 QHF1        0.0000 
     66 H          10.3264  -17.4164   15.7073 H         1 QHF1        0.0000 
     67 H          10.9131  -17.6888   17.1796 H         1 QHF1        0.0000 
     68 H           9.3236  -17.6042   16.9504 H         1 QHF1        0.0000 
     69 H           9.0630  -15.7686    7.5683 H         1 QHF1        0.0000 
@<TRIPOS>BOND
     1    6    1 1    
     2   57    1 1    
     3   58    1 1    
     4   59    1 1    
     5   34    2 1    
     6    5    3 1    
     7   19    3 1    
     8   30    3 1    
     9    5    4 2    
    10    8    5 2    
    11   18    5 1    
    12    9    6 1    
    13   32    6 1    
    14   36    6 1    
    15   11    7 1    
    16   25    7 2    
    17   12    9 1    
    18   37    9 1    
    19   38    9 1    
    20   12   10 1    
    21   14   10 1    
    22   31   10 am   
    23   27   11 1    
    24   15   12 1    
    25   18   12 1    
    26   32   13 ar   
    27   33   13 ar   
    28   69   14 1    
    29   60   15 1    
    30   61   15 1    
    31   62   15 1    
    32   32   16 ar   
    33   35   16 ar   
    34   31   17 2    
    35   39   18 1    
    36   40   18 1    
    37   20   19 1    
    38   41   19 1    
    39   42   19 1    
    40   21   20 1    
    41   43   20 1    
    42   44   20 1    
    43   22   21 1    
    44   29   21 1    
    45   45   21 1    
    46   23   22 1    
    47   46   22 1    
    48   47   22 1    
    49   24   23 1    
    50   48   23 1    
    51   49   23 1    
    52   25   24 1    
    53   27   24 2    
    54   26   25 1    
    55   63   26 1    
    56   64   26 1    
    57   65   26 1    
    58   28   27 1    
    59   66   28 1    
    60   67   28 1    
    61   68   28 1    
    62   30   29 1    
    63   50   29 1    
    64   51   29 1    
    65   52   30 1    
    66   53   30 1    
    67   54   31 1    
    68   34   33 ar   
    69   55   33 1    
    70   35   34 ar   
    71   56   35 1    
@<TRIPOS>SUBSTRUCTURE
     1 QHF1        1 GROUP   
@<TRIPOS>SET

