#    Name: 3cyz_9OD_2_INTS_M
#    Modification time : Mon Mar 24 22:31:25 2014

@<TRIPOS>MOLECULE
3cyz_9OD_2_INTS_M
   30     0     3     0     0
SMALL
NO_CHARGES


@<TRIPOS>ATOM
      1 CA         23.3090  -15.0225  -21.3680 C.3       1 GLC5        0.0000 
      2 CA         23.9450  -14.4610  -22.3270 C.3       3 GLL5        0.0000 
      3 CA         22.6730  -15.5840  -20.4090 C.3       2 GLP5        0.0000 
      4 CA         22.1565  -13.8390  -23.1570 C.3       1 GLC5        0.0000 
      5 CA         20.3680  -13.2170  -23.9870 C.3       2 GLP5        0.0000 
      6 CA         22.2475  -12.5860  -23.3345 C.3       1 GLC5        0.0000 
      7 CA         24.1270  -11.9550  -22.6820 C.3       3 GLL5        0.0000 
      8 CA         23.0765  -10.7135  -21.3925 C.3       1 GLC5        0.0000 
      9 CA         22.0260   -9.4720  -20.1030 C.3       2 GLP5        0.0000 
     10 CA         23.3985   -9.5650  -21.7450 C.3       1 GLC5        0.0000 
     11 CA         24.7710   -9.6580  -23.3870 C.3       3 GLL5        0.0000 
     12 CA         22.0055   -9.9145  -24.5575 C.3       1 GLC5        0.0000 
     13 CA         23.9580   -9.3680  -24.6430 C.3       3 GLL5        0.0000 
     14 CA         20.0530  -10.4610  -24.4720 C.3       2 GLP5        0.0000 
     15 CA         23.7535   -7.3150  -24.8760 C.3       1 GLC5        0.0000 
     16 CA         23.5490   -5.2620  -25.1090 C.3       2 GLP5        0.0000 
     17 CA         27.2755   -7.8155  -25.6690 C.3       1 GLC5        0.0000 
     18 CA         25.4950   -8.6700  -26.4660 C.3       3 GLL5        0.0000 
     19 CA         29.0560   -6.9610  -24.8720 C.3       2 GLP5        0.0000 
     20 CA         24.0365   -6.9490  -28.6515 C.3       1 GLC5        0.0000 
     21 CA         25.3370   -8.3180  -27.7470 C.3       3 GLL5        0.0000 
     22 CA         22.7360   -5.5800  -29.5560 C.3       2 GLP5        0.0000 
     23 CA         24.9615   -9.4605  -29.4955 C.3       1 GLC5        0.0000 
     24 CA         24.5860  -10.6030  -31.2440 C.3       2 GLP5        0.0000 
     25 CA         26.8870   -9.3860  -23.0925 C.3       1 GLC5        0.0000 
     26 CA         25.2350  -11.1100  -23.2870 C.3       3 GLL5        0.0000 
     27 CA         28.7710   -8.3880  -22.8480 C.3       2 GLP5        0.0000 
     28 CA         24.4825   -6.8780  -26.1078 C.3       1 GLC5        0.0000 
     29 CA         26.2445  -10.5476  -27.6071 C.3       1 GLC5        0.0000 
     30 CA         27.2810  -12.3170  -28.2430 C.3       2 GLP5        0.0000 
@<TRIPOS>BOND
@<TRIPOS>SUBSTRUCTURE
     1 GLC5        1 GROUP        1 X    GLC  0     ROOT GLC X 6
     2 GLP5        3 GROUP        1 Y    GLP  0     ROOT GLP Y 13
     3 GLL5        2 GROUP        1 Z    GLL  0     ROOT GLL Z 20
@<TRIPOS>SET

