#    Name: 3cyz_9OD_2_ligand
#    Modification time : Mon Mar 24 22:31:25 2014

@<TRIPOS>MOLECULE
3cyz_9OD_2_ligand
   28    27     1     0     0
SMALL
NO_CHARGES


@<TRIPOS>ATOM
      1 O9         25.6770  -13.1010  -21.3020 O.2       1 9OD121      0.0000 
      2 C9         24.6930  -13.1800  -22.0350 C.2       1 9OD121      0.0000 
      3 C10        23.9450  -14.4610  -22.3270 C.3       1 9OD121      0.0000 
      4 C8         24.1270  -11.9550  -22.6820 C.3       1 9OD121      0.0000 
      5 C7         25.2350  -11.1100  -23.2870 C.3       1 9OD121      0.0000 
      6 C6         24.7710   -9.6580  -23.3870 C.3       1 9OD121      0.0000 
      7 C5         23.9580   -9.3680  -24.6430 C.3       1 9OD121      0.0000 
      8 C4         24.6630   -9.8070  -25.9250 C.3       1 9OD121      0.0000 
      9 C3         25.4950   -8.6700  -26.4660 C.2       1 9OD121      0.0000 
     10 C2         25.3370   -8.3180  -27.7470 C.2       1 9OD121      0.0000 
     11 C1         26.2830   -7.2560  -28.0950 C.2       1 9OD121      0.0000 
     12 OE1        27.1180   -7.4910  -29.0180 O.co2     1 9OD121      0.0000 
     13 OE2        26.4480   -6.2920  -27.2890 O.co2     1 9OD121      0.0000 
     14 H          23.5889  -11.3586  -21.9419 H         1 9OD121      0.0000 
     15 H          23.4271  -12.2406  -23.4703 H         1 9OD121      0.0000 
     16 H          25.4732  -11.4783  -24.2783 H         1 9OD121      0.0000 
     17 H          26.1162  -11.1612  -22.6578 H         1 9OD121      0.0000 
     18 H          25.6523   -8.9996  -23.3692 H         1 9OD121      0.0000 
     19 H          24.1641   -9.4155  -22.5019 H         1 9OD121      0.0000 
     20 H          23.7542   -8.2899  -24.6987 H         1 9OD121      0.0000 
     21 H          22.9907   -9.8841  -24.5726 H         1 9OD121      0.0000 
     22 H          23.9165  -10.0986  -26.6587 H         1 9OD121      0.0000 
     23 H          25.3014  -10.6584  -25.7054 H         1 9OD121      0.0000 
     24 H          26.1324   -8.2363  -25.8148 H         1 9OD121      0.0000 
     25 H          24.7211   -8.6642  -28.3939 H         1 9OD121      0.0000 
     26 H          24.5343  -15.1456  -22.7561 H         1 9OD121      0.0000 
     27 H          23.5751  -14.8731  -21.4943 H         1 9OD121      0.0000 
     28 H          23.1744  -14.3083  -22.9458 H         1 9OD121      0.0000 
@<TRIPOS>BOND
     1    2    1 2    
     2    3    2 1    
     3    4    2 1    
     4   26    3 1    
     5   27    3 1    
     6   28    3 1    
     7    5    4 1    
     8   14    4 1    
     9   15    4 1    
    10    6    5 1    
    11   16    5 1    
    12   17    5 1    
    13    7    6 1    
    14   18    6 1    
    15   19    6 1    
    16    8    7 1    
    17   20    7 1    
    18   21    7 1    
    19    9    8 1    
    20   22    8 1    
    21   23    8 1    
    22   10    9 2    
    23   24    9 1    
    24   11   10 1    
    25   25   10 1    
    26   12   11 ar   
    27   13   11 ar   
@<TRIPOS>SUBSTRUCTURE
     1 9OD121      1 GROUP   
@<TRIPOS>SET

