#    Name: 1kp8_ATP_11_INTS_M
#    Modification time : Mon Apr  7 13:41:11 2014

@<TRIPOS>MOLECULE
1kp8_ATP_11_INTS_M
   84     0    12     0     0
SMALL
NO_CHARGES


@<TRIPOS>ATOM
      1 N         124.3880  -16.2320   49.9595 N.am      2 SEC2        0.0000 
      2 N         125.2540  -17.6450   50.3040 N.am     10 SEL2        0.0000 
      3 N         123.5220  -14.8190   49.6150 N.am      6 SEP2        0.0000 
      4 N         124.7635  -17.8620   48.9840 N.am      2 SEC2        0.0000 
      5 N         124.2730  -18.0790   47.6640 N.am      6 SEP2        0.0000 
      6 N         125.1980  -20.8940   51.2555 N.am      2 SEC2        0.0000 
      7 N         125.6430  -19.5600   51.9380 N.am     10 SEL2        0.0000 
      8 N         124.7530  -22.2280   50.5730 N.am      6 SEP2        0.0000 
      9 N         124.2515  -19.7775   51.4790 N.am      2 SEC2        0.0000 
     10 N         122.8600  -19.9950   51.0200 N.am      6 SEP2        0.0000 
     11 Zn        128.4975  -18.4585   51.2565 Zn        3 ZIC7        0.0000 
     12 Zn        127.5260  -18.1230   51.1280 Zn       11 ZIL7        0.0000 
     13 Zn        129.4690  -18.7940   51.3850 Zn        7 ZIP7        0.0000 
     14 Zn        129.1595  -19.5605   50.7245 Zn        3 ZIC7        0.0000 
     15 Zn        128.8500  -20.3270   50.0640 Zn       11 ZIL7        0.0000 
     16 N         128.0980  -21.4200   50.8980 N.am      2 SEC2        0.0000 
     17 N         128.8500  -20.3270   50.0640 N.am     10 SEL2        0.0000 
     18 N         127.3460  -22.5130   51.7320 N.am      6 SEP2        0.0000 
     19 N         126.5220  -21.6510   47.1455 N.am      2 SEC2        0.0000 
     20 N         127.6830  -21.1540   47.9650 N.am     10 SEL2        0.0000 
     21 N         125.3610  -22.1480   46.3260 N.am      6 SEP2        0.0000 
     22 N         127.9420  -22.0560   47.0320 N.am      2 SEC2        0.0000 
     23 N         128.2010  -22.9580   46.0990 N.am      6 SEP2        0.0000 
     24 N         125.1975  -20.3010   49.0075 N.am      2 SEC2        0.0000 
     25 N         126.4350  -19.7490   49.6680 N.am     10 SEL2        0.0000 
     26 N         123.9600  -20.8530   48.3470 N.am      6 SEP2        0.0000 
     27 N         125.3540  -18.9140   48.6660 N.am      2 SEC2        0.0000 
     28 N         129.7490  -16.5040   46.0730 N.am      2 SEC2        0.0000 
     29 N         129.2210  -16.5530   47.5120 N.am     10 SEL2        0.0000 
     30 N         130.2770  -16.4550   44.6340 N.am      6 SEP2        0.0000 
     31 Zn        129.7320  -18.2125   50.5105 Zn        3 ZIC7        0.0000 
     32 Zn        129.9950  -17.6310   49.6360 Zn       11 ZIL7        0.0000 
     33 N         130.5075  -17.4440   46.0010 N.am      2 SEC2        0.0000 
     34 N         130.7380  -18.4330   47.3680 N.am     10 SEL2        0.0000 
     35 CA        132.2535  -20.3545   44.3095 C.3       4 GLC5        0.0000 
     36 CA        132.0230  -20.2680   46.4810 C.3      12 GLL5        0.0000 
     37 CA        132.4840  -20.4410   42.1380 C.3       8 GLP5        0.0000 
     38 O         133.2450  -23.6320   46.5360 O.2       1 ALC1        0.0000 
     39 O         132.5430  -22.4710   45.7400 O.2       9 ALL1        0.0000 
     40 O         133.9470  -24.7930   47.3320 O.2       5 ALP1        0.0000 
     41 N         135.5880  -22.6070   45.3960 N.am      2 SEC2        0.0000 
     42 N         135.1850  -22.0710   46.6270 N.am     10 SEL2        0.0000 
     43 N         135.9910  -23.1430   44.1650 N.am      6 SEP2        0.0000 
     44 O         134.9685  -22.7960   47.7790 O.2       1 ALC1        0.0000 
     45 O         135.1850  -22.0710   46.6270 O.2       9 ALL1        0.0000 
     46 O         134.7520  -23.5210   48.9310 O.2       5 ALP1        0.0000 
     47 O         134.5660  -23.4320   46.9795 O.2       1 ALC1        0.0000 
     48 CA        134.9835  -21.3315   44.2805 C.3       4 GLC5        0.0000 
     49 CA        134.2440  -20.0700   45.7160 C.3      12 GLL5        0.0000 
     50 CA        135.7230  -22.5930   42.8450 C.3       8 GLP5        0.0000 
     51 CA        133.3640  -20.2555   43.9270 C.3       4 GLC5        0.0000 
     52 CA        136.9565  -16.4210   43.7295 C.3       4 GLC5        0.0000 
     53 CA        138.2010  -17.7410   43.9670 C.3      12 GLL5        0.0000 
     54 CA        135.7120  -15.1010   43.4920 C.3       8 GLP5        0.0000 
     55 CA        137.3685  -16.9955   42.1890 C.3       4 GLC5        0.0000 
     56 CA        136.5360  -16.2500   40.4110 C.3       8 GLP5        0.0000 
     57 CA        139.7570  -18.7185   44.0760 C.3       4 GLC5        0.0000 
     58 CA        141.3130  -19.6960   44.1850 C.3       8 GLP5        0.0000 
     59 O         140.3635  -16.5725   43.2175 O.2       1 ALC1        0.0000 
     60 O         139.2110  -16.8860   44.1340 O.2       9 ALL1        0.0000 
     61 O         141.5160  -16.2590   42.3010 O.2       5 ALP1        0.0000 
     62 N         138.4715  -17.6910   41.5615 N.am      2 SEC2        0.0000 
     63 N         138.0890  -18.3450   42.7440 N.am     10 SEL2        0.0000 
     64 N         138.8540  -17.0370   40.3790 N.am      6 SEP2        0.0000 
     65 CA        136.4020  -17.1545   43.0100 C.3       4 GLC5        0.0000 
     66 CA        137.0920  -19.2080   42.5280 C.3      12 GLL5        0.0000 
     67 CA        136.4075  -20.9005   42.6865 C.3       4 GLC5        0.0000 
     68 CA        135.3100  -18.7055   41.4255 C.3       4 GLC5        0.0000 
     69 CA        133.5280  -18.2030   40.3230 C.3       8 GLP5        0.0000 
     70 CA        139.0050  -18.7720   41.4620 C.3       4 GLC5        0.0000 
     71 CA        140.9180  -18.3360   40.3960 C.3       8 GLP5        0.0000 
     72 CA        136.8140  -17.7290   41.4695 C.3       4 GLC5        0.0000 
     73 CA        138.3405  -20.8865   42.5065 C.3       4 GLC5        0.0000 
     74 CA        139.5890  -22.5650   42.4850 C.3       8 GLP5        0.0000 
     75 CA        138.0685  -20.1775   44.1270 C.3       4 GLC5        0.0000 
     76 CA        139.0450  -21.1470   45.7260 C.3       8 GLP5        0.0000 
     77 CA        135.9910  -20.7845   43.7265 C.3       4 GLC5        0.0000 
     78 CA        136.2590  -18.9760   44.6080 C.3      12 GLL5        0.0000 
     79 CA        129.9460  -19.7117   45.9472 C.3       4 GLC5        0.0000 
     80 CA        128.1810  -19.4700   44.8020 C.3       8 GLP5        0.0000 
     81 CA        135.6492  -17.1965   44.4235 C.3       4 GLC5        0.0000 
     82 CA        134.5520  -15.8720   44.0560 C.3       8 GLP5        0.0000 
     83 CA        137.8957  -19.8340   45.2585 C.3       4 GLC5        0.0000 
     84 CA        137.2340  -18.0660   44.9740 C.3      12 GLL5        0.0000 
@<TRIPOS>BOND
@<TRIPOS>SUBSTRUCTURE
     1 ALC1       38 GROUP        1 X    ALC  0     ROOT ALC X 1
     2 SEC2        1 GROUP        1 X    SEC  0     **** SEC X 2
     3 ZIC7       11 GROUP        1 X    ZIC  0     **** ZIC X 5
     4 GLC5       35 GROUP        1 X    GLC  0     **** GLC X 6
     5 ALP1       40 GROUP        1 Y    ALP  0     ROOT ALP Y 8
     6 SEP2        3 GROUP        1 Y    SEP  0     **** SEP Y 9
     7 ZIP7       13 GROUP        1 Y    ZIP  0     **** ZIP Y 12
     8 GLP5       37 GROUP        1 Y    GLP  0     **** GLP Y 13
     9 ALL1       39 GROUP        1 Z    ALL  0     ROOT ALL Z 15
    10 SEL2        2 GROUP        1 Z    SEL  0     **** SEL Z 16
    11 ZIL7       12 GROUP        1 Z    ZIL  0     **** ZIL Z 19
    12 GLL5       36 GROUP        1 Z    GLL  0     **** GLL Z 20
@<TRIPOS>SET

