#    Name: 1kp8_ATP_11_ligand
#    Modification time : Mon Apr  7 13:41:11 2014

@<TRIPOS>MOLECULE
1kp8_ATP_11_ligand
   43    45     1     0     0
SMALL
NO_CHARGES


@<TRIPOS>ATOM
      1 PG        126.1820  -18.6750   50.8500 P.3       1 ATP1        0.0000 
      2 O1G       125.2540  -17.6450   50.3040 O.co2     1 ATP1        0.0000 
      3 O2G       125.6430  -19.5600   51.9380 O.co2     1 ATP1        0.0000 
      4 O3G       127.5260  -18.1230   51.1280 O.co2     1 ATP1        0.0000 
      5 PB        127.8690  -20.0940   48.9910 P.3       1 ATP1        0.0000 
      6 O1B       128.8500  -20.3270   50.0640 O.co2     1 ATP1        0.0000 
      7 O2B       127.6830  -21.1540   47.9650 O.co2     1 ATP1        0.0000 
      8 O3B       126.4350  -19.7490   49.6680 O.3       1 ATP1        0.0000 
      9 PA        129.5530  -17.7810   48.2250 P.3       1 ATP1        0.0000 
     10 O1A       129.2210  -16.5530   47.5120 O.co2     1 ATP1        0.0000 
     11 O2A       129.9950  -17.6310   49.6360 O.co2     1 ATP1        0.0000 
     12 O3A       128.2970  -18.7980   48.1170 O.3       1 ATP1        0.0000 
     13 O5'       130.7380  -18.4330   47.3680 O.3       1 ATP1        0.0000 
     14 C5'       131.3990  -19.6390   47.7040 C.3       1 ATP1        0.0000 
     15 C4'       132.0230  -20.2680   46.4810 C.3       1 ATP1        0.0000 
     16 O4'       132.9740  -19.3820   45.8440 O.3       1 ATP1        0.0000 
     17 C3'       132.7610  -21.5530   46.8110 C.3       1 ATP1        0.0000 
     18 O3'       132.5430  -22.4710   45.7400 O.3       1 ATP1        0.0000 
     19 C2'       134.2090  -21.0540   46.8590 C.3       1 ATP1        0.0000 
     20 O2'       135.1850  -22.0710   46.6270 O.3       1 ATP1        0.0000 
     21 C1'       134.2440  -20.0700   45.7160 C.3       1 ATP1        0.0000 
     22 N9        135.4350  -19.1580   45.6940 N.pl3     1 ATP1        0.0000 
     23 C8        135.9670  -18.3330   46.6650 C.2       1 ATP1        0.0000 
     24 N7        137.0370  -17.6640   46.2850 N.2       1 ATP1        0.0000 
     25 C5        137.2340  -18.0660   44.9740 C.ar      1 ATP1        0.0000 
     26 C6        138.2010  -17.7410   43.9670 C.ar      1 ATP1        0.0000 
     27 N6        139.2110  -16.8860   44.1340 N.pl3     1 ATP1        0.0000 
     28 N1        138.0890  -18.3450   42.7440 N.ar      1 ATP1        0.0000 
     29 C2        137.0920  -19.2080   42.5280 C.ar      1 ATP1        0.0000 
     30 N3        136.1290  -19.5880   43.3940 N.ar      1 ATP1        0.0000 
     31 C4        136.2590  -18.9760   44.6080 C.ar      1 ATP1        0.0000 
     32 H         130.7048  -20.3746   48.1463 H         1 ATP1        0.0000 
     33 H         132.2001  -19.4719   48.4449 H         1 ATP1        0.0000 
     34 H         131.2321  -20.5204   45.7728 H         1 ATP1        0.0000 
     35 H         132.4716  -21.8783   47.7488 H         1 ATP1        0.0000 
     36 H         134.3496  -20.5144   47.7591 H         1 ATP1        0.0000 
     37 H         134.2147  -20.6648   44.7908 H         1 ATP1        0.0000 
     38 H         135.5489  -18.2704   47.5768 H         1 ATP1        0.0000 
     39 H         139.2461  -16.4130   45.0143 H         1 ATP1        0.0000 
     40 H         139.8423  -16.7949   43.3638 H         1 ATP1        0.0000 
     41 H         137.0464  -19.6638   41.5316 H         1 ATP1        0.0000 
     42 H         132.8183  -23.3614   46.1024 H         1 ATP1        0.0000 
     43 H         135.1143  -22.6821   47.4154 H         1 ATP1        0.0000 
@<TRIPOS>BOND
     1    2    1 ar   
     2    3    1 ar   
     3    4    1 ar   
     4    8    1 1    
     5    6    5 ar   
     6    7    5 ar   
     7    8    5 1    
     8   12    5 1    
     9   10    9 ar   
    10   11    9 ar   
    11   12    9 1    
    12   13    9 1    
    13   14   13 1    
    14   15   14 1    
    15   32   14 1    
    16   33   14 1    
    17   16   15 1    
    18   17   15 1    
    19   34   15 1    
    20   21   16 1    
    21   18   17 1    
    22   19   17 1    
    23   35   17 1    
    24   42   18 1    
    25   20   19 1    
    26   21   19 1    
    27   36   19 1    
    28   43   20 1    
    29   22   21 1    
    30   37   21 1    
    31   23   22 1    
    32   31   22 1    
    33   24   23 2    
    34   38   23 1    
    35   25   24 1    
    36   26   25 ar   
    37   31   25 ar   
    38   27   26 1    
    39   28   26 ar   
    40   39   27 1    
    41   40   27 1    
    42   29   28 ar   
    43   30   29 ar   
    44   41   29 1    
    45   31   30 ar   
@<TRIPOS>SUBSTRUCTURE
     1 ATP1        1 GROUP   
@<TRIPOS>SET

