#    Name: 3zo4_QWI_1_INTS_M
#    Modification time : Tue Mar 25 03:45:09 2014

@<TRIPOS>MOLECULE
3zo4_QWI_1_INTS_M
   65     0    12     0     0
SMALL
NO_CHARGES


@<TRIPOS>ATOM
      1 CA         22.5985  -15.2485    0.2670 C.3       4 GLC5        0.0000 
      2 CA         23.4330  -13.2860    0.8820 C.3      12 GLL5        0.0000 
      3 CA         21.7640  -17.2110   -0.3480 C.3       8 GLP5        0.0000 
      4 CA         24.7645  -11.4745    4.7250 C.3       4 GLC5        0.0000 
      5 CA         24.5350  -10.2680    2.9320 C.3      12 GLL5        0.0000 
      6 CA         24.9940  -12.6810    6.5180 C.3       8 GLP5        0.0000 
      7 CA         23.0990   -7.7625    6.4115 C.3       4 GLC5        0.0000 
      8 CA         24.1820   -8.4040    4.5880 C.3      12 GLL5        0.0000 
      9 CA         22.0160   -7.1210    8.2350 C.3       8 GLP5        0.0000 
     10 OD1        25.7235   -7.4565    5.5020 O.co2     3 ASC3        0.0000 
     11 OD1        25.4240   -7.7480    4.1440 O.co2    11 ASL3        0.0000 
     12 OD1        26.0230   -7.1650    6.8600 O.co2     7 ASP3        0.0000 
     13 CA         28.1005   -7.3580    6.2100 C.3       4 GLC5        0.0000 
     14 CA         28.5800   -9.2410    5.0950 C.3      12 GLL5        0.0000 
     15 CA         27.6210   -5.4750    7.3250 C.3       8 GLP5        0.0000 
     16 CA         29.4950   -7.4120    4.5745 C.3       4 GLC5        0.0000 
     17 CA         30.4100   -5.5830    4.0540 C.3       8 GLP5        0.0000 
     18 CA         29.6905   -9.1070    6.8470 C.3       4 GLC5        0.0000 
     19 CA         30.8010   -8.9730    8.5990 C.3       8 GLP5        0.0000 
     20 CA         26.0555  -11.1095    5.6590 C.3       4 GLC5        0.0000 
     21 CA         27.1170   -9.5380    4.8000 C.3      12 GLL5        0.0000 
     22 CA         32.2990  -11.5665    5.9580 C.3       4 GLC5        0.0000 
     23 CA         32.6660   -9.7890    5.2460 C.3      12 GLL5        0.0000 
     24 CA         31.9320  -13.3440    6.6700 C.3       8 GLP5        0.0000 
     25 CA         33.0775  -11.4280    3.9490 C.3       4 GLC5        0.0000 
     26 CA         33.4890  -13.0670    2.6520 C.3       8 GLP5        0.0000 
     27 CA         34.6080   -8.7495    5.3555 C.3       4 GLC5        0.0000 
     28 CA         36.5500   -7.7100    5.4650 C.3       8 GLP5        0.0000 
     29 CA         32.1570   -8.0435    5.6875 C.3       4 GLC5        0.0000 
     30 CA         31.6480   -6.2980    6.1290 C.3       8 GLP5        0.0000 
     31 N          34.9600   -9.4500    4.5845 N.am      2 SEC2        0.0000 
     32 N          33.5330   -9.8240    4.2270 N.am     10 SEL2        0.0000 
     33 N          36.3870   -9.0760    4.9420 N.am      6 SEP2        0.0000 
     34 CA         34.4785   -8.3490    3.0530 C.3       4 GLC5        0.0000 
     35 CA         32.9530   -9.7680    3.0090 C.3      12 GLL5        0.0000 
     36 CA         36.0040   -6.9300    3.0970 C.3       8 GLP5        0.0000 
     37 O          34.9330  -10.1415    1.6530 O.2       1 ALC1        0.0000 
     38 O          33.5670   -9.8380    1.7890 O.2       9 ALL1        0.0000 
     39 O          36.2990  -10.4450    1.5170 O.2       5 ALP1        0.0000 
     40 CA         31.6410   -7.9250    1.6650 C.3       4 GLC5        0.0000 
     41 CA         31.5920   -9.6630    2.7410 C.3      12 GLL5        0.0000 
     42 CA         31.6900   -6.1870    0.5890 C.3       8 GLP5        0.0000 
     43 CA         21.3725  -12.5228    0.6617 C.3       4 GLC5        0.0000 
     44 CA         23.0690  -11.3290   -0.4330 C.3      12 GLL5        0.0000 
     45 CA         19.7080  -13.0310    1.6860 C.3       8 GLP5        0.0000 
     46 CA         22.7785  -13.3967    3.0553 C.3       4 GLC5        0.0000 
     47 CA         23.9250  -12.4990    1.9190 C.3      12 GLL5        0.0000 
     48 CA         21.8780  -13.9010    4.7100 C.3       8 GLP5        0.0000 
     49 CA         21.6935  -12.9618    1.5433 C.3       4 GLC5        0.0000 
     50 CA         23.9265  -14.7277    1.9403 C.3       4 GLC5        0.0000 
     51 CA         24.1740  -16.5630    2.4800 C.3       8 GLP5        0.0000 
     52 CA         25.5805  -12.8464    1.5210 C.3       4 GLC5        0.0000 
     53 CA         27.4650  -13.1460    1.6730 C.3       8 GLP5        0.0000 
     54 CA         24.3915  -12.6366   -1.3236 C.3       4 GLC5        0.0000 
     55 CA         25.5480  -12.6230   -2.9070 C.3       8 GLP5        0.0000 
     56 CA         26.3340  -11.5433    2.2092 C.3       4 GLC5        0.0000 
     57 CA         29.2980   -6.9393    3.4300 C.3       4 GLC5        0.0000 
     58 CA         28.8150   -8.7070    2.6910 C.3      12 GLL5        0.0000 
     59 CA         29.2855   -7.3503    1.2920 C.3       4 GLC5        0.0000 
     60 CA         30.3850   -6.4050   -0.2220 C.3       8 GLP5        0.0000 
     61 CA         30.4062  -11.5890    3.1520 C.3       4 GLC5        0.0000 
     62 CA         29.6010  -13.5560    2.9580 C.3       8 GLP5        0.0000 
     63 CA         32.8807  -11.3912    2.7635 C.3       4 GLC5        0.0000 
     64 CA         31.9271   -7.7545    3.9293 C.3       4 GLC5        0.0000 
     65 CA         31.7720   -5.8140    4.6810 C.3       8 GLP5        0.0000 
@<TRIPOS>BOND
@<TRIPOS>SUBSTRUCTURE
     1 ALC1       37 GROUP        1 X    ALC  0     ROOT ALC X 1
     2 SEC2       31 GROUP        1 X    SEC  0     **** SEC X 2
     3 ASC3       10 GROUP        1 X    ASC  0     **** ASC X 3
     4 GLC5        1 GROUP        1 X    GLC  0     **** GLC X 6
     5 ALP1       39 GROUP        1 Y    ALP  0     ROOT ALP Y 8
     6 SEP2       33 GROUP        1 Y    SEP  0     **** SEP Y 9
     7 ASP3       12 GROUP        1 Y    ASP  0     **** ASP Y 10
     8 GLP5        3 GROUP        1 Y    GLP  0     **** GLP Y 13
     9 ALL1       38 GROUP        1 Z    ALL  0     ROOT ALL Z 15
    10 SEL2       32 GROUP        1 Z    SEL  0     **** SEL Z 16
    11 ASL3       11 GROUP        1 Z    ASL  0     **** ASL Z 17
    12 GLL5        2 GROUP        1 Z    GLL  0     **** GLL Z 20
@<TRIPOS>SET

