#    Name: 3zo4_QWI_1_ligand
#    Modification time : Tue Mar 25 03:45:09 2014

@<TRIPOS>MOLECULE
3zo4_QWI_1_ligand
   49    53     1     0     0
SMALL
NO_CHARGES


@<TRIPOS>ATOM
      1 C2         23.0050  -12.7000   -0.2920 C.ar      1 QWI1352     0.0000 
      2 C3         23.0690  -11.3290   -0.4330 C.ar      1 QWI1352     0.0000 
      3 C4         23.5600  -10.5400    0.6020 C.ar      1 QWI1352     0.0000 
      4 C5         23.9930  -11.1160    1.7930 C.ar      1 QWI1352     0.0000 
      5 C6         23.9250  -12.4990    1.9190 C.ar      1 QWI1352     0.0000 
      6 C7         23.4330  -13.2860    0.8820 C.ar      1 QWI1352     0.0000 
      7 C8         24.5350  -10.2680    2.9320 C.3       1 QWI1352     0.0000 
      8 C9         23.5430   -9.2330    3.4880 C.3       1 QWI1352     0.0000 
      9 C10        24.1820   -8.4040    4.5880 C.3       1 QWI1352     0.0000 
     10 N11        25.4240   -7.7480    4.1440 N.4       1 QWI1352     0.0000 
     11 C15        25.8710   -9.6130    2.5590 C.3       1 QWI1352     0.0000 
     12 C17        28.8150   -8.7070    2.6910 C.3       1 QWI1352     0.0000 
     13 C18        27.5570   -7.8840    2.9210 C.3       1 QWI1352     0.0000 
     14 C20        28.5800   -9.2410    5.0950 C.3       1 QWI1352     0.0000 
     15 C21        27.1170   -9.5380    4.8000 C.3       1 QWI1352     0.0000 
     16 C22        30.8310   -9.5810    3.9510 C.ar      1 QWI1352     0.0000 
     17 N23        31.3310   -9.6710    5.2050 N.ar      1 QWI1352     0.0000 
     18 C24        32.6660   -9.7890    5.2460 C.ar      1 QWI1352     0.0000 
     19 N25        33.5330   -9.8240    4.2270 N.ar      1 QWI1352     0.0000 
     20 C26        32.9530   -9.7680    3.0090 C.ar      1 QWI1352     0.0000 
     21 C70        26.4910   -8.7120    3.6620 C.3       1 QWI1352     0.0000 
     22 N27        33.5670   -9.8380    1.7890 N.pl3     1 QWI1352     0.0000 
     23 C29        32.5810   -9.7930    0.8610 C.2       1 QWI1352     0.0000 
     24 N30        31.3690   -9.6900    1.3730 N.2       1 QWI1352     0.0000 
     25 C31        31.5920   -9.6630    2.7410 C.ar      1 QWI1352     0.0000 
     26 N1         29.4380   -9.2700    3.8980 N.3       1 QWI1352     0.0000 
     27 H          22.6401  -13.2827   -1.0580 H         1 QWI1352     0.0000 
     28 H          22.7526  -10.8824   -1.3077 H         1 QWI1352     0.0000 
     29 H          23.6040   -9.5141    0.4859 H         1 QWI1352     0.0000 
     30 H          24.2437  -12.9488    2.7936 H         1 QWI1352     0.0000 
     31 H          23.3902  -14.3102    0.9962 H         1 QWI1352     0.0000 
     32 H          24.7679  -10.9695    3.7795 H         1 QWI1352     0.0000 
     33 H          22.6726   -9.7559    3.8826 H         1 QWI1352     0.0000 
     34 H          23.2234   -8.5802    2.6766 H         1 QWI1352     0.0000 
     35 H          24.3851   -9.0629    5.4480 H         1 QWI1352     0.0000 
     36 H          23.4520   -7.6501    4.9253 H         1 QWI1352     0.0000 
     37 H          25.7318   -9.0023    1.6503 H         1 QWI1352     0.0000 
     38 H          26.6004  -10.4013    2.3048 H         1 QWI1352     0.0000 
     39 H          29.5507   -8.0658    2.1471 H         1 QWI1352     0.0000 
     40 H          28.5633   -9.5271    1.9752 H         1 QWI1352     0.0000 
     41 H          27.1506   -7.5625    1.9644 H         1 QWI1352     0.0000 
     42 H          27.7982   -7.0066    3.5173 H         1 QWI1352     0.0000 
     43 H          28.9394   -9.9771    5.8398 H         1 QWI1352     0.0000 
     44 H          28.6403   -8.2494    5.5836 H         1 QWI1352     0.0000 
     45 H          26.5214   -9.3728    5.7201 H         1 QWI1352     0.0000 
     46 H          27.0087  -10.6129    4.5519 H         1 QWI1352     0.0000 
     47 H          33.1081   -9.8677    6.2552 H         1 QWI1352     0.0000 
     48 H          34.4998   -9.9047    1.6318 H         1 QWI1352     0.0000 
     49 H          32.7741   -9.8355   -0.1251 H         1 QWI1352     0.0000 
@<TRIPOS>BOND
     1    2    1 ar   
     2    6    1 ar   
     3   27    1 1    
     4    3    2 ar   
     5   28    2 1    
     6    4    3 ar   
     7   29    3 1    
     8    5    4 ar   
     9    7    4 1    
    10    6    5 ar   
    11   30    5 1    
    12   31    6 1    
    13    8    7 1    
    14   11    7 1    
    15   32    7 1    
    16    9    8 1    
    17   33    8 1    
    18   34    8 1    
    19   10    9 1    
    20   35    9 1    
    21   36    9 1    
    22   21   10 1    
    23   21   11 1    
    24   37   11 1    
    25   38   11 1    
    26   13   12 1    
    27   26   12 1    
    28   39   12 1    
    29   40   12 1    
    30   21   13 1    
    31   41   13 1    
    32   42   13 1    
    33   15   14 1    
    34   26   14 1    
    35   43   14 1    
    36   44   14 1    
    37   21   15 1    
    38   45   15 1    
    39   46   15 1    
    40   17   16 ar   
    41   25   16 ar   
    42   26   16 1    
    43   18   17 ar   
    44   19   18 ar   
    45   47   18 1    
    46   20   19 ar   
    47   22   20 1    
    48   25   20 ar   
    49   23   22 1    
    50   48   22 1    
    51   24   23 2    
    52   49   23 1    
    53   25   24 1    
@<TRIPOS>SUBSTRUCTURE
     1 QWI1352     1 GROUP   
@<TRIPOS>SET

