#    Name: 3pqb_VGP_3_INTS_M
#    Modification time : Tue Mar 25 08:18:25 2014

@<TRIPOS>MOLECULE
3pqb_VGP_3_INTS_M
   94     0     9     0     0
SMALL
NO_CHARGES


@<TRIPOS>ATOM
      1 CA         29.4790   -5.9170   95.2515 C.3       3 GLC5        0.0000 
      2 CA         29.3150   -8.0520   95.0700 C.3       9 GLL5        0.0000 
      3 CA         29.6430   -3.7820   95.4330 C.3       6 GLP5        0.0000 
      4 CA         31.1135   -9.1440   95.6535 C.3       3 GLC5        0.0000 
      5 CA         32.9120  -10.2360   96.2370 C.3       6 GLP5        0.0000 
      6 CA         29.2940   -9.7340   95.8720 C.3       3 GLC5        0.0000 
      7 CA         29.2730  -11.4160   96.6740 C.3       6 GLP5        0.0000 
      8 CA         29.9705   -8.8970   93.5800 C.3       3 GLC5        0.0000 
      9 CA         30.6260   -9.7420   92.0900 C.3       6 GLP5        0.0000 
     10 N          29.2645   -7.9730  105.4035 N.am      2 SEC2        0.0000 
     11 N          28.4360   -6.8710  105.8600 N.am      8 SEL2        0.0000 
     12 N          30.0930   -9.0750  104.9470 N.am      5 SEP2        0.0000 
     13 O          27.7420   -7.2600  107.2815 O.2       1 ALC1        0.0000 
     14 O          28.4360   -6.8710  105.8600 O.2       7 ALL1        0.0000 
     15 O          27.0480   -7.6490  108.7030 O.2       4 ALP1        0.0000 
     16 O          28.9315   -8.5270  104.0535 O.2       1 ALC1        0.0000 
     17 O          27.7700   -7.9790  103.1600 O.2       7 ALL1        0.0000 
     18 O          30.0930   -9.0750  104.9470 O.2       4 ALP1        0.0000 
     19 CA         25.6880   -7.1830   96.6435 C.3       3 GLC5        0.0000 
     20 CA         27.0960   -7.8320   98.2130 C.3       9 GLL5        0.0000 
     21 CA         24.2800   -6.5340   95.0740 C.3       6 GLP5        0.0000 
     22 CA         24.4745   -7.6720   97.2800 C.3       3 GLC5        0.0000 
     23 CA         25.9050   -8.2560   98.7560 C.3       9 GLL5        0.0000 
     24 CA         23.0440   -7.0880   95.8040 C.3       6 GLP5        0.0000 
     25 CA         27.6180   -4.7520   99.5345 C.3       3 GLC5        0.0000 
     26 CA         29.5120   -5.2950  100.5520 C.3       9 GLL5        0.0000 
     27 CA         25.7240   -4.2090   98.5170 C.3       6 GLP5        0.0000 
     28 CA         30.4585   -5.1175  102.5625 C.3       3 GLC5        0.0000 
     29 CA         31.4050   -4.9400  104.5730 C.3       6 GLP5        0.0000 
     30 CA         28.0770   -4.1480  100.6620 C.3       3 GLC5        0.0000 
     31 CA         26.6420   -3.0010  100.7720 C.3       6 GLP5        0.0000 
     32 CA         31.8930   -8.3095   96.4660 C.3       3 GLC5        0.0000 
     33 CA         30.8740   -6.3830   96.6950 C.3       9 GLL5        0.0000 
     34 CA         33.8105   -1.9590   97.0745 C.3       3 GLC5        0.0000 
     35 CA         33.3150   -3.5920   97.3860 C.3       9 GLL5        0.0000 
     36 CA         34.3060   -0.3260   96.7630 C.3       6 GLP5        0.0000 
     37 CA         26.6290   -4.1440  102.4960 C.3       3 GLC5        0.0000 
     38 CA         26.8170   -5.8010  102.9500 C.3       9 GLL5        0.0000 
     39 CA         26.4410   -2.4870  102.0420 C.3       6 GLP5        0.0000 
     40 CA         27.1345   -7.8650  106.6365 C.3       3 GLC5        0.0000 
     41 CA         27.3390   -6.7600  105.0650 C.3       9 GLL5        0.0000 
     42 CA         26.9300   -8.9700  108.2080 C.3       6 GLP5        0.0000 
     43 CA         25.9090   -4.1110  103.9490 C.3       3 GLC5        0.0000 
     44 CA         26.5610   -5.5070  105.2220 C.3       9 GLL5        0.0000 
     45 CA         25.2570   -2.7150  102.6760 C.3       6 GLP5        0.0000 
     46 CA         24.1775   -4.6200  104.4735 C.3       3 GLC5        0.0000 
     47 CA         25.3510   -5.5650  106.1160 C.3       9 GLL5        0.0000 
     48 CA         23.0040   -3.6750  102.8310 C.3       6 GLP5        0.0000 
     49 CA         27.4495  -10.5890   96.8105 C.3       3 GLC5        0.0000 
     50 CA         25.6260   -9.7620   96.9470 C.3       9 GLL5        0.0000 
     51 CA         24.3350   -8.4250   96.3755 C.3       3 GLC5        0.0000 
     52 CA         23.8530   -6.1357  101.2590 C.3       3 GLC5        0.0000 
     53 CA         23.9130   -7.9300  101.8810 C.3       9 GLL5        0.0000 
     54 CA         23.3760   -4.7570  100.2710 C.3       6 GLP5        0.0000 
     55 CA         25.9327   -5.5295   99.9725 C.3       3 GLC5        0.0000 
     56 CA         25.9380   -6.6570  102.0760 C.3       9 GLL5        0.0000 
     57 CA         24.7587   -5.8035  100.8495 C.3       3 GLC5        0.0000 
     58 CA         26.3450   -7.0430  100.7800 C.3       9 GLL5        0.0000 
     59 CA         28.2525   -8.4160  100.4260 C.3       3 GLC5        0.0000 
     60 CA         29.5590  -10.0010  100.3580 C.3       6 GLP5        0.0000 
     61 CA         24.1427   -6.4225  100.2975 C.3       3 GLC5        0.0000 
     62 CA         25.5170   -7.8750  100.0440 C.3       9 GLL5        0.0000 
     63 CA         26.0637   -6.0789   98.6617 C.3       3 GLC5        0.0000 
     64 CA         28.1346   -8.9187   99.5109 C.3       3 GLC5        0.0000 
     65 CA         27.9350   -7.0020   98.9300 C.3       9 GLL5        0.0000 
     66 CA         30.3980   -7.4065   99.7775 C.3       3 GLC5        0.0000 
     67 CA         29.9540   -5.7050   99.2000 C.3       9 GLL5        0.0000 
     68 CA         31.0630   -9.3130   99.6790 C.3       6 GLP5        0.0000 
     69 CA         29.6022   -4.9492   97.1175 C.3       3 GLC5        0.0000 
     70 CA         27.0895   -5.4391   98.7518 C.3       3 GLC5        0.0000 
     71 CA         29.1690   -6.5280   98.4040 C.3       9 GLL5        0.0000 
     72 CA         30.5160   -4.5835   96.7860 C.3       3 GLC5        0.0000 
     73 CA         31.1570   -5.2180   98.7640 C.3       9 GLL5        0.0000 
     74 CA         29.9517   -5.2055   96.1750 C.3       3 GLC5        0.0000 
     75 CA         29.6470   -6.8750   97.1390 C.3       9 GLL5        0.0000 
     76 CA         31.3873   -4.0375   96.3293 C.3       3 GLC5        0.0000 
     77 CA         32.9480   -4.9940   97.0650 C.3       9 GLL5        0.0000 
     78 CA         34.3057   -3.8505   98.8012 C.3       3 GLC5        0.0000 
     79 CA         35.4800   -3.4080  100.3770 C.3       6 GLP5        0.0000 
     80 CA         33.2818   -2.9700   95.8117 C.3       3 GLC5        0.0000 
     81 CA         33.4320   -1.6470   94.3980 C.3       6 GLP5        0.0000 
     82 CA         34.5902   -4.8265   96.5832 C.3       3 GLC5        0.0000 
     83 CA         36.0490   -5.3600   95.9410 C.3       6 GLP5        0.0000 
     84 CA         28.7922   -5.2112  104.1090 C.3       3 GLC5        0.0000 
     85 CA         27.7560   -6.7180  103.6640 C.3       9 GLL5        0.0000 
     86 CA         30.2980   -4.1630  104.9110 C.3       6 GLP5        0.0000 
     87 CA         28.4195   -5.1152  105.7037 C.3       3 GLC5        0.0000 
     88 CA         29.8890   -4.0970  106.2640 C.3       6 GLP5        0.0000 
     89 CA         24.3768   -4.9880  108.1772 C.3       3 GLC5        0.0000 
     90 CA         23.3130   -3.9340  109.6950 C.3       6 GLP5        0.0000 
     91 CA         26.1852   -7.5060  107.4338 C.3       3 GLC5        0.0000 
     92 CA         25.5300   -6.5190  107.2030 C.3       9 GLL5        0.0000 
     93 CA         30.9140   -7.6383   98.6826 C.3       3 GLC5        0.0000 
     94 CA         31.6210   -5.5520   97.5140 C.3       9 GLL5        0.0000 
@<TRIPOS>BOND
@<TRIPOS>SUBSTRUCTURE
     1 ALC1       13 GROUP        1 X    ALC  0     ROOT ALC X 1
     2 SEC2       10 GROUP        1 X    SEC  0     **** SEC X 2
     3 GLC5        1 GROUP        1 X    GLC  0     **** GLC X 6
     4 ALP1       15 GROUP        1 Y    ALP  0     ROOT ALP Y 8
     5 SEP2       12 GROUP        1 Y    SEP  0     **** SEP Y 9
     6 GLP5        3 GROUP        1 Y    GLP  0     **** GLP Y 13
     7 ALL1       14 GROUP        1 Z    ALL  0     ROOT ALL Z 15
     8 SEL2       11 GROUP        1 Z    SEL  0     **** SEL Z 16
     9 GLL5        2 GROUP        1 Z    GLL  0     **** GLL Z 20
@<TRIPOS>SET

