#    Name: 3pqb_VGP_3_ligand
#    Modification time : Tue Mar 25 08:18:25 2014

@<TRIPOS>MOLECULE
3pqb_VGP_3_ligand
   62    66     1     0     0
SMALL
NO_CHARGES


@<TRIPOS>ATOM
      1 C          29.3150   -8.0520   95.0700 C.3       1 VGP500      0.0000 
      2 O          25.0900   -4.3590  106.6750 O.3       1 VGP500      0.0000 
      3 C01        23.9130   -7.9300  101.8810 C.ar      1 VGP500      0.0000 
      4 O01        28.3320   -5.8250  100.9650 O.3       1 VGP500      0.0000 
      5 C02        24.7470   -7.0990  102.6130 C.ar      1 VGP500      0.0000 
      6 O02        23.4620   -9.0950   99.9120 O.3       1 VGP500      0.0000 
      7 C03        25.9380   -6.6570  102.0760 C.ar      1 VGP500      0.0000 
      8 O03        25.0840   -9.0850   98.0150 O.3       1 VGP500      0.0000 
      9 C04        26.3450   -7.0430  100.7800 C.ar      1 VGP500      0.0000 
     10 O04        28.9120   -7.6880   96.3190 O.3       1 VGP500      0.0000 
     11 C05        25.5170   -7.8750  100.0440 C.ar      1 VGP500      0.0000 
     12 O05        30.4450   -5.1590  101.5220 O.3       1 VGP500      0.0000 
     13 C06        24.3020   -8.3010  100.6040 C.ar      1 VGP500      0.0000 
     14 O06        26.0530   -5.3040  103.9580 O.3       1 VGP500      0.0000 
     15 C07        27.5470   -6.6190  100.2080 C.ar      1 VGP500      0.0000 
     16 O07        28.4360   -6.8710  105.8600 O.3       1 VGP500      0.0000 
     17 C08        27.9350   -7.0020   98.9300 C.ar      1 VGP500      0.0000 
     18 O08        27.7700   -7.9790  103.1600 O.3       1 VGP500      0.0000 
     19 C09        27.0960   -7.8320   98.2130 C.ar      1 VGP500      0.0000 
     20 C10        25.9050   -8.2560   98.7560 C.ar      1 VGP500      0.0000 
     21 C11        29.5120   -5.2950  100.5520 C.3       1 VGP500      0.0000 
     22 C12        29.9540   -5.7050   99.2000 C.ar      1 VGP500      0.0000 
     23 C13        29.1690   -6.5280   98.4040 C.ar      1 VGP500      0.0000 
     24 C14        31.1570   -5.2180   98.7640 C.ar      1 VGP500      0.0000 
     25 C15        31.6210   -5.5520   97.5140 C.ar      1 VGP500      0.0000 
     26 C16        30.8740   -6.3830   96.6950 C.ar      1 VGP500      0.0000 
     27 C17        29.6470   -6.8750   97.1390 C.ar      1 VGP500      0.0000 
     28 C18        32.9480   -4.9940   97.0650 C.2       1 VGP500      0.0000 
     29 C19        33.3150   -3.5920   97.3860 C.2       1 VGP500      0.0000 
     30 C20        27.7560   -6.7180  103.6640 C.3       1 VGP500      0.0000 
     31 C21        26.8170   -5.8010  102.9500 C.3       1 VGP500      0.0000 
     32 C22        27.3390   -6.7600  105.0650 C.3       1 VGP500      0.0000 
     33 C23        26.5610   -5.5070  105.2220 C.3       1 VGP500      0.0000 
     34 C24        25.3510   -5.5650  106.1160 C.3       1 VGP500      0.0000 
     35 C25        25.5300   -6.5190  107.2030 C.3       1 VGP500      0.0000 
     36 C26        25.6260   -9.7620   96.9470 C.3       1 VGP500      0.0000 
     37 H          23.0321   -8.2609  102.2743 H         1 VGP500      0.0000 
     38 H          24.4718   -6.8107  103.5667 H         1 VGP500      0.0000 
     39 H          27.3668   -8.1359   97.2612 H         1 VGP500      0.0000 
     40 H          29.1924   -4.1180  100.3197 H         1 VGP500      0.0000 
     41 H          31.7184   -4.5987   99.3733 H         1 VGP500      0.0000 
     42 H          31.2197   -6.6387   95.7618 H         1 VGP500      0.0000 
     43 H          33.5719   -5.5750   96.5530 H         1 VGP500      0.0000 
     44 H          28.7500   -6.2497  103.6361 H         1 VGP500      0.0000 
     45 H          27.3376   -5.1082  102.3984 H         1 VGP500      0.0000 
     46 H          26.6444   -7.5936  105.1625 H         1 VGP500      0.0000 
     47 H          27.1949   -4.7059  105.5082 H         1 VGP500      0.0000 
     48 H          24.5051   -5.9075  105.5019 H         1 VGP500      0.0000 
     49 H          29.4426   -7.2585   94.4750 H         1 VGP500      0.0000 
     50 H          30.1839   -8.5465   95.0895 H         1 VGP500      0.0000 
     51 H          28.6481   -8.6488   94.6238 H         1 VGP500      0.0000 
     52 H          25.7315   -7.4372  106.8619 H         1 VGP500      0.0000 
     53 H          26.2842   -6.2581  107.8057 H         1 VGP500      0.0000 
     54 H          24.7112   -6.5911  107.7725 H         1 VGP500      0.0000 
     55 H          25.9999   -9.1367   96.2620 H         1 VGP500      0.0000 
     56 H          26.3708  -10.3665   97.2297 H         1 VGP500      0.0000 
     57 H          24.9462  -10.3311   96.4843 H         1 VGP500      0.0000 
     58 H          24.2645   -4.0334  106.2139 H         1 VGP500      0.0000 
     59 H          23.6470   -8.8917   98.9505 H         1 VGP500      0.0000 
     60 H          30.3546   -5.9806  102.0848 H         1 VGP500      0.0000 
     61 H          28.0760   -7.0726  106.7708 H         1 VGP500      0.0000 
     62 H          28.4930   -8.4512  103.6644 H         1 VGP500      0.0000 
@<TRIPOS>BOND
     1   10    1 1    
     2   49    1 1    
     3   50    1 1    
     4   51    1 1    
     5   34    2 1    
     6   58    2 1    
     7    5    3 ar   
     8   13    3 ar   
     9   37    3 1    
    10   15    4 1    
    11   21    4 1    
    12    7    5 ar   
    13   38    5 1    
    14   13    6 1    
    15   59    6 1    
    16    9    7 ar   
    17   31    7 1    
    18   20    8 1    
    19   36    8 1    
    20   11    9 ar   
    21   15    9 ar   
    22   27   10 1    
    23   13   11 ar   
    24   20   11 ar   
    25   21   12 1    
    26   60   12 1    
    27   31   14 1    
    28   33   14 1    
    29   17   15 ar   
    30   32   16 1    
    31   61   16 1    
    32   19   17 ar   
    33   23   17 1    
    34   30   18 1    
    35   62   18 1    
    36   20   19 ar   
    37   39   19 1    
    38   22   21 1    
    39   40   21 1    
    40   23   22 ar   
    41   24   22 ar   
    42   27   23 ar   
    43   25   24 ar   
    44   41   24 1    
    45   26   25 ar   
    46   28   25 1    
    47   27   26 ar   
    48   42   26 1    
    49   29   28 2    
    50   43   28 1    
    51   31   30 1    
    52   32   30 1    
    53   44   30 1    
    54   45   31 1    
    55   33   32 1    
    56   46   32 1    
    57   34   33 1    
    58   47   33 1    
    59   35   34 1    
    60   48   34 1    
    61   52   35 1    
    62   53   35 1    
    63   54   35 1    
    64   55   36 1    
    65   56   36 1    
    66   57   36 1    
@<TRIPOS>SUBSTRUCTURE
     1 VGP500      1 GROUP   
@<TRIPOS>SET

