#    Name: 1k4m_NAD_1_INTS_M
#    Modification time : Tue Mar 25 09:38:46 2014

@<TRIPOS>MOLECULE
1k4m_NAD_1_INTS_M
   85     0    12     0     0
SMALL
NO_CHARGES


@<TRIPOS>ATOM
      1 N          19.0225   27.4195    5.4130 N.am      2 SEC2        0.0000 
      2 N          20.4480   27.1400    5.3610 N.am     10 SEL2        0.0000 
      3 N          17.5970   27.6990    5.4650 N.am      6 SEP2        0.0000 
      4 N          19.4310   26.2700    6.0620 N.am      2 SEC2        0.0000 
      5 N          18.4140   25.4000    6.7630 N.am      6 SEP2        0.0000 
      6 N          21.0455   26.5345    2.4670 N.am      2 SEC2        0.0000 
      7 N          22.0780   27.0570    3.4880 N.am     10 SEL2        0.0000 
      8 N          20.0130   26.0120    1.4460 N.am      6 SEP2        0.0000 
      9 CA         22.7175   30.4695    8.2910 C.3       4 GLC5        0.0000 
     10 CA         22.0930   29.5440    6.3890 C.3      12 GLL5        0.0000 
     11 CA         23.3420   31.3950   10.1930 C.3       8 GLP5        0.0000 
     12 CA         20.1470   29.7135    6.3320 C.3       4 GLC5        0.0000 
     13 CA         18.2010   29.8830    6.2750 C.3       8 GLP5        0.0000 
     14 CA         21.1985   28.9360    8.0750 C.3       4 GLC5        0.0000 
     15 CA         20.3040   28.3280    9.7610 C.3       8 GLP5        0.0000 
     16 CA         23.1990   31.6070    7.9745 C.3       4 GLC5        0.0000 
     17 CA         23.2000   30.6070    6.4260 C.3      12 GLL5        0.0000 
     18 CA         23.1980   32.6070    9.5230 C.3       8 GLP5        0.0000 
     19 N          24.9920   33.3795    5.2115 N.am      2 SEC2        0.0000 
     20 N          23.6490   32.6910    5.2350 N.am     10 SEL2        0.0000 
     21 N          26.3350   34.0680    5.1880 N.am      6 SEP2        0.0000 
     22 O          22.5515   33.3285    5.7830 O.2       1 ALC1        0.0000 
     23 O          23.6490   32.6910    5.2350 O.2       9 ALL1        0.0000 
     24 O          21.4540   33.9660    6.3310 O.2       5 ALP1        0.0000 
     25 N          25.9960   32.7300    4.5490 N.am      2 SEC2        0.0000 
     26 N          25.6570   31.3920    3.9100 N.am     10 SEL2        0.0000 
     27 N          24.8875   31.9840    2.7720 N.am      2 SEC2        0.0000 
     28 N          24.1180   32.5760    1.6340 N.am      6 SEP2        0.0000 
     29 O          26.6775   31.0690    3.1405 O.2       1 ALC1        0.0000 
     30 O          25.6570   31.3920    3.9100 O.2       9 ALL1        0.0000 
     31 O          27.6980   30.7460    2.3710 O.2       5 ALP1        0.0000 
     32 O          31.4985   26.0030    7.1770 O.2       1 ALC1        0.0000 
     33 O          30.0130   26.4510    6.9960 O.2       9 ALL1        0.0000 
     34 O          32.9840   25.5550    7.3580 O.2       5 ALP1        0.0000 
     35 O          29.7530   25.1235    6.6385 O.2       1 ALC1        0.0000 
     36 O          29.4930   23.7960    6.2810 O.2       5 ALP1        0.0000 
     37 CA         29.8795   30.0595    9.6655 C.3       4 GLC5        0.0000 
     38 CA         29.6390   29.9500    7.5800 C.3      12 GLL5        0.0000 
     39 CA         30.1200   30.1690   11.7510 C.3       8 GLP5        0.0000 
     40 CA         30.0285   29.4390    5.6510 C.3       4 GLC5        0.0000 
     41 CA         30.4180   28.9280    3.7220 C.3       8 GLP5        0.0000 
     42 NZ         20.0525   27.4645    1.3150 N.4       3 LYC4        0.0000 
     43 NZ         20.0920   28.9170    1.1840 N.4      11 LYL4        0.0000 
     44 NZ         19.1730   25.0390    1.0870 N.4       7 LYP4        0.0000 
     45 N          19.3485   29.3750    0.0665 N.am      2 SEC2        0.0000 
     46 N          20.0920   28.9170    1.1840 N.am     10 SEL2        0.0000 
     47 N          18.6050   29.8330   -1.0510 N.am      6 SEP2        0.0000 
     48 N          20.0525   27.4645    1.3150 N.am      2 SEC2        0.0000 
     49 CA         18.8490   34.8680    4.7050 C.3       4 GLC5        0.0000 
     50 CA         19.2430   33.1020    3.5640 C.3      12 GLL5        0.0000 
     51 CA         18.4550   36.6340    5.8460 C.3       8 GLP5        0.0000 
     52 CA         19.8170   34.8080    2.4705 C.3       4 GLC5        0.0000 
     53 CA         20.3910   36.5140    1.3770 C.3       8 GLP5        0.0000 
     54 O          15.2950   31.6345    2.8430 O.2       1 ALC1        0.0000 
     55 O          15.7740   32.9490    2.3690 O.2       9 ALL1        0.0000 
     56 O          14.8160   30.3200    3.3170 O.2       5 ALP1        0.0000 
     57 CA         19.1630   35.2470    1.6040 C.3       4 GLC5        0.0000 
     58 CA         17.9350   33.9800    1.8310 C.3      12 GLL5        0.0000 
     59 CA         16.2805   36.5235    1.0955 C.3       4 GLC5        0.0000 
     60 CA         16.9130   34.9140   -0.2090 C.3      12 GLL5        0.0000 
     61 CA         15.6480   38.1330    2.4000 C.3       8 GLP5        0.0000 
     62 N          15.6305   37.3695   -4.0345 N.am      2 SEC2        0.0000 
     63 N          15.6000   36.1510   -3.3110 N.am     10 SEL2        0.0000 
     64 N          15.6610   38.5880   -4.7580 N.am      6 SEP2        0.0000 
     65 CA         18.8405   31.6465   -1.4515 C.3       4 GLC5        0.0000 
     66 CA         18.7420   33.3200   -0.5260 C.3      12 GLL5        0.0000 
     67 CA         18.9390   29.9730   -2.3770 C.3       8 GLP5        0.0000 
     68 CA         26.4415   32.0067    5.2570 C.3       4 GLC5        0.0000 
     69 CA         24.8820   30.5580    4.7610 C.3      12 GLL5        0.0000 
     70 CA         27.6780   33.5380    5.0610 C.3       8 GLP5        0.0000 
     71 CA         28.7503   26.8652    8.6940 C.3       4 GLC5        0.0000 
     72 CA         28.1370   27.9270    6.5980 C.3      12 GLL5        0.0000 
     73 CA         28.7010   25.9410   10.5700 C.3       8 GLP5        0.0000 
     74 CA         29.3344   28.7216    5.2427 C.3       4 GLC5        0.0000 
     75 CA         29.4620   27.6520    7.0380 C.3      12 GLL5        0.0000 
     76 CA         18.1505   33.0892    5.7353 C.3       4 GLC5        0.0000 
     77 CA         17.7790   32.6750    3.7750 C.3      12 GLL5        0.0000 
     78 CA         17.7900   33.2900    7.8010 C.3       8 GLP5        0.0000 
     79 CA         18.4809   31.2466    4.9686 C.3       4 GLC5        0.0000 
     80 CA         17.8165   36.5152   -2.6720 C.3       4 GLC5        0.0000 
     81 CA         16.7650   35.0740   -1.6490 C.3      12 GLL5        0.0000 
     82 CA         18.4210   38.3410   -3.2450 C.3       8 GLP5        0.0000 
     83 CA         17.9945   32.1070   -2.6190 C.3       4 GLC5        0.0000 
     84 CA         17.6590   34.3050   -2.5490 C.3      12 GLL5        0.0000 
     85 CA         17.8180   30.3630   -3.0320 C.3       8 GLP5        0.0000 
@<TRIPOS>BOND
@<TRIPOS>SUBSTRUCTURE
     1 ALC1       22 GROUP        1 X    ALC  0     ROOT ALC X 1
     2 SEC2        1 GROUP        1 X    SEC  0     **** SEC X 2
     3 LYC4       42 GROUP        1 X    LYC  0     **** LYC X 4
     4 GLC5        9 GROUP        1 X    GLC  0     **** GLC X 6
     5 ALP1       24 GROUP        1 Y    ALP  0     ROOT ALP Y 8
     6 SEP2        3 GROUP        1 Y    SEP  0     **** SEP Y 9
     7 LYP4       44 GROUP        1 Y    LYP  0     **** LYP Y 11
     8 GLP5       11 GROUP        1 Y    GLP  0     **** GLP Y 13
     9 ALL1       23 GROUP        1 Z    ALL  0     ROOT ALL Z 15
    10 SEL2        2 GROUP        1 Z    SEL  0     **** SEL Z 16
    11 LYL4       43 GROUP        1 Z    LYL  0     **** LYL Z 18
    12 GLL5       10 GROUP        1 Z    GLL  0     **** GLL Z 20
@<TRIPOS>SET

