#    Name: 1k4m_NAD_1_ligand
#    Modification time : Tue Mar 25 09:38:46 2014

@<TRIPOS>MOLECULE
1k4m_NAD_1_ligand
   70    74     1     0     0
SMALL
NO_CHARGES


@<TRIPOS>ATOM
      1 PA         21.3440   27.8750    4.4730 P.3       1 NAD601      0.0000 
      2 O1A        20.4480   27.1400    5.3610 O.co2     1 NAD601      0.0000 
      3 O2A        22.0780   27.0570    3.4880 O.co2     1 NAD601      0.0000 
      4 O5B        22.4860   28.6270    5.3260 O.3       1 NAD601      0.0000 
      5 C5B        22.0930   29.5440    6.3890 C.3       1 NAD601      0.0000 
      6 C4B        23.2000   30.6070    6.4260 C.3       1 NAD601      0.0000 
      7 O4B        24.4520   30.0870    6.9450 O.3       1 NAD601      0.0000 
      8 C3B        23.5600   31.2430    5.0810 C.3       1 NAD601      0.0000 
      9 O3B        23.6490   32.6910    5.2350 O.3       1 NAD601      0.0000 
     10 C2B        24.8820   30.5580    4.7610 C.3       1 NAD601      0.0000 
     11 O2B        25.6570   31.3920    3.9100 O.3       1 NAD601      0.0000 
     12 C1B        25.5280   30.3930    6.1450 C.3       1 NAD601      0.0000 
     13 N9A        26.4120   29.2410    6.2280 N.pl3     1 NAD601      0.0000 
     14 C8A        26.1240   27.9490    5.8570 C.2       1 NAD601      0.0000 
     15 N7A        27.1450   27.0960    6.0620 N.2       1 NAD601      0.0000 
     16 C5A        28.1370   27.9270    6.5980 C.ar      1 NAD601      0.0000 
     17 C6A        29.4620   27.6520    7.0380 C.ar      1 NAD601      0.0000 
     18 N6A        30.0130   26.4510    6.9960 N.pl3     1 NAD601      0.0000 
     19 N1A        30.2130   28.6960    7.5340 N.ar      1 NAD601      0.0000 
     20 C2A        29.6390   29.9500    7.5800 C.ar      1 NAD601      0.0000 
     21 N3A        28.3990   30.2860    7.1840 N.ar      1 NAD601      0.0000 
     22 C4A        27.7020   29.2410    6.7090 C.ar      1 NAD601      0.0000 
     23 O3         20.4490   29.0140    3.7590 O.3       1 NAD601      0.0000 
     24 PN         20.6940   29.6770    2.3070 P.3       1 NAD601      0.0000 
     25 O1N        20.0920   28.9170    1.1840 O.co2     1 NAD601      0.0000 
     26 O2N        22.1490   29.9150    2.1090 O.co2     1 NAD601      0.0000 
     27 O5D        19.8050   31.0150    2.5320 O.3       1 NAD601      0.0000 
     28 C5D        20.2420   31.9890    3.5350 C.3       1 NAD601      0.0000 
     29 C4D        19.2430   33.1020    3.5640 C.3       1 NAD601      0.0000 
     30 O4D        19.2790   33.8700    2.3170 O.3       1 NAD601      0.0000 
     31 C3D        17.7790   32.6750    3.7750 C.3       1 NAD601      0.0000 
     32 O3D        17.1130   33.5490    4.7020 O.3       1 NAD601      0.0000 
     33 C2D        17.1970   32.7900    2.3760 C.3       1 NAD601      0.0000 
     34 O2D        15.7740   32.9490    2.3690 O.3       1 NAD601      0.0000 
     35 C1D        17.9350   33.9800    1.8310 C.3       1 NAD601      0.0000 
     36 N1N        17.8770   34.0640    0.3630 N.pl3     1 NAD601      0.0000 
     37 C2N        16.9130   34.9140   -0.2090 C.ar      1 NAD601      0.0000 
     38 C3N        16.7650   35.0740   -1.6490 C.ar      1 NAD601      0.0000 
     39 C7N        15.6910   36.0220   -2.0830 C.2       1 NAD601      0.0000 
     40 O7N        15.6000   36.1510   -3.3110 O.2       1 NAD601      0.0000 
     41 N7N        14.8890   36.6930   -1.2160 N.am      1 NAD601      0.0000 
     42 C4N        17.6590   34.3050   -2.5490 C.ar      1 NAD601      0.0000 
     43 C5N        18.6830   33.3970   -1.8630 C.ar      1 NAD601      0.0000 
     44 C6N        18.7420   33.3200   -0.5260 C.ar      1 NAD601      0.0000 
     45 H          22.0612   29.0536    7.3423 H         1 NAD601      0.0000 
     46 H          21.1628   30.0300    6.1678 H         1 NAD601      0.0000 
     47 H          22.8723   31.4286    7.0854 H         1 NAD601      0.0000 
     48 H          22.8321   30.9344    4.3783 H         1 NAD601      0.0000 
     49 H          24.6759   29.6027    4.3703 H         1 NAD601      0.0000 
     50 H          25.9937   31.2854    6.4176 H         1 NAD601      0.0000 
     51 H          25.2449   27.6860    5.4767 H         1 NAD601      0.0000 
     52 H          30.9386   26.3783    7.3674 H         1 NAD601      0.0000 
     53 H          29.4542   25.7242    6.5967 H         1 NAD601      0.0000 
     54 H          30.2667   30.7407    7.9810 H         1 NAD601      0.0000 
     55 H          21.2197   32.3901    3.2775 H         1 NAD601      0.0000 
     56 H          20.2945   31.5273    4.5184 H         1 NAD601      0.0000 
     57 H          19.4929   33.7905    4.3875 H         1 NAD601      0.0000 
     58 H          17.7750   31.6579    4.0611 H         1 NAD601      0.0000 
     59 H          17.5288   31.9224    1.8255 H         1 NAD601      0.0000 
     60 H          17.4705   34.8725    2.2683 H         1 NAD601      0.0000 
     61 H          16.2755   35.4546    0.3985 H         1 NAD601      0.0000 
     62 H          14.2150   37.3076   -1.6258 H         1 NAD601      0.0000 
     63 H          15.0435   36.5131   -0.2445 H         1 NAD601      0.0000 
     64 H          17.6159   34.3579   -3.5063 H         1 NAD601      0.0000 
     65 H          19.2894   32.8792   -2.5018 H         1 NAD601      0.0000 
     66 H          19.4462   32.6918   -0.0527 H         1 NAD601      0.0000 
     67 H          23.0739   32.9029    6.0252 H         1 NAD601      0.0000 
     68 H          26.3450   30.7861    3.5106 H         1 NAD601      0.0000 
     69 H          16.2807   33.0611    4.9652 H         1 NAD601      0.0000 
     70 H          15.4109   32.0374    2.5616 H         1 NAD601      0.0000 
@<TRIPOS>BOND
     1    2    1 ar   
     2    3    1 ar   
     3    4    1 1    
     4   23    1 1    
     5    5    4 1    
     6    6    5 1    
     7   45    5 1    
     8   46    5 1    
     9    7    6 1    
    10    8    6 1    
    11   47    6 1    
    12   12    7 1    
    13    9    8 1    
    14   10    8 1    
    15   48    8 1    
    16   67    9 1    
    17   11   10 1    
    18   12   10 1    
    19   49   10 1    
    20   68   11 1    
    21   13   12 1    
    22   50   12 1    
    23   14   13 1    
    24   22   13 1    
    25   15   14 2    
    26   51   14 1    
    27   16   15 1    
    28   17   16 ar   
    29   22   16 ar   
    30   18   17 1    
    31   19   17 ar   
    32   52   18 1    
    33   53   18 1    
    34   20   19 ar   
    35   21   20 ar   
    36   54   20 1    
    37   22   21 ar   
    38   24   23 1    
    39   25   24 ar   
    40   26   24 ar   
    41   27   24 1    
    42   28   27 1    
    43   29   28 1    
    44   55   28 1    
    45   56   28 1    
    46   30   29 1    
    47   31   29 1    
    48   57   29 1    
    49   35   30 1    
    50   32   31 1    
    51   33   31 1    
    52   58   31 1    
    53   69   32 1    
    54   34   33 1    
    55   35   33 1    
    56   59   33 1    
    57   70   34 1    
    58   36   35 1    
    59   60   35 1    
    60   37   36 ar   
    61   44   36 ar   
    62   38   37 ar   
    63   61   37 1    
    64   39   38 1    
    65   42   38 ar   
    66   40   39 2    
    67   41   39 am   
    68   62   41 1    
    69   63   41 1    
    70   43   42 ar   
    71   64   42 1    
    72   44   43 ar   
    73   65   43 1    
    74   66   44 1    
@<TRIPOS>SUBSTRUCTURE
     1 NAD601      1 GROUP   
@<TRIPOS>SET

