#    Name: 3vet_ADP_2_INTS_M
#    Modification time : Tue Mar 25 00:42:36 2014

@<TRIPOS>MOLECULE
3vet_ADP_2_INTS_M
   68     0    12     0     0
SMALL
NO_CHARGES


@<TRIPOS>ATOM
      1 N          12.3650   29.3215   10.9700 N.am      2 SEC2        0.0000 
      2 N          12.4860   28.8120   12.2010 N.am     10 SEL2        0.0000 
      3 N          12.2440   29.8310    9.7390 N.am      6 SEP2        0.0000 
      4 N          11.3160   28.4650   11.4865 N.am      2 SEC2        0.0000 
      5 N          10.1460   28.1180   10.7720 N.am      6 SEP2        0.0000 
      6 N          14.2830   26.9120   14.7850 N.am      2 SEC2        0.0000 
      7 N          13.1490   27.2160   14.0340 N.am     10 SEL2        0.0000 
      8 N          15.4170   26.6080   15.5360 N.am      6 SEP2        0.0000 
      9 Zn         12.0075   30.5095   14.6835 Zn        3 ZIC7        0.0000 
     10 Zn         12.0550   29.3960   14.6320 Zn       11 ZIL7        0.0000 
     11 Zn         11.9600   31.6230   14.7350 Zn        7 ZIP7        0.0000 
     12 N          12.8965   29.3055   15.7470 N.am      2 SEC2        0.0000 
     13 N          12.0550   29.3960   14.6320 N.am     10 SEL2        0.0000 
     14 N          13.7380   29.2150   16.8620 N.am      6 SEP2        0.0000 
     15 Zn         12.8375   31.7260   14.1720 Zn        3 ZIC7        0.0000 
     16 Zn         13.7150   31.8290   13.6090 Zn       11 ZIL7        0.0000 
     17 N          14.2845   32.9615   12.6225 N.am      2 SEC2        0.0000 
     18 N          13.7150   31.8290   13.6090 N.am     10 SEL2        0.0000 
     19 N          14.8540   34.0940   11.6360 N.am      6 SEP2        0.0000 
     20 N          16.1480   31.8930   15.3365 N.am      2 SEC2        0.0000 
     21 N          16.1450   31.0200   14.1460 N.am     10 SEL2        0.0000 
     22 N          16.1510   32.7660   16.5270 N.am      6 SEP2        0.0000 
     23 CA         15.2050   29.1520    7.3955 C.3       4 GLC5        0.0000 
     24 CA         16.5460   28.7130    9.0730 C.3      12 GLL5        0.0000 
     25 CA         13.8640   29.5910    5.7180 C.3       8 GLP5        0.0000 
     26 O          15.9800   26.7425    8.3060 O.2       1 ALC1        0.0000 
     27 O          15.5580   28.0620    8.2630 O.2       9 ALL1        0.0000 
     28 O          16.4020   25.4230    8.3490 O.2       5 ALP1        0.0000 
     29 CA         19.7100   29.4505    7.9255 C.3       4 GLC5        0.0000 
     30 CA         17.6120   29.3810    8.2180 C.3      12 GLL5        0.0000 
     31 CA         21.8080   29.5200    7.6330 C.3       8 GLP5        0.0000 
     32 O          16.5520   28.3860    6.0605 O.2       1 ALC1        0.0000 
     33 O          17.6330   28.8990    6.8620 O.2       9 ALL1        0.0000 
     34 O          15.4710   27.8730    5.2590 O.2       5 ALP1        0.0000 
     35 CA         15.5470   30.2250    6.9990 C.3       4 GLC5        0.0000 
     36 CA         17.2300   30.8590    8.2800 C.3      12 GLL5        0.0000 
     37 CA         16.7055   32.2935    9.7185 C.3       4 GLC5        0.0000 
     38 CA         16.1810   33.7280   11.1570 C.3       8 GLP5        0.0000 
     39 CA         15.7660   32.0125    7.3790 C.3       4 GLC5        0.0000 
     40 CA         14.3020   33.1660    6.4780 C.3       8 GLP5        0.0000 
     41 CA         20.2595   34.4415    8.5215 C.3       4 GLC5        0.0000 
     42 CA         19.9760   32.9470    7.0550 C.3      12 GLL5        0.0000 
     43 CA         20.5430   35.9360    9.9880 C.3       8 GLP5        0.0000 
     44 CA         19.9105   35.4330    5.2050 C.3       4 GLC5        0.0000 
     45 CA         20.4900   33.7260    5.9090 C.3      12 GLL5        0.0000 
     46 CA         19.3310   37.1400    4.5010 C.3       8 GLP5        0.0000 
     47 N          19.9950   34.6920    3.8395 N.am      2 SEC2        0.0000 
     48 N          19.7160   33.7820    4.8060 N.am     10 SEL2        0.0000 
     49 N          20.2740   35.6020    2.8730 N.am      6 SEP2        0.0000 
     50 CA         17.9630   31.4890    3.6880 C.3       4 GLC5        0.0000 
     51 CA         18.5210   33.1620    4.7280 C.3      12 GLL5        0.0000 
     52 CA         17.4050   29.8160    2.6480 C.3       8 GLP5        0.0000 
     53 CA         17.8085   34.0690    3.1795 C.3       4 GLC5        0.0000 
     54 CA         17.0960   34.9760    1.6310 C.3       8 GLP5        0.0000 
     55 CA         16.7075   34.2185    4.9940 C.3       4 GLC5        0.0000 
     56 CA         14.8940   35.2750    5.2600 C.3       8 GLP5        0.0000 
     57 CA         18.9260   35.1510    4.6145 C.3       4 GLC5        0.0000 
     58 CA         17.2545   33.5640    7.2185 C.3       4 GLC5        0.0000 
     59 CA         18.6740   32.2960    6.8900 C.3      12 GLL5        0.0000 
     60 CA         15.8350   34.8320    7.5470 C.3       8 GLP5        0.0000 
     61 CA         13.9078   29.1052    9.9108 C.3       4 GLC5        0.0000 
     62 CA         15.8770   29.8690    9.8000 C.3      12 GLL5        0.0000 
     63 CA         12.0160   28.4730    9.2780 C.3       8 GLP5        0.0000 
     64 CA         15.9902   31.7328   10.8503 C.3       4 GLC5        0.0000 
     65 CA         17.6945   27.2355    7.7893 C.3       4 GLC5        0.0000 
     66 CA         18.3100   25.4240    6.9330 C.3       8 GLP5        0.0000 
     67 CA         20.5553   31.2216    6.4040 C.3       4 GLC5        0.0000 
     68 CA         21.6570   29.6270    6.1220 C.3       8 GLP5        0.0000 
@<TRIPOS>BOND
@<TRIPOS>SUBSTRUCTURE
     1 ALC1       26 GROUP        1 X    ALC  0     ROOT ALC X 1
     2 SEC2        1 GROUP        1 X    SEC  0     **** SEC X 2
     3 ZIC7        9 GROUP        1 X    ZIC  0     **** ZIC X 5
     4 GLC5       23 GROUP        1 X    GLC  0     **** GLC X 6
     5 ALP1       28 GROUP        1 Y    ALP  0     ROOT ALP Y 8
     6 SEP2        3 GROUP        1 Y    SEP  0     **** SEP Y 9
     7 ZIP7       11 GROUP        1 Y    ZIP  0     **** ZIP Y 12
     8 GLP5       25 GROUP        1 Y    GLP  0     **** GLP Y 13
     9 ALL1       27 GROUP        1 Z    ALL  0     ROOT ALL Z 15
    10 SEL2        2 GROUP        1 Z    SEL  0     **** SEL Z 16
    11 ZIL7       10 GROUP        1 Z    ZIL  0     **** ZIL Z 19
    12 GLL5       24 GROUP        1 Z    GLL  0     **** GLL Z 20
@<TRIPOS>SET

