#    Name: 3vet_ADP_2_ligand
#    Modification time : Tue Mar 25 00:42:36 2014

@<TRIPOS>MOLECULE
3vet_ADP_2_ligand
   39    41     1     0     0
SMALL
NO_CHARGES


@<TRIPOS>ATOM
      1 PB         12.9090   28.6520   13.6310 P.3       1 ADP603      0.0000 
      2 O1B        12.4860   28.8120   12.2010 O.co2     1 ADP603      0.0000 
      3 O2B        13.1490   27.2160   14.0340 O.co2     1 ADP603      0.0000 
      4 O3B        12.0550   29.3960   14.6320 O.co2     1 ADP603      0.0000 
      5 PA         14.8370   30.8310   13.4320 P.3       1 ADP603      0.0000 
      6 O1A        13.7150   31.8290   13.6090 O.co2     1 ADP603      0.0000 
      7 O2A        16.1450   31.0200   14.1460 O.co2     1 ADP603      0.0000 
      8 O3A        14.3790   29.3170   13.7430 O.3       1 ADP603      0.0000 
      9 O5'        15.1970   30.7920   11.8700 O.3       1 ADP603      0.0000 
     10 C5'        15.7220   29.6060   11.2870 C.3       1 ADP603      0.0000 
     11 C4'        15.8770   29.8690    9.8000 C.3       1 ADP603      0.0000 
     12 O4'        16.6920   31.0250    9.5760 O.3       1 ADP603      0.0000 
     13 C3'        16.5460   28.7130    9.0730 C.3       1 ADP603      0.0000 
     14 O3'        15.5580   28.0620    8.2630 O.3       1 ADP603      0.0000 
     15 C2'        17.6120   29.3810    8.2180 C.3       1 ADP603      0.0000 
     16 O2'        17.6330   28.8990    6.8620 O.3       1 ADP603      0.0000 
     17 C1'        17.2300   30.8590    8.2800 C.3       1 ADP603      0.0000 
     18 N9         18.4300   31.6730    8.0380 N.pl3     1 ADP603      0.0000 
     19 C8         19.4610   31.8700    8.8790 C.2       1 ADP603      0.0000 
     20 N7         20.4080   32.6450    8.2920 N.2       1 ADP603      0.0000 
     21 C5         19.9760   32.9470    7.0550 C.ar      1 ADP603      0.0000 
     22 C6         20.4900   33.7260    5.9090 C.ar      1 ADP603      0.0000 
     23 N6         21.6890   34.3550    5.9730 N.pl3     1 ADP603      0.0000 
     24 N1         19.7160   33.7820    4.8060 N.ar      1 ADP603      0.0000 
     25 C2         18.5210   33.1620    4.7280 C.ar      1 ADP603      0.0000 
     26 N3         17.9960   32.4290    5.7220 N.ar      1 ADP603      0.0000 
     27 C4         18.6740   32.2960    6.8900 C.ar      1 ADP603      0.0000 
     28 H          15.0527   28.7583   11.4129 H         1 ADP603      0.0000 
     29 H          16.6995   29.3513   11.6895 H         1 ADP603      0.0000 
     30 H          14.8966   30.0134    9.3640 H         1 ADP603      0.0000 
     31 H          17.0002   28.0864    9.7785 H         1 ADP603      0.0000 
     32 H          18.5528   29.2730    8.7184 H         1 ADP603      0.0000 
     33 H          16.4933   31.0220    7.5210 H         1 ADP603      0.0000 
     34 H          19.5255   31.5093    9.7853 H         1 ADP603      0.0000 
     35 H          22.1818   34.2756    6.8395 H         1 ADP603      0.0000 
     36 H          21.9746   34.8428    5.1481 H         1 ADP603      0.0000 
     37 H          17.9625   33.2616    3.8223 H         1 ADP603      0.0000 
     38 H          15.7987   27.0918    8.2912 H         1 ADP603      0.0000 
     39 H          16.6926   28.6159    6.6735 H         1 ADP603      0.0000 
@<TRIPOS>BOND
     1    2    1 ar   
     2    3    1 ar   
     3    4    1 ar   
     4    8    1 1    
     5    6    5 ar   
     6    7    5 ar   
     7    8    5 1    
     8    9    5 1    
     9   10    9 1    
    10   11   10 1    
    11   28   10 1    
    12   29   10 1    
    13   12   11 1    
    14   13   11 1    
    15   30   11 1    
    16   17   12 1    
    17   14   13 1    
    18   15   13 1    
    19   31   13 1    
    20   38   14 1    
    21   16   15 1    
    22   17   15 1    
    23   32   15 1    
    24   39   16 1    
    25   18   17 1    
    26   33   17 1    
    27   19   18 1    
    28   27   18 1    
    29   20   19 2    
    30   34   19 1    
    31   21   20 1    
    32   22   21 ar   
    33   27   21 ar   
    34   23   22 1    
    35   24   22 ar   
    36   35   23 1    
    37   36   23 1    
    38   25   24 ar   
    39   26   25 ar   
    40   37   25 1    
    41   27   26 ar   
@<TRIPOS>SUBSTRUCTURE
     1 ADP603      1 GROUP   
@<TRIPOS>SET

