#    Name: 3qd3_3Q5_1_INTS_M
#    Modification time : Tue Mar 25 09:39:49 2014

@<TRIPOS>MOLECULE
3qd3_3Q5_1_INTS_M
   91     0     9     0     0
SMALL
NO_CHARGES


@<TRIPOS>ATOM
      1 CA        -43.3395   15.1020   13.7315 C.3       3 GLC5        0.0000 
      2 CA        -42.8460   15.0070   11.6940 C.3       9 GLL5        0.0000 
      3 CA        -43.8330   15.1970   15.7690 C.3       6 GLP5        0.0000 
      4 CA        -42.7240   13.4595   13.2255 C.3       3 GLC5        0.0000 
      5 CA        -42.6020   11.9120   14.7570 C.3       6 GLP5        0.0000 
      6 CA        -44.7845   14.1925   11.9630 C.3       3 GLC5        0.0000 
      7 CA        -46.7230   13.3780   12.2320 C.3       6 GLP5        0.0000 
      8 CA        -47.1780   18.1860   12.3315 C.3       3 GLC5        0.0000 
      9 CA        -45.6630   18.8970   11.5510 C.3       9 GLL5        0.0000 
     10 CA        -48.6930   17.4750   13.1120 C.3       6 GLP5        0.0000 
     11 CA        -45.7790   19.3155    9.3965 C.3       3 GLC5        0.0000 
     12 CA        -45.8950   19.7340    7.2420 C.3       6 GLP5        0.0000 
     13 CA        -39.8010   13.7915   14.7585 C.3       3 GLC5        0.0000 
     14 CA        -39.5730   14.0880   12.7780 C.3       9 GLL5        0.0000 
     15 CA        -40.0290   13.4950   16.7390 C.3       6 GLP5        0.0000 
     16 CA        -38.8725   12.4020   13.8255 C.3       3 GLC5        0.0000 
     17 CA        -38.1720   10.7160   14.8730 C.3       6 GLP5        0.0000 
     18 CA        -38.6100   13.0160   11.1350 C.3       3 GLC5        0.0000 
     19 CA        -37.6470   11.9440    9.4920 C.3       6 GLP5        0.0000 
     20 CA        -47.4685   17.2065   11.8225 C.3       3 GLC5        0.0000 
     21 CA        -46.2440   16.9380   10.5330 C.3       9 GLL5        0.0000 
     22 CA        -46.4835   15.1580   11.3825 C.3       3 GLC5        0.0000 
     23 CA        -44.6405   16.9085    9.2380 C.3       3 GLC5        0.0000 
     24 CA        -43.0370   16.8790    7.9430 C.3       6 GLP5        0.0000 
     25 CA        -46.5540   17.7445    8.8540 C.3       3 GLC5        0.0000 
     26 CA        -46.8640   18.5510    7.1750 C.3       6 GLP5        0.0000 
     27 CA        -44.7590   22.2945   15.5260 C.3       3 GLC5        0.0000 
     28 CA        -45.6190   21.7220   13.6720 C.3       9 GLL5        0.0000 
     29 CA        -43.8990   22.8670   17.3800 C.3       6 GLP5        0.0000 
     30 CA        -46.4580   20.3320    9.2470 C.3       3 GLC5        0.0000 
     31 CA        -47.0210   20.9300   11.2520 C.3       9 GLL5        0.0000 
     32 CA        -52.7950   23.1250   14.7990 C.3       3 GLC5        0.0000 
     33 CA        -52.8060   21.8810   13.4010 C.3       9 GLL5        0.0000 
     34 CA        -52.7840   24.3690   16.1970 C.3       6 GLP5        0.0000 
     35 CA        -51.4675   21.0820   14.9800 C.3       3 GLC5        0.0000 
     36 CA        -50.1290   20.2830   16.5590 C.3       6 GLP5        0.0000 
     37 CA        -53.0670   20.2960   14.3975 C.3       3 GLC5        0.0000 
     38 CA        -53.3280   18.7110   15.3940 C.3       6 GLP5        0.0000 
     39 CA        -54.6055   20.7550   13.3070 C.3       3 GLC5        0.0000 
     40 CA        -56.4050   19.6290   13.2130 C.3       6 GLP5        0.0000 
     41 CA        -55.3670   23.7660   12.3255 C.3       3 GLC5        0.0000 
     42 CA        -53.3910   23.2460   11.4280 C.3       9 GLL5        0.0000 
     43 CA        -57.3430   24.2860   13.2230 C.3       6 GLP5        0.0000 
     44 CA        -54.7010   22.8245   10.1545 C.3       3 GLC5        0.0000 
     45 CA        -56.0110   22.4030    8.8810 C.3       6 GLP5        0.0000 
     46 CA        -54.4530   21.6310    9.9975 C.3       3 GLC5        0.0000 
     47 CA        -52.8950   20.8590   11.1140 C.3       9 GLL5        0.0000 
     48 CA        -54.6690   19.6730   11.0530 C.3       3 GLC5        0.0000 
     49 CA        -56.4430   18.4870   10.9920 C.3       6 GLP5        0.0000 
     50 CA        -52.8370   20.4225    9.0745 C.3       3 GLC5        0.0000 
     51 CA        -52.7790   19.9860    7.0350 C.3       6 GLP5        0.0000 
     52 N         -44.9670   15.8180    9.5945 N.am      2 SEC2        0.0000 
     53 N         -45.0780   16.3410   10.8320 N.am      8 SEL2        0.0000 
     54 N         -44.8560   15.2950    8.3570 N.am      5 SEP2        0.0000 
     55 N         -47.9345   18.1525   11.3795 N.am      2 SEC2        0.0000 
     56 N         -46.5750   18.1870   10.8750 N.am      8 SEL2        0.0000 
     57 N         -49.2940   18.1180   11.8840 N.am      5 SEP2        0.0000 
     58 O         -37.2415   13.4685   12.5920 O.2       1 ALC1        0.0000 
     59 O         -38.3390   14.3720   13.2870 O.2       7 ALL1        0.0000 
     60 O         -36.1440   12.5650   11.8970 O.2       4 ALP1        0.0000 
     61 O         -48.4905   16.7405    9.3880 O.2       1 ALC1        0.0000 
     62 O         -47.2060   16.2170    9.8180 O.2       7 ALL1        0.0000 
     63 O         -49.7750   17.2640    8.9580 O.2       4 ALP1        0.0000 
     64 O         -46.0310   15.7560    9.0875 O.2       1 ALC1        0.0000 
     65 O         -44.8560   15.2950    8.3570 O.2       4 ALP1        0.0000 
     66 N         -49.9165   20.6300   14.1185 N.am      2 SEC2        0.0000 
     67 N         -50.4770   20.5740   12.7930 N.am      8 SEL2        0.0000 
     68 N         -49.3560   20.6860   15.4440 N.am      5 SEP2        0.0000 
     69 N         -49.8855   19.3460   12.3385 N.am      2 SEC2        0.0000 
     70 CA        -40.2413   15.8852   14.7570 C.3       3 GLC5        0.0000 
     71 CA        -40.6660   16.4550   12.7750 C.3       9 GLL5        0.0000 
     72 CA        -39.8630   16.0020   16.8380 C.3       6 GLP5        0.0000 
     73 CA        -40.6298   15.9660   10.9115 C.3       3 GLC5        0.0000 
     74 CA        -39.9970   15.1760    9.2250 C.3       6 GLP5        0.0000 
     75 CA        -43.7387   17.0210   13.7022 C.3       3 GLC5        0.0000 
     76 CA        -41.8590   17.0570   12.4210 C.3       9 GLL5        0.0000 
     77 CA        -45.0800   17.3280   15.2500 C.3       6 GLP5        0.0000 
     78 CA        -41.4440   15.4325   10.5080 C.3       3 GLC5        0.0000 
     79 CA        -42.9360   16.3710   11.8880 C.3       9 GLL5        0.0000 
     80 CA        -42.9640   16.2840    9.8670 C.3       3 GLC5        0.0000 
     81 CA        -43.6730   17.2918    9.8287 C.3       3 GLC5        0.0000 
     82 CA        -44.4420   18.3530   11.9070 C.3       9 GLL5        0.0000 
     83 CA        -41.3375   13.2485   13.7172 C.3       3 GLC5        0.0000 
     84 CA        -40.5730   15.0820   12.5770 C.3       9 GLL5        0.0000 
     85 CA        -40.0350   14.8805   10.9512 C.3       3 GLC5        0.0000 
     86 CA        -45.0330   17.8144   13.4414 C.3       3 GLC5        0.0000 
     87 CA        -44.1760   17.0560   11.5220 C.3       9 GLL5        0.0000 
     88 CA        -46.4513   23.5660   14.6967 C.3       3 GLC5        0.0000 
     89 CA        -46.6730   25.0350   15.9840 C.3       6 GLP5        0.0000 
     90 CA        -48.0475   19.3515   12.4743 C.3       3 GLC5        0.0000 
     91 CA        -47.7830   21.5260   12.4210 C.3       9 GLL5        0.0000 
@<TRIPOS>BOND
@<TRIPOS>SUBSTRUCTURE
     1 ALC1       58 GROUP        1 X    ALC  0     ROOT ALC X 1
     2 SEC2       52 GROUP        1 X    SEC  0     **** SEC X 2
     3 GLC5        1 GROUP        1 X    GLC  0     **** GLC X 6
     4 ALP1       60 GROUP        1 Y    ALP  0     ROOT ALP Y 8
     5 SEP2       54 GROUP        1 Y    SEP  0     **** SEP Y 9
     6 GLP5        3 GROUP        1 Y    GLP  0     **** GLP Y 13
     7 ALL1       59 GROUP        1 Z    ALL  0     ROOT ALL Z 15
     8 SEL2       53 GROUP        1 Z    SEL  0     **** SEL Z 16
     9 GLL5        2 GROUP        1 Z    GLL  0     **** GLL Z 20
@<TRIPOS>SET

