#    Name: 3qd3_3Q5_1_ligand
#    Modification time : Tue Mar 25 09:39:49 2014

@<TRIPOS>MOLECULE
3qd3_3Q5_1_ligand
   62    65     1     0     0
SMALL
NO_CHARGES


@<TRIPOS>ATOM
      1 C1        -40.6660   16.4550   12.7750 C.ar      1 3Q5360      0.0000 
      2 C2        -41.8590   17.0570   12.4210 C.ar      1 3Q5360      0.0000 
      3 C3        -42.8460   15.0070   11.6940 C.ar      1 3Q5360      0.0000 
      4 C4        -44.4420   18.3530   11.9070 C.ar      1 3Q5360      0.0000 
      5 C5        -40.5730   15.0820   12.5770 C.ar      1 3Q5360      0.0000 
      6 C6        -42.9360   16.3710   11.8880 C.ar      1 3Q5360      0.0000 
      7 C7        -41.6550   14.4070   12.0490 C.ar      1 3Q5360      0.0000 
      8 C8        -44.1760   17.0560   11.5220 C.ar      1 3Q5360      0.0000 
      9 C9        -45.6630   18.8970   11.5510 C.ar      1 3Q5360      0.0000 
     10 C10       -39.5730   14.0880   12.7780 C.2       1 3Q5360      0.0000 
     11 C11       -46.2440   16.9380   10.5330 C.ar      1 3Q5360      0.0000 
     12 C12       -50.2420   21.6380   12.2420 C.2       1 3Q5360      0.0000 
     13 C13       -46.8400   22.4720   13.1470 C.3       1 3Q5360      0.0000 
     14 C14       -45.6190   21.7220   13.6720 C.3       1 3Q5360      0.0000 
     15 C15       -47.0210   20.9300   11.2520 C.3       1 3Q5360      0.0000 
     16 C16       -47.7830   21.5260   12.4210 C.3       1 3Q5360      0.0000 
     17 C17       -44.9120   20.9990   12.5490 C.3       1 3Q5360      0.0000 
     18 C18       -44.3720   22.0000   11.5600 C.3       1 3Q5360      0.0000 
     19 C19       -52.8060   21.8810   13.4010 C.3       1 3Q5360      0.0000 
     20 C20       -53.3910   23.2460   11.4280 C.3       1 3Q5360      0.0000 
     21 C21       -52.8950   20.8590   11.1140 C.3       1 3Q5360      0.0000 
     22 C22       -52.5490   22.0890   11.9220 C.3       1 3Q5360      0.0000 
     23 N23       -45.0780   16.3410   10.8320 N.ar      1 3Q5360      0.0000 
     24 N24       -46.5750   18.1870   10.8750 N.ar      1 3Q5360      0.0000 
     25 N25       -40.0080   12.8800   12.3970 N.pl3     1 3Q5360      0.0000 
     26 N26       -41.2670   13.0950   11.9680 N.2       1 3Q5360      0.0000 
     27 N27       -45.9870   20.2100   11.9740 N.3       1 3Q5360      0.0000 
     28 N28       -38.3390   14.3720   13.2870 N.pl3     1 3Q5360      0.0000 
     29 N29       -47.2060   16.2170    9.8180 N.pl3     1 3Q5360      0.0000 
     30 N30       -49.0020   22.2040   12.0420 N.am      1 3Q5360      0.0000 
     31 O31       -50.4770   20.5740   12.7930 O.2       1 3Q5360      0.0000 
     32 O32       -51.1890   22.4510   11.7000 O.3       1 3Q5360      0.0000 
     33 H         -39.8980   16.9828   13.1586 H         1 3Q5360      0.0000 
     34 H         -41.9543   18.0994   12.5653 H         1 3Q5360      0.0000 
     35 H         -43.6135   14.4752   11.3114 H         1 3Q5360      0.0000 
     36 H         -43.7630   18.8946   12.4363 H         1 3Q5360      0.0000 
     37 H         -46.5129   23.2537   12.4621 H         1 3Q5360      0.0000 
     38 H         -47.3634   22.9340   13.9835 H         1 3Q5360      0.0000 
     39 H         -45.9402   21.0029   14.4260 H         1 3Q5360      0.0000 
     40 H         -44.9364   22.4342   14.1364 H         1 3Q5360      0.0000 
     41 H         -46.6196   21.7111   10.6665 H         1 3Q5360      0.0000 
     42 H         -47.6574   20.2759   10.7217 H         1 3Q5360      0.0000 
     43 H         -48.0005   20.7068   13.1204 H         1 3Q5360      0.0000 
     44 H         -44.1590   20.3949   12.9478 H         1 3Q5360      0.0000 
     45 H         -39.5419   12.0601   12.4214 H         1 3Q5360      0.0000 
     46 H         -37.5939   13.7723   12.9951 H         1 3Q5360      0.0000 
     47 H         -38.2883   15.1549   13.9071 H         1 3Q5360      0.0000 
     48 H         -46.8568   15.5428    9.1671 H         1 3Q5360      0.0000 
     49 H         -48.1605   16.4376   10.0190 H         1 3Q5360      0.0000 
     50 H         -48.9101   23.1403   11.6101 H         1 3Q5360      0.0000 
     51 H         -43.7213   22.6288   11.9857 H         1 3Q5360      0.0000 
     52 H         -43.8956   21.5537   10.8024 H         1 3Q5360      0.0000 
     53 H         -45.0999   22.5575   11.1608 H         1 3Q5360      0.0000 
     54 H         -52.2656   21.1243   13.7690 H         1 3Q5360      0.0000 
     55 H         -52.5749   22.6936   13.9360 H         1 3Q5360      0.0000 
     56 H         -53.7664   21.6721   13.5853 H         1 3Q5360      0.0000 
     57 H         -53.1747   24.0951   11.9099 H         1 3Q5360      0.0000 
     58 H         -53.2501   23.4182   10.4531 H         1 3Q5360      0.0000 
     59 H         -54.3679   23.0762   11.5574 H         1 3Q5360      0.0000 
     60 H         -52.7215   20.9945   10.1385 H         1 3Q5360      0.0000 
     61 H         -52.3592   20.0644   11.3993 H         1 3Q5360      0.0000 
     62 H         -53.8593   20.6116   11.2086 H         1 3Q5360      0.0000 
@<TRIPOS>BOND
     1    2    1 ar   
     2    5    1 ar   
     3   33    1 1    
     4    6    2 ar   
     5   34    2 1    
     6    6    3 ar   
     7    7    3 ar   
     8   35    3 1    
     9    8    4 ar   
    10    9    4 ar   
    11   36    4 1    
    12    7    5 ar   
    13   10    5 2    
    14    8    6 1    
    15   26    7 2    
    16   23    8 ar   
    17   24    9 ar   
    18   27    9 1    
    19   25   10 1    
    20   28   10 1    
    21   23   11 ar   
    22   24   11 ar   
    23   29   11 1    
    24   30   12 am   
    25   31   12 2    
    26   32   12 1    
    27   14   13 1    
    28   16   13 1    
    29   37   13 1    
    30   38   13 1    
    31   17   14 1    
    32   39   14 1    
    33   40   14 1    
    34   16   15 1    
    35   27   15 1    
    36   41   15 1    
    37   42   15 1    
    38   30   16 1    
    39   43   16 1    
    40   18   17 1    
    41   27   17 1    
    42   44   17 1    
    43   51   18 1    
    44   52   18 1    
    45   53   18 1    
    46   22   19 1    
    47   54   19 1    
    48   55   19 1    
    49   56   19 1    
    50   22   20 1    
    51   57   20 1    
    52   58   20 1    
    53   59   20 1    
    54   22   21 1    
    55   60   21 1    
    56   61   21 1    
    57   62   21 1    
    58   32   22 1    
    59   26   25 1    
    60   45   25 1    
    61   46   28 1    
    62   47   28 1    
    63   48   29 1    
    64   49   29 1    
    65   50   30 1    
@<TRIPOS>SUBSTRUCTURE
     1 3Q5360      1 GROUP   
@<TRIPOS>SET

