#    Name: 4lsm_NAD_2_INTS_M
#    Modification time : Tue Apr  8 00:08:44 2014

@<TRIPOS>MOLECULE
4lsm_NAD_2_INTS_M
   76     0     9     0     0
SMALL
NO_CHARGES


@<TRIPOS>ATOM
      1 N          42.9130   55.4375   42.2165 N.am      2 SEC2        0.0000 
      2 N          44.2870   55.1250   42.5300 N.am      8 SEL2        0.0000 
      3 N          41.5390   55.7500   41.9030 N.am      5 SEP2        0.0000 
      4 CA         41.5410   51.0900   46.3050 C.3       3 GLC5        0.0000 
      5 CA         43.2580   52.1490   45.9250 C.3       9 GLL5        0.0000 
      6 CA         39.8240   50.0310   46.6850 C.3       6 GLP5        0.0000 
      7 O          41.7710   53.6185   47.9665 O.2       1 ALC1        0.0000 
      8 O          42.7390   54.2020   47.1750 O.2       7 ALL1        0.0000 
      9 O          40.8030   53.0350   48.7580 O.2       4 ALP1        0.0000 
     10 O          42.5180   53.1545   49.0175 O.2       1 ALC1        0.0000 
     11 O          44.2330   53.2740   49.2770 O.2       7 ALL1        0.0000 
     12 O          43.1105   53.2390   49.9365 O.2       1 ALC1        0.0000 
     13 O          41.9880   53.2040   50.5960 O.2       4 ALP1        0.0000 
     14 CA         41.6560   50.6520   47.3690 C.3       3 GLC5        0.0000 
     15 CA         43.4880   51.2730   48.0530 C.3       9 GLL5        0.0000 
     16 CA         44.8830   49.4065   51.2475 C.3       3 GLC5        0.0000 
     17 CA         44.2230   48.1990   49.9100 C.3       9 GLL5        0.0000 
     18 CA         45.5430   50.6140   52.5850 C.3       6 GLP5        0.0000 
     19 CA         43.7620   48.2525   52.3800 C.3       3 GLC5        0.0000 
     20 CA         43.6070   47.1100   50.6880 C.3       9 GLL5        0.0000 
     21 CA         43.9170   49.3950   54.0720 C.3       6 GLP5        0.0000 
     22 CA         43.4630   46.2530   52.6785 C.3       3 GLC5        0.0000 
     23 CA         43.3190   45.3960   54.6690 C.3       6 GLP5        0.0000 
     24 O          43.9885   44.9625   52.0245 O.2       1 ALC1        0.0000 
     25 O          44.3920   46.1230   51.1820 O.2       7 ALL1        0.0000 
     26 O          43.5850   43.8020   52.8670 O.2       4 ALP1        0.0000 
     27 N          41.6330   45.8930   51.0045 N.am      2 SEC2        0.0000 
     28 N          42.2550   47.1210   50.8930 N.am      8 SEL2        0.0000 
     29 N          41.0110   44.6650   51.1160 N.am      5 SEP2        0.0000 
     30 CA         40.6830   49.6285   50.9650 C.3       3 GLC5        0.0000 
     31 CA         41.4830   48.1020   50.4030 C.3       9 GLL5        0.0000 
     32 CA         39.8830   51.1550   51.5270 C.3       6 GLP5        0.0000 
     33 CA         41.7015   47.5255   48.6645 C.3       3 GLC5        0.0000 
     34 CA         41.9200   46.9490   46.9260 C.3       6 GLP5        0.0000 
     35 CA         41.5670   49.6245   48.0440 C.3       3 GLC5        0.0000 
     36 CA         43.3100   49.2180   49.4030 C.3       9 GLL5        0.0000 
     37 CA         41.5965   50.1865   50.4650 C.3       3 GLC5        0.0000 
     38 CA         43.7210   49.9105   51.2845 C.3       3 GLC5        0.0000 
     39 CA         44.1320   50.6030   53.1660 C.3       6 GLP5        0.0000 
     40 N          41.3165   53.7380   40.3060 N.am      2 SEC2        0.0000 
     41 N          42.5310   53.1220   40.7050 N.am      8 SEL2        0.0000 
     42 N          40.1020   54.3540   39.9070 N.am      5 SEP2        0.0000 
     43 CA         42.0455   51.3850   39.0545 C.3       3 GLC5        0.0000 
     44 CA         43.4200   50.3180   40.4690 C.3       9 GLL5        0.0000 
     45 CA         40.6710   52.4520   37.6400 C.3       6 GLP5        0.0000 
     46 N          41.5625   48.4470   38.7780 N.am      2 SEC2        0.0000 
     47 N          42.7540   49.3310   38.3610 N.am      8 SEL2        0.0000 
     48 N          40.3710   47.5630   39.1950 N.am      5 SEP2        0.0000 
     49 CA         42.1670   50.8230   37.4515 C.3       3 GLC5        0.0000 
     50 CA         43.6630   49.1940   37.2630 C.3       9 GLL5        0.0000 
     51 CA         42.1870   51.9605   36.9700 C.3       3 GLC5        0.0000 
     52 CA         43.7030   51.4690   36.3000 C.3       9 GLL5        0.0000 
     53 N          44.0895   55.5935   33.5220 N.am      2 SEC2        0.0000 
     54 N          43.8700   54.4350   34.2910 N.am      8 SEL2        0.0000 
     55 N          44.3090   56.7520   32.7530 N.am      5 SEP2        0.0000 
     56 CA         41.6270   51.0835   36.4050 C.3       3 GLC5        0.0000 
     57 CA         42.5830   49.7150   35.1700 C.3       9 GLL5        0.0000 
     58 CA         43.2808   49.9485   45.0275 C.3       3 GLC5        0.0000 
     59 CA         42.9170   47.8450   44.7740 C.3       6 GLP5        0.0000 
     60 CA         42.4264   53.7477   45.0847 C.3       3 GLC5        0.0000 
     61 CA         44.0310   51.9550   44.6370 C.3       9 GLL5        0.0000 
     62 CA         41.1330   54.8330   44.1180 C.3       6 GLP5        0.0000 
     63 CA         45.3865   46.7807   49.1770 C.3       3 GLC5        0.0000 
     64 CA         46.8580   45.9070   48.0550 C.3       6 GLP5        0.0000 
     65 CA         42.7662   47.6926   48.3885 C.3       3 GLC5        0.0000 
     66 CA         44.7565   47.7240   40.7707 C.3       3 GLC5        0.0000 
     67 CA         43.4510   49.0880   39.5960 C.3       9 GLL5        0.0000 
     68 CA         45.3660   46.5810   42.1490 C.3       6 GLP5        0.0000 
     69 CA         42.5750   51.4080   32.3432 C.3       3 GLC5        0.0000 
     70 CA         42.6120   51.9060   34.2090 C.3       9 GLL5        0.0000 
     71 CA         42.7370   51.5820   30.5080 C.3       6 GLP5        0.0000 
     72 CA         40.5190   51.3925   33.1808 C.3       3 GLC5        0.0000 
     73 CA         38.6250   51.5510   32.1830 C.3       6 GLP5        0.0000 
     74 CA         41.3764   52.3184   35.4606 C.3       3 GLC5        0.0000 
     75 CA         42.2140   50.5620   34.1480 C.3       9 GLL5        0.0000 
     76 CA         40.1500   53.2880   36.4750 C.3       6 GLP5        0.0000 
@<TRIPOS>BOND
@<TRIPOS>SUBSTRUCTURE
     1 ALC1        7 GROUP        1 X    ALC  0     ROOT ALC X 1
     2 SEC2        1 GROUP        1 X    SEC  0     **** SEC X 2
     3 GLC5        4 GROUP        1 X    GLC  0     **** GLC X 6
     4 ALP1        9 GROUP        1 Y    ALP  0     ROOT ALP Y 8
     5 SEP2        3 GROUP        1 Y    SEP  0     **** SEP Y 9
     6 GLP5        6 GROUP        1 Y    GLP  0     **** GLP Y 13
     7 ALL1        8 GROUP        1 Z    ALL  0     ROOT ALL Z 15
     8 SEL2        2 GROUP        1 Z    SEL  0     **** SEL Z 16
     9 GLL5        5 GROUP        1 Z    GLL  0     **** GLL Z 20
@<TRIPOS>SET

