#    Name: 4lsm_NAD_2_ligand
#    Modification time : Tue Apr  8 00:08:44 2014

@<TRIPOS>MOLECULE
4lsm_NAD_2_ligand
   70    74     1     0     0
SMALL
NO_CHARGES


@<TRIPOS>ATOM
      1 PA         44.8300   53.7690   42.8760 P.3       1 NAD401      0.0000 
      2 O1A        46.1590   53.6090   43.5300 O.co2     1 NAD401      0.0000 
      3 O2A        44.2870   55.1250   42.5300 O.co2     1 NAD401      0.0000 
      4 O5B        43.7300   53.1160   43.8450 O.3       1 NAD401      0.0000 
      5 C5B        44.0310   51.9550   44.6370 C.3       1 NAD401      0.0000 
      6 C4B        43.2580   52.1490   45.9250 C.3       1 NAD401      0.0000 
      7 O4B        43.3110   50.9210   46.6770 O.3       1 NAD401      0.0000 
      8 C3B        43.7950   53.2730   46.8220 C.3       1 NAD401      0.0000 
      9 O3B        42.7390   54.2020   47.1750 O.3       1 NAD401      0.0000 
     10 C2B        44.3320   52.5330   48.0460 C.3       1 NAD401      0.0000 
     11 O2B        44.2330   53.2740   49.2770 O.3       1 NAD401      0.0000 
     12 C1B        43.4880   51.2730   48.0530 C.3       1 NAD401      0.0000 
     13 N9A        44.0640   50.1080   48.7470 N.pl3     1 NAD401      0.0000 
     14 C8A        45.3530   49.7000   48.7740 C.2       1 NAD401      0.0000 
     15 N7A        45.4590   48.5450   49.4920 N.2       1 NAD401      0.0000 
     16 C5A        44.2230   48.1990   49.9100 C.ar      1 NAD401      0.0000 
     17 C6A        43.6070   47.1100   50.6880 C.ar      1 NAD401      0.0000 
     18 N6A        44.3920   46.1230   51.1820 N.pl3     1 NAD401      0.0000 
     19 N1A        42.2550   47.1210   50.8930 N.ar      1 NAD401      0.0000 
     20 C2A        41.4830   48.1020   50.4030 C.ar      1 NAD401      0.0000 
     21 N3A        41.9980   49.1250   49.6820 N.ar      1 NAD401      0.0000 
     22 C4A        43.3100   49.2180   49.4030 C.ar      1 NAD401      0.0000 
     23 O3         44.8680   52.7760   41.5990 O.3       1 NAD401      0.0000 
     24 PN         43.9650   52.8530   40.2860 P.3       1 NAD401      0.0000 
     25 O1N        44.6390   53.6530   39.1740 O.co2     1 NAD401      0.0000 
     26 O2N        42.5310   53.1220   40.7050 O.co2     1 NAD401      0.0000 
     27 O5D        44.0710   51.3560   39.7570 O.3       1 NAD401      0.0000 
     28 C5D        43.4200   50.3180   40.4690 C.3       1 NAD401      0.0000 
     29 C4D        43.4510   49.0880   39.5960 C.3       1 NAD401      0.0000 
     30 O4D        42.7540   49.3310   38.3610 O.3       1 NAD401      0.0000 
     31 C3D        44.8430   48.6460   39.1890 C.3       1 NAD401      0.0000 
     32 O3D        44.7850   47.2200   38.9610 O.3       1 NAD401      0.0000 
     33 C2D        45.0520   49.3390   37.8590 C.3       1 NAD401      0.0000 
     34 O2D        46.0030   48.6790   37.0220 O.3       1 NAD401      0.0000 
     35 C1D        43.6630   49.1940   37.2630 C.3       1 NAD401      0.0000 
     36 N1N        43.3230   50.1630   36.2090 N.pl3     1 NAD401      0.0000 
     37 C2N        43.7030   51.4690   36.3000 C.ar      1 NAD401      0.0000 
     38 C3N        43.3710   52.3650   35.2800 C.ar      1 NAD401      0.0000 
     39 C7N        43.7680   53.8180   35.3380 C.2       1 NAD401      0.0000 
     40 O7N        43.8700   54.4350   34.2910 O.2       1 NAD401      0.0000 
     41 N7N        44.0010   54.4020   36.5120 N.am      1 NAD401      0.0000 
     42 C4N        42.6120   51.9060   34.2090 C.ar      1 NAD401      0.0000 
     43 C5N        42.2140   50.5620   34.1480 C.ar      1 NAD401      0.0000 
     44 C6N        42.5830   49.7150   35.1700 C.ar      1 NAD401      0.0000 
     45 H          45.0804   51.8912   44.8714 H         1 NAD401      0.0000 
     46 H          43.6910   51.0487   44.1644 H         1 NAD401      0.0000 
     47 H          42.2243   52.3777   45.6822 H         1 NAD401      0.0000 
     48 H          44.6090   53.7326   46.3218 H         1 NAD401      0.0000 
     49 H          45.3444   52.2329   47.8154 H         1 NAD401      0.0000 
     50 H          42.5173   51.5184   48.4757 H         1 NAD401      0.0000 
     51 H          46.0973   50.1566   48.3478 H         1 NAD401      0.0000 
     52 H          43.9317   45.4321   51.7395 H         1 NAD401      0.0000 
     53 H          45.3624   46.1726   50.9455 H         1 NAD401      0.0000 
     54 H          40.4428   48.0805   50.5820 H         1 NAD401      0.0000 
     55 H          42.3793   50.5595   40.6823 H         1 NAD401      0.0000 
     56 H          43.9261   50.0854   41.4053 H         1 NAD401      0.0000 
     57 H          42.9779   48.2618   40.1170 H         1 NAD401      0.0000 
     58 H          45.5340   48.9463   39.8761 H         1 NAD401      0.0000 
     59 H          45.2321   50.3569   38.0242 H         1 NAD401      0.0000 
     60 H          43.5821   48.1748   36.8712 H         1 NAD401      0.0000 
     61 H          44.2354   51.8108   37.1146 H         1 NAD401      0.0000 
     62 H          44.2028   55.3810   36.4841 H         1 NAD401      0.0000 
     63 H          43.9532   53.8089   37.3157 H         1 NAD401      0.0000 
     64 H          42.3384   52.5502   33.4556 H         1 NAD401      0.0000 
     65 H          41.6624   50.2298   33.3575 H         1 NAD401      0.0000 
     66 H          42.2819   48.7173   35.1312 H         1 NAD401      0.0000 
     67 H          42.0835   53.6606   47.7016 H         1 NAD401      0.0000 
     68 H          43.2911   53.1395   49.5849 H         1 NAD401      0.0000 
     69 H          45.0917   47.0962   38.0173 H         1 NAD401      0.0000 
     70 H          46.8697   49.1461   37.1970 H         1 NAD401      0.0000 
@<TRIPOS>BOND
     1    2    1 ar   
     2    3    1 ar   
     3    4    1 1    
     4   23    1 1    
     5    5    4 1    
     6    6    5 1    
     7   45    5 1    
     8   46    5 1    
     9    7    6 1    
    10    8    6 1    
    11   47    6 1    
    12   12    7 1    
    13    9    8 1    
    14   10    8 1    
    15   48    8 1    
    16   67    9 1    
    17   11   10 1    
    18   12   10 1    
    19   49   10 1    
    20   68   11 1    
    21   13   12 1    
    22   50   12 1    
    23   14   13 1    
    24   22   13 1    
    25   15   14 2    
    26   51   14 1    
    27   16   15 1    
    28   17   16 ar   
    29   22   16 ar   
    30   18   17 1    
    31   19   17 ar   
    32   52   18 1    
    33   53   18 1    
    34   20   19 ar   
    35   21   20 ar   
    36   54   20 1    
    37   22   21 ar   
    38   24   23 1    
    39   25   24 ar   
    40   26   24 ar   
    41   27   24 1    
    42   28   27 1    
    43   29   28 1    
    44   55   28 1    
    45   56   28 1    
    46   30   29 1    
    47   31   29 1    
    48   57   29 1    
    49   35   30 1    
    50   32   31 1    
    51   33   31 1    
    52   58   31 1    
    53   69   32 1    
    54   34   33 1    
    55   35   33 1    
    56   59   33 1    
    57   70   34 1    
    58   36   35 1    
    59   60   35 1    
    60   37   36 ar   
    61   44   36 ar   
    62   38   37 ar   
    63   61   37 1    
    64   39   38 1    
    65   42   38 ar   
    66   40   39 2    
    67   41   39 am   
    68   62   41 1    
    69   63   41 1    
    70   43   42 ar   
    71   64   42 1    
    72   44   43 ar   
    73   65   43 1    
    74   66   44 1    
@<TRIPOS>SUBSTRUCTURE
     1 NAD401      1 GROUP   
@<TRIPOS>SET

