#    Name: 1pr0_NOS_3_INTS_M
#    Modification time : Mon Mar 24 22:08:23 2014

@<TRIPOS>MOLECULE
1pr0_NOS_3_INTS_M
   42     0     9     0     0
SMALL
NO_CHARGES


@<TRIPOS>ATOM
      1 CA         52.0025   48.8830   26.3875 C.3       3 GLC5        0.0000 
      2 CA         51.3140   50.7220   26.7760 C.3       9 GLL5        0.0000 
      3 CA         52.6910   47.0440   25.9990 C.3       6 GLP5        0.0000 
      4 CA         53.7630   50.2310   24.0600 C.3       3 GLC5        0.0000 
      5 CA         53.3190   51.1300   25.6950 C.3       9 GLL5        0.0000 
      6 CA         54.2070   49.3320   22.4250 C.3       6 GLP5        0.0000 
      7 CA         53.0050   49.0870   25.8470 C.3       3 GLC5        0.0000 
      8 CA         54.4175   50.2125   27.0600 C.3       3 GLC5        0.0000 
      9 CA         55.5160   49.2950   28.4250 C.3       6 GLP5        0.0000 
     10 CA         51.3835   52.5120   22.5865 C.3       3 GLC5        0.0000 
     11 CA         51.2520   52.0440   24.7060 C.3       9 GLL5        0.0000 
     12 CA         51.5150   52.9800   20.4670 C.3       6 GLP5        0.0000 
     13 N          49.4845   53.4085   23.3385 N.am      2 SEC2        0.0000 
     14 N          50.7610   52.6970   23.7830 N.am      8 SEL2        0.0000 
     15 N          48.2080   54.1200   22.8940 N.am      5 SEP2        0.0000 
     16 CA         52.5535   53.1215   29.1600 C.3       3 GLC5        0.0000 
     17 CA         51.7580   52.0970   30.4920 C.3       9 GLL5        0.0000 
     18 CA         53.3490   54.1460   27.8280 C.3       6 GLP5        0.0000 
     19 CA         53.6060   51.4885   29.9050 C.3       3 GLC5        0.0000 
     20 CA         55.4540   50.8800   29.3180 C.3       6 GLP5        0.0000 
     21 CA         53.7435   49.1215   28.9075 C.3       3 GLC5        0.0000 
     22 CA         51.9710   48.9480   29.3900 C.3       9 GLL5        0.0000 
     23 N          53.0545   47.0845   28.6900 N.am      2 SEC2        0.0000 
     24 N          51.9280   47.5010   29.4420 N.am      8 SEL2        0.0000 
     25 N          54.1810   46.6680   27.9380 N.am      5 SEP2        0.0000 
     26 O          52.9305   47.1960   30.7520 O.2       1 ALC1        0.0000 
     27 O          51.9280   47.5010   29.4420 O.2       7 ALL1        0.0000 
     28 O          53.9330   46.8910   32.0620 O.2       4 ALP1        0.0000 
     29 CA         52.5865   50.2985   32.6845 C.3       3 GLC5        0.0000 
     30 CA         52.2550   49.5930   30.7610 C.3       9 GLL5        0.0000 
     31 CA         52.9180   51.0040   34.6080 C.3       6 GLP5        0.0000 
     32 CA         53.8545   50.2365   30.0395 C.3       3 GLC5        0.0000 
     33 O          52.9795   47.7830   31.9520 O.2       1 ALC1        0.0000 
     34 O          52.0260   48.6750   31.8420 O.2       7 ALL1        0.0000 
     35 CA         49.5478   49.6033   25.6255 C.3       3 GLC5        0.0000 
     36 CA         48.1490   48.1310   24.9520 C.3       6 GLP5        0.0000 
     37 CA         49.7362   51.0817   23.6185 C.3       3 GLC5        0.0000 
     38 CA         50.5790   51.4290   25.8220 C.3       9 GLL5        0.0000 
     39 CA         48.5570   50.4270   21.9730 C.3       6 GLP5        0.0000 
     40 CA         52.0295   52.0170   32.3093 C.3       3 GLC5        0.0000 
     41 CA         52.5740   52.6350   33.9380 C.3       6 GLP5        0.0000 
     42 CA         51.9853   48.1220   27.5767 C.3       3 GLC5        0.0000 
@<TRIPOS>BOND
@<TRIPOS>SUBSTRUCTURE
     1 ALC1       26 GROUP        1 X    ALC  0     ROOT ALC X 1
     2 SEC2       13 GROUP        1 X    SEC  0     **** SEC X 2
     3 GLC5        1 GROUP        1 X    GLC  0     **** GLC X 6
     4 ALP1       28 GROUP        1 Y    ALP  0     ROOT ALP Y 8
     5 SEP2       15 GROUP        1 Y    SEP  0     **** SEP Y 9
     6 GLP5        3 GROUP        1 Y    GLP  0     **** GLP Y 13
     7 ALL1       27 GROUP        1 Z    ALL  0     ROOT ALL Z 15
     8 SEL2       14 GROUP        1 Z    SEL  0     **** SEL Z 16
     9 GLL5        2 GROUP        1 Z    GLL  0     **** GLL Z 20
@<TRIPOS>SET

