#    Name: 1pr0_NOS_3_ligand
#    Modification time : Mon Mar 24 22:08:23 2014

@<TRIPOS>MOLECULE
1pr0_NOS_3_ligand
   31    33     1     0     0
SMALL
NO_CHARGES


@<TRIPOS>ATOM
      1 N9         50.3930   50.2470   27.7210 N.pl3     1 NOS1247     0.0000 
      2 C4         51.3140   50.7220   26.7760 C.ar      1 NOS1247     0.0000 
      3 N3         52.6810   50.5510   26.7470 N.ar      1 NOS1247     0.0000 
      4 C2         53.3190   51.1300   25.6950 C.ar      1 NOS1247     0.0000 
      5 N1         52.6440   51.8410   24.7230 N.ar      1 NOS1247     0.0000 
      6 C6         51.2520   52.0440   24.7060 C.ar      1 NOS1247     0.0000 
      7 O6         50.7610   52.6970   23.7830 O.3       1 NOS1247     0.0000 
      8 C5         50.5790   51.4290   25.8220 C.ar      1 NOS1247     0.0000 
      9 N7         49.2390   51.4080   26.1470 N.2       1 NOS1247     0.0000 
     10 C8         49.1270   50.6780   27.3210 C.2       1 NOS1247     0.0000 
     11 C5'        51.7580   52.0970   30.4920 C.3       1 NOS1247     0.0000 
     12 O5'        50.7360   53.0810   30.6130 O.3       1 NOS1247     0.0000 
     13 C4'        51.2120   50.7010   30.8690 C.3       1 NOS1247     0.0000 
     14 O4'        50.1440   50.3340   29.9770 O.3       1 NOS1247     0.0000 
     15 C1'        50.5880   49.4520   28.9190 C.3       1 NOS1247     0.0000 
     16 C2'        51.9710   48.9480   29.3900 C.3       1 NOS1247     0.0000 
     17 O2'        51.9280   47.5010   29.4420 O.3       1 NOS1247     0.0000 
     18 C3'        52.2550   49.5930   30.7610 C.3       1 NOS1247     0.0000 
     19 O3'        52.0260   48.6750   31.8420 O.3       1 NOS1247     0.0000 
     20 H          54.3628   51.0380   25.6110 H         1 NOS1247     0.0000 
     21 H          48.3128   50.4958   27.7870 H         1 NOS1247     0.0000 
     22 H          52.6091   52.3023   31.1548 H         1 NOS1247     0.0000 
     23 H          52.1450   52.0279   29.4668 H         1 NOS1247     0.0000 
     24 H          50.8530   50.7320   31.8849 H         1 NOS1247     0.0000 
     25 H          49.8961   48.5979   28.9326 H         1 NOS1247     0.0000 
     26 H          52.6958   49.3030   28.6862 H         1 NOS1247     0.0000 
     27 H          53.2058   50.0229   30.7544 H         1 NOS1247     0.0000 
     28 H          51.5284   52.9052   23.1767 H         1 NOS1247     0.0000 
     29 H          51.1984   53.8913   30.9730 H         1 NOS1247     0.0000 
     30 H          52.0340   47.2736   30.4101 H         1 NOS1247     0.0000 
     31 H          52.9373   48.3754   32.1244 H         1 NOS1247     0.0000 
@<TRIPOS>BOND
     1    2    1 1    
     2   10    1 1    
     3   15    1 1    
     4    3    2 ar   
     5    8    2 ar   
     6    4    3 ar   
     7    5    4 ar   
     8   20    4 1    
     9    6    5 ar   
    10    7    6 1    
    11    8    6 ar   
    12   28    7 1    
    13    9    8 1    
    14   10    9 2    
    15   21   10 1    
    16   12   11 1    
    17   13   11 1    
    18   22   11 1    
    19   23   11 1    
    20   29   12 1    
    21   14   13 1    
    22   18   13 1    
    23   24   13 1    
    24   15   14 1    
    25   16   15 1    
    26   25   15 1    
    27   17   16 1    
    28   18   16 1    
    29   26   16 1    
    30   30   17 1    
    31   19   18 1    
    32   27   18 1    
    33   31   19 1    
@<TRIPOS>SUBSTRUCTURE
     1 NOS1247     1 GROUP   
@<TRIPOS>SET

