#    Name: 3SU4_2_CAVITY_N1_ALL.mol2
#    Modification time : Tue Mar 11 01:13:16 2014

@<TRIPOS>MOLECULE
3SU4_2_CAVITY_N1_ALL.mol2
   80     0     6     0     0
SMALL
NO_CHARGES


@<TRIPOS>ATOM
      1 CA         48.1500    8.0124   12.8323 C.3       5 GLY6        0.0000 
      2 CA         47.6503    9.2674   12.1802 C.3       5 GLY6        0.0000 
      3 CA         48.4465    7.4292   11.4825 C.3       5 GLY6        0.0000 
      4 CA         47.9469    8.6842   10.8304 C.3       5 GLY6        0.0000 
      5 O          46.7671    7.4339   12.7784 O.2       1 ALA2        0.0000 
      6 CA         46.2674    8.6889   12.1264 C.3       5 GLY6        0.0000 
      7 NZ         48.0630    4.3405   12.7327 N.2       3 LYS4        0.0000 
      8 CA         47.5633    5.5956   12.0807 C.3       5 GLY6        0.0000 
      9 N          47.0636    6.8506   11.4287 N.2       1 ALA2        0.0000 
     10 N          46.5640    8.1057   10.7766 N.2       1 ALA2        0.0000 
     11 CA         46.0643    9.3608   10.1246 C.3       5 GLY6        0.0000 
     12 N          47.3602    6.2674   10.0789 N.2       1 ALA2        0.0000 
     13 N          46.8605    7.5225    9.4268 N.2       1 ALA2        0.0000 
     14 N          46.3608    8.7776    8.7748 N.2       1 ALA2        0.0000 
     15 N          46.6574    8.1944    7.4250 N.2       1 ALA2        0.0000 
     16 N          47.4536    6.3561    6.7272 N.2       1 ALA2        0.0000 
     17 N          46.9539    7.6112    6.0752 N.2       1 ALA2        0.0000 
     18 NZ         46.5867    3.6733   16.0305 N.2       3 LYS4        0.0000 
     19 O          46.0870    4.9284   15.3785 O.2       1 ALA2        0.0000 
     20 OD1        47.3829    1.8351   15.3328 O.3       2 ASP3        0.0000 
     21 NZ         46.8832    3.0901   14.6807 N.2       3 LYS4        0.0000 
     22 NZ         46.3835    4.3452   14.0287 N.2       3 LYS4        0.0000 
     23 O          45.8839    5.6003   13.3766 O.2       1 ALA2        0.0000 
     24 N          45.3842    6.8553   12.7246 N.2       1 ALA2        0.0000 
     25 CA         44.8845    8.1104   12.0726 C.3       5 GLY6        0.0000 
     26 NZ         47.1797    2.5069   13.3309 N.2       3 LYS4        0.0000 
     27 NZ         46.6801    3.7620   12.6789 N.2       3 LYS4        0.0000 
     28 DU         46.1804    5.0171   12.0269 H         6 CUB7        0.0000 
     29 DU         45.6807    6.2721   11.3748 H         6 CUB7        0.0000 
     30 CA         45.1811    7.5272   10.7228 C.3       5 GLY6        0.0000 
     31 CA         44.6814    8.7822   10.0707 C.3       5 GLY6        0.0000 
     32 CA         47.4763    1.9237   11.9811 C.3       5 GLY6        0.0000 
     33 CA         46.9766    3.1788   11.3291 C.3       5 GLY6        0.0000 
     34 CA         46.4769    4.4339   10.6771 C.3       5 GLY6        0.0000 
     35 CA         45.9773    5.6889   10.0250 C.3       5 GLY6        0.0000 
     36 CZ         45.4776    6.9440    9.3730 C.ar      4 PHE5        0.0000 
     37 CA         46.2738    5.1057    8.6752 C.3       5 GLY6        0.0000 
     38 N          45.7741    6.3608    8.0232 N.2       1 ALA2        0.0000 
     39 CZ         45.2745    7.6158    7.3711 C.ar      4 PHE5        0.0000 
     40 DU         46.0707    5.7776    6.6734 H         6 CUB7        0.0000 
     41 CZ         45.5710    7.0326    6.0213 C.ar      4 PHE5        0.0000 
     42 NZ         44.7041    4.3499   15.3246 N.2       3 LYS4        0.0000 
     43 NZ         44.2044    5.6049   14.6726 N.2       3 LYS4        0.0000 
     44 OD1        46.0000    1.2565   15.2789 O.3       2 ASP3        0.0000 
     45 DU         45.5003    2.5116   14.6269 H         6 CUB7        0.0000 
     46 DU         45.0006    3.7667   13.9748 H         6 CUB7        0.0000 
     47 N          44.5010    5.0217   13.3228 N.2       1 ALA2        0.0000 
     48 OD1        46.2965    0.6733   13.9291 O.3       2 ASP3        0.0000 
     49 DU         45.7968    1.9284   13.2771 H         6 CUB7        0.0000 
     50 DU         44.7975    4.4385   11.9730 H         6 CUB7        0.0000 
     51 N          44.2978    5.6936   11.3210 N.2       1 ALA2        0.0000 
     52 N          43.7982    6.9486   10.6689 N.2       1 ALA2        0.0000 
     53 CA         46.0934    1.3452   11.9273 C.3       5 GLY6        0.0000 
     54 DU         45.5937    2.6003   11.2753 H         6 CUB7        0.0000 
     55 DU         45.0940    3.8553   10.6232 H         6 CUB7        0.0000 
     56 DU         44.5944    5.1104    9.9712 H         6 CUB7        0.0000 
     57 CZ         44.0947    6.3654    9.3191 C.ar      4 PHE5        0.0000 
     58 CA         46.3899    0.7620   10.5775 C.3       5 GLY6        0.0000 
     59 CA         45.8902    2.0171    9.9255 C.3       5 GLY6        0.0000 
     60 CA         45.3906    3.2721    9.2734 C.3       5 GLY6        0.0000 
     61 DU         44.8909    4.5272    8.6214 H         6 CUB7        0.0000 
     62 CZ         44.3913    5.7822    7.9693 C.ar      4 PHE5        0.0000 
     63 CA         45.6871    2.6889    7.9236 C.3       5 GLY6        0.0000 
     64 DU         45.1875    3.9440    7.2716 H         6 CUB7        0.0000 
     65 DU         44.6878    5.1990    6.6195 H         6 CUB7        0.0000 
     66 N          43.6177    3.1881   13.9210 N.2       1 ALA2        0.0000 
     67 N          43.1181    4.4432   13.2690 N.2       1 ALA2        0.0000 
     68 DU         44.4139    1.3499   13.2233 H         6 CUB7        0.0000 
     69 DU         43.4146    3.8600   11.9192 H         6 CUB7        0.0000 
     70 N          42.9150    5.1151   11.2671 N.2       1 ALA2        0.0000 
     71 DU         44.7105    0.7667   11.8735 H         6 CUB7        0.0000 
     72 DU         43.2115    4.5319    9.9173 H         6 CUB7        0.0000 
     73 CZ         42.7118    5.7869    9.2653 C.ar      4 PHE5        0.0000 
     74 DU         44.5074    1.4385    9.8716 H         6 CUB7        0.0000 
     75 DU         43.5080    3.9486    8.5675 H         6 CUB7        0.0000 
     76 CZ         43.0084    5.2037    7.9155 C.ar      4 PHE5        0.0000 
     77 DU         42.3283    2.6983   10.5155 H         6 CUB7        0.0000 
     78 CA         41.8286    3.9533    9.8635 C.3       5 GLY6        0.0000 
     79 NZ         41.3289    5.2084    9.2114 N.2       3 LYS4        0.0000 
     80 DU         42.1251    3.3701    8.5137 H         6 CUB7        0.0000 
@<TRIPOS>BOND
@<TRIPOS>SUBSTRUCTURE
     1 ALA2        5 GROUP   
     2 ASP3       20 GROUP   
     3 LYS4        7 GROUP   
     4 PHE5       36 GROUP   
     5 GLY6        1 GROUP   
     6 CUB7       28 GROUP   
@<TRIPOS>SET

