#    Name: 3su4_SU3_2_INTS_M
#    Modification time : Mon Mar 24 18:36:22 2014

@<TRIPOS>MOLECULE
3su4_SU3_2_INTS_M
   96     0     9     0     0
SMALL
NO_CHARGES


@<TRIPOS>ATOM
      1 CA         48.2160    2.9555    7.3115 C.3       3 GLC5        0.0000 
      2 CA         47.4720    2.3490    5.4370 C.3       9 GLL5        0.0000 
      3 CA         48.9600    3.5620    9.1860 C.3       6 GLP5        0.0000 
      4 N          49.6550    5.3240    7.1825 N.am      2 SEC2        0.0000 
      5 N          48.5370    4.8200    6.2900 N.am      8 SEL2        0.0000 
      6 N          50.7730    5.8280    8.0750 N.am      5 SEP2        0.0000 
      7 O          47.9390    7.3990    7.8515 O.2       1 ALC1        0.0000 
      8 O          46.7250    6.7410    7.3220 O.2       7 ALL1        0.0000 
      9 O          49.1530    8.0570    8.3810 O.2       4 ALP1        0.0000 
     10 CA         50.7765    6.8955    1.8820 C.3       3 GLC5        0.0000 
     11 CA         51.4830    5.2590    2.6620 C.3       9 GLL5        0.0000 
     12 CA         50.0700    8.5320    1.1020 C.3       6 GLP5        0.0000 
     13 O          50.0815    1.4870    6.4405 O.2       1 ALC1        0.0000 
     14 O          49.8760    2.1050    5.1070 O.2       7 ALL1        0.0000 
     15 O          50.2870    0.8690    7.7740 O.2       4 ALP1        0.0000 
     16 CA         51.7840    5.7105    5.7535 C.3       3 GLC5        0.0000 
     17 CA         51.6780    3.7880    4.6710 C.3       9 GLL5        0.0000 
     18 CA         51.8900    7.6330    6.8360 C.3       6 GLP5        0.0000 
     19 CA         53.6310    3.4600    6.0975 C.3       3 GLC5        0.0000 
     20 CA         52.3660    2.6210    5.3960 C.3       9 GLL5        0.0000 
     21 CA         54.8960    4.2990    6.7990 C.3       6 GLP5        0.0000 
     22 CA         44.9325   -2.3065    6.7300 C.3       3 GLC5        0.0000 
     23 CA         44.1200   -1.4260    8.3810 C.3       9 GLL5        0.0000 
     24 CA         45.7450   -3.1870    5.0790 C.3       6 GLP5        0.0000 
     25 O          49.6690   -0.2680    3.6775 O.2       1 ALC1        0.0000 
     26 O          50.5730    0.6310    2.8040 O.2       7 ALL1        0.0000 
     27 O          48.7650   -1.1670    4.5510 O.2       4 ALP1        0.0000 
     28 N          53.1255    1.6385    1.1645 N.am      2 SEC2        0.0000 
     29 N          52.4720    1.8090    2.5580 N.am      8 SEL2        0.0000 
     30 N          53.7790    1.4680   -0.2290 N.am      5 SEP2        0.0000 
     31 N          53.6345    0.7635    3.2280 N.am      2 SEC2        0.0000 
     32 N          54.7970   -0.2820    3.8980 N.am      5 SEP2        0.0000 
     33 N          52.3390    1.1655    0.0110 N.am      2 SEC2        0.0000 
     34 N          50.8990    0.8630    0.2510 N.am      8 SEL2        0.0000 
     35 N          53.0275    0.3570    0.6185 N.am      2 SEC2        0.0000 
     36 N          52.2760   -0.7540    1.4660 N.am      8 SEL2        0.0000 
     37 CA         49.7040   -3.5245   -1.3140 C.3       3 GLC5        0.0000 
     38 CA         50.2280   -2.5270    0.2300 C.3       9 GLL5        0.0000 
     39 CA         49.1800   -4.5220   -2.8580 C.3       6 GLP5        0.0000 
     40 CA         51.1735   -4.0585    0.0895 C.3       3 GLC5        0.0000 
     41 CA         52.1190   -5.5900   -0.0510 C.3       6 GLP5        0.0000 
     42 CA         51.4720   -3.9710    1.3545 C.3       3 GLC5        0.0000 
     43 CA         49.9760   -2.7360    1.7270 C.3       9 GLL5        0.0000 
     44 CA         52.9680   -5.2060    0.9820 C.3       6 GLP5        0.0000 
     45 CA         50.3910   -3.5040    3.5620 C.3       3 GLC5        0.0000 
     46 CA         50.8060   -4.2720    5.3970 C.3       6 GLP5        0.0000 
     47 CA         47.7295    0.7165   11.9545 C.3       3 GLC5        0.0000 
     48 CA         46.3460    2.2530   11.7720 C.3       9 GLL5        0.0000 
     49 CA         49.1130   -0.8200   12.1370 C.3       6 GLP5        0.0000 
     50 CA         48.7370    4.0765   12.6500 C.3       3 GLC5        0.0000 
     51 CA         46.5700    3.6950   12.2780 C.3       9 GLL5        0.0000 
     52 CA         50.9040    4.4580   13.0220 C.3       6 GLP5        0.0000 
     53 CA         44.3490    8.2275    9.2180 C.3       3 GLC5        0.0000 
     54 CA         45.3990    6.9960   10.6600 C.3       9 GLL5        0.0000 
     55 CA         43.2990    9.4590    7.7760 C.3       6 GLP5        0.0000 
     56 CA         44.4185    8.6625   11.1975 C.3       3 GLC5        0.0000 
     57 CA         43.4380   10.3290   11.7350 C.3       6 GLP5        0.0000 
     58 CA         44.8820    8.4520   12.9600 C.3       3 GLC5        0.0000 
     59 CA         45.3140    6.3840   13.0770 C.3       9 GLL5        0.0000 
     60 CA         44.4500   10.5200   12.8430 C.3       6 GLP5        0.0000 
     61 CA         43.7705    6.9300   14.1500 C.3       3 GLC5        0.0000 
     62 CA         42.2270    7.4760   15.2230 C.3       6 GLP5        0.0000 
     63 CA         48.2445    5.0605   10.5430 C.3       3 GLC5        0.0000 
     64 CA         47.5290    6.5590   11.9000 C.3       9 GLL5        0.0000 
     65 CA         48.8675    8.0160   12.1985 C.3       3 GLC5        0.0000 
     66 CA         50.2060    9.4730   12.4970 C.3       6 GLP5        0.0000 
     67 CA         49.2165    5.5085   12.4610 C.3       3 GLC5        0.0000 
     68 CA         44.5665    8.8590    6.3800 C.3       3 GLC5        0.0000 
     69 CA         45.8340    8.2590    4.9840 C.3       9 GLL5        0.0000 
     70 CA         47.0965   10.0010    5.4615 C.3       3 GLC5        0.0000 
     71 CA         48.3590   11.7430    5.9390 C.3       6 GLP5        0.0000 
     72 CA         49.4125    8.7350    4.0225 C.3       3 GLC5        0.0000 
     73 CA         48.2770    7.6170    4.9770 C.3       9 GLL5        0.0000 
     74 CA         50.5480    9.8530    3.0680 C.3       6 GLP5        0.0000 
     75 CA         50.0835    7.6250    5.9065 C.3       3 GLC5        0.0000 
     76 CA         48.3180    9.6800    5.4580 C.3       3 GLC5        0.0000 
     77 CA         47.3238    0.0493    4.5478 C.3       3 GLC5        0.0000 
     78 CA         47.6740   -1.8130    4.0210 C.3       6 GLP5        0.0000 
     79 CA         53.7580    5.7023    2.9592 C.3       3 GLC5        0.0000 
     80 CA         52.4470    4.4740    3.5670 C.3       9 GLL5        0.0000 
     81 CA         55.5510    6.5380    2.8040 C.3       6 GLP5        0.0000 
     82 CA         52.6625    4.3647    1.3918 C.3       3 GLC5        0.0000 
     83 CA         53.3600    3.8630   -0.3310 C.3       6 GLP5        0.0000 
     84 CA         53.4793    4.2150    5.4590 C.3       3 GLC5        0.0000 
     85 CA         52.2197    0.7155    4.9337 C.3       3 GLC5        0.0000 
     86 CA         52.6750   -1.0580    4.9360 C.3       6 GLP5        0.0000 
     87 CA         51.1396    3.1759    6.8003 C.3       3 GLC5        0.0000 
     88 CA         50.3860    3.5050    8.6180 C.3       6 GLP5        0.0000 
     89 CA         45.7315   -2.0969   10.2006 C.3       3 GLC5        0.0000 
     90 CA         47.1500   -3.4860   10.6950 C.3       6 GLP5        0.0000 
     91 CA         45.6684   -2.4276   11.3770 C.3       3 GLC5        0.0000 
     92 CA         43.9480   -2.2960   10.8770 C.3       9 GLL5        0.0000 
     93 CA         48.7497   -1.9375    2.7090 C.3       3 GLC5        0.0000 
     94 CA         49.3500   -4.2782    1.6598 C.3       3 GLC5        0.0000 
     95 CA         48.5980   -5.9250    2.3410 C.3       6 GLP5        0.0000 
     96 CA         47.5823    3.6997   10.4217 C.3       3 GLC5        0.0000 
@<TRIPOS>BOND
@<TRIPOS>SUBSTRUCTURE
     1 ALC1        7 GROUP        1 X    ALC  0     ROOT ALC X 1
     2 SEC2        4 GROUP        1 X    SEC  0     **** SEC X 2
     3 GLC5        1 GROUP        1 X    GLC  0     **** GLC X 6
     4 ALP1        9 GROUP        1 Y    ALP  0     ROOT ALP Y 8
     5 SEP2        6 GROUP        1 Y    SEP  0     **** SEP Y 9
     6 GLP5        3 GROUP        1 Y    GLP  0     **** GLP Y 13
     7 ALL1        8 GROUP        1 Z    ALL  0     ROOT ALL Z 15
     8 SEL2        5 GROUP        1 Z    SEL  0     **** SEL Z 16
     9 GLL5        2 GROUP        1 Z    GLL  0     **** GLL Z 20
@<TRIPOS>SET

