#    Name: 3su4_SU3_2_ligand
#    Modification time : Mon Mar 24 18:36:22 2014

@<TRIPOS>MOLECULE
3su4_SU3_2_ligand
  108   113     1     0     0
SMALL
NO_CHARGES


@<TRIPOS>ATOM
      1 C          48.7340    2.5860    4.6040 C.2       1 SU31        0.0000 
      2 N          46.8140    3.6650    5.5430 N.am      1 SU31        0.0000 
      3 O          48.6630    3.2540    3.5770 O.2       1 SU31        0.0000 
      4 CA         47.4720    2.3490    5.4370 C.3       1 SU31        0.0000 
      5 CB         46.4750    1.4740    4.7120 C.3       1 SU31        0.0000 
      6 CG         45.1350    2.0690    5.1810 C.3       1 SU31        0.0000 
      7 CAF        47.3450    4.8220    5.9480 C.2       1 SU31        0.0000 
      8 OAG        48.5370    4.8200    6.2900 O.2       1 SU31        0.0000 
      9 CAH        46.5050    6.1040    6.0210 C.3       1 SU31        0.0000 
     10 NAI        46.7250    6.7410    7.3220 N.am      1 SU31        0.0000 
     11 CAJ        45.8570    6.5970    8.3150 C.2       1 SU31        0.0000 
     12 OAK        46.2400    7.2010    9.4820 O.3       1 SU31        0.0000 
     13 CAL        46.8300    7.0910    4.8890 C.3       1 SU31        0.0000 
     14 OAM        44.8150    5.9290    8.2070 O.2       1 SU31        0.0000 
     15 CAO        44.5260    0.4140    6.6990 C.2       1 SU31        0.0000 
     16 OAP        44.3000   -0.3200    5.7380 O.2       1 SU31        0.0000 
     17 NAQ        44.4010   -0.0620    7.9060 N.am      1 SU31        0.0000 
     18 CAR        52.4470    4.4740    3.5670 C.3       1 SU31        0.0000 
     19 CAS        51.4830    5.2590    2.6620 C.3       1 SU31        0.0000 
     20 CAT        46.6650    6.3760    3.5490 C.3       1 SU31        0.0000 
     21 NAV        49.8760    2.1050    5.1070 N.am      1 SU31        0.0000 
     22 CAX        51.1630    2.3570    4.4670 C.3       1 SU31        0.0000 
     23 CAY        51.4460    1.5700    3.1800 C.2       1 SU31        0.0000 
     24 CAZ        51.6780    3.7880    4.6710 C.3       1 SU31        0.0000 
     25 CBA        52.3660    2.6210    5.3960 C.3       1 SU31        0.0000 
     26 CBB        44.1200   -1.4260    8.3810 C.3       1 SU31        0.0000 
     27 CBC        44.1660   -1.3370    9.9000 C.ar      1 SU31        0.0000 
     28 CBD        44.4830   -0.0340   10.2720 C.ar      1 SU31        0.0000 
     29 CBE        44.6770    0.8320    9.0410 C.3       1 SU31        0.0000 
     30 CBF        43.9480   -2.2960   10.8770 C.ar      1 SU31        0.0000 
     31 CBG        44.0590   -1.9290   12.2110 C.ar      1 SU31        0.0000 
     32 CBH        44.3700   -0.6260   12.5740 C.ar      1 SU31        0.0000 
     33 CBI        44.6070    0.3450   11.5970 C.ar      1 SU31        0.0000 
     34 CBJ        44.9260    1.7670   12.0670 C.3       1 SU31        0.0000 
     35 NBK        50.5730    0.6310    2.8040 N.am      1 SU31        0.0000 
     36 OBL        52.4720    1.8090    2.5580 O.2       1 SU31        0.0000 
     37 SBM        50.9160   -0.1120    1.3790 S.o2      1 SU31        0.0000 
     38 CBN        49.6750   -1.3880    1.0670 C.3       1 SU31        0.0000 
     39 OBO        50.8990    0.8630    0.2510 O.2       1 SU31        0.0000 
     40 OBP        52.2760   -0.7540    1.4660 O.2       1 SU31        0.0000 
     41 CBQ        50.2280   -2.5270    0.2300 C.3       1 SU31        0.0000 
     42 CBR        49.9760   -2.7360    1.7270 C.3       1 SU31        0.0000 
     43 CBS        46.3460    2.2530   11.7720 C.3       1 SU31        0.0000 
     44 CBT        46.5700    3.6950   12.2780 C.3       1 SU31        0.0000 
     45 CBU        45.9510    4.7010   11.2900 C.3       1 SU31        0.0000 
     46 CBV        46.0610    6.1580   11.7440 C.3       1 SU31        0.0000 
     47 CBW        45.3990    6.9960   10.6600 C.3       1 SU31        0.0000 
     48 CBX        45.3140    6.3840   13.0770 C.3       1 SU31        0.0000 
     49 CBY        47.5290    6.5590   11.9000 C.3       1 SU31        0.0000 
     50 CBZ        45.8340    8.2590    4.9840 C.3       1 SU31        0.0000 
     51 CCA        48.2770    7.6170    4.9770 C.3       1 SU31        0.0000 
     52 CD1        45.4020    3.5560    5.1530 C.3       1 SU31        0.0000 
     53 OD2        44.8750    1.7210    6.5600 O.3       1 SU31        0.0000 
     54 H          47.7045    1.9717    6.3716 H         1 SU31        0.0000 
     55 H          46.5496    0.4770    5.0434 H         1 SU31        0.0000 
     56 H          46.5659    1.5964    3.6698 H         1 SU31        0.0000 
     57 H          44.3862    1.8296    4.5225 H         1 SU31        0.0000 
     58 H          45.4570    5.8214    5.9326 H         1 SU31        0.0000 
     59 H          47.5930    7.3024    7.4083 H         1 SU31        0.0000 
     60 H          53.1689    5.1651    3.9930 H         1 SU31        0.0000 
     61 H          52.9692    3.7353    2.9654 H         1 SU31        0.0000 
     62 H          49.9027    1.5314    5.9734 H         1 SU31        0.0000 
     63 H          51.0946    4.1932    5.3261 H         1 SU31        0.0000 
     64 H          53.1438    2.4078    4.9085 H         1 SU31        0.0000 
     65 H          52.0403    2.6094    6.2802 H         1 SU31        0.0000 
     66 H          44.8741   -2.1131    8.0487 H         1 SU31        0.0000 
     67 H          43.1410   -1.7453    8.0796 H         1 SU31        0.0000 
     68 H          43.9784    1.6445    9.0696 H         1 SU31        0.0000 
     69 H          45.6889    1.1848    9.0157 H         1 SU31        0.0000 
     70 H          43.7100   -3.2553   10.6207 H         1 SU31        0.0000 
     71 H          43.9068   -2.6412   12.9497 H         1 SU31        0.0000 
     72 H          44.4277   -0.3681   13.5705 H         1 SU31        0.0000 
     73 H          44.7481    1.8283   13.1592 H         1 SU31        0.0000 
     74 H          44.2054    2.4662   11.5977 H         1 SU31        0.0000 
     75 H          49.7636    0.3064    3.2276 H         1 SU31        0.0000 
     76 H          48.8443   -1.2078    0.9446 H         1 SU31        0.0000 
     77 H          51.1560   -2.3817    0.1175 H         1 SU31        0.0000 
     78 H          49.5061   -2.9231   -0.2358 H         1 SU31        0.0000 
     79 H          49.1574   -3.1971    1.8124 H         1 SU31        0.0000 
     80 H          50.8073   -2.6557    2.1657 H         1 SU31        0.0000 
     81 H          46.5219    2.2265   10.6966 H         1 SU31        0.0000 
     82 H          47.0634    1.5936   12.2606 H         1 SU31        0.0000 
     83 H          47.6326    3.8812   12.3597 H         1 SU31        0.0000 
     84 H          46.0999    3.8083   13.2458 H         1 SU31        0.0000 
     85 H          44.8902    4.4479   11.1473 H         1 SU31        0.0000 
     86 H          46.4483    4.5895   10.3153 H         1 SU31        0.0000 
     87 H          44.4489    6.4999   10.3750 H         1 SU31        0.0000 
     88 H          45.1141    7.9707   11.1058 H         1 SU31        0.0000 
     89 H          45.2478    3.9245    4.1615 H         1 SU31        0.0000 
     90 H          44.7686    4.0426    5.8634 H         1 SU31        0.0000 
     91 H          51.9655    5.7215    1.9182 H         1 SU31        0.0000 
     92 H          50.7994    4.6624    2.2416 H         1 SU31        0.0000 
     93 H          50.9856    5.9619    3.1705 H         1 SU31        0.0000 
     94 H          46.8622    6.9817    2.7781 H         1 SU31        0.0000 
     95 H          47.2788    5.5906    3.4691 H         1 SU31        0.0000 
     96 H          45.7337    6.0343    3.4226 H         1 SU31        0.0000 
     97 H          45.6824    5.8129   13.8106 H         1 SU31        0.0000 
     98 H          45.3801    7.3336   13.3834 H         1 SU31        0.0000 
     99 H          44.3407    6.1685   12.9985 H         1 SU31        0.0000 
    100 H          47.9990    5.9921   12.5765 H         1 SU31        0.0000 
    101 H          48.0323    6.4678   11.0407 H         1 SU31        0.0000 
    102 H          47.6250    7.5092   12.1964 H         1 SU31        0.0000 
    103 H          45.9012    8.7340    5.8614 H         1 SU31        0.0000 
    104 H          45.9913    8.9403    4.2691 H         1 SU31        0.0000 
    105 H          44.8879    7.9489    4.8903 H         1 SU31        0.0000 
    106 H          48.9458    6.8757    4.9196 H         1 SU31        0.0000 
    107 H          48.4850    8.2574    4.2376 H         1 SU31        0.0000 
    108 H          48.4457    8.0979    5.8374 H         1 SU31        0.0000 
@<TRIPOS>BOND
     1    3    1 2    
     2    4    1 1    
     3   21    1 am   
     4    4    2 1    
     5    7    2 am   
     6   52    2 1    
     7    5    4 1    
     8   54    4 1    
     9    6    5 1    
    10   55    5 1    
    11   56    5 1    
    12   52    6 1    
    13   53    6 1    
    14   57    6 1    
    15    8    7 2    
    16    9    7 1    
    17   10    9 1    
    18   13    9 1    
    19   58    9 1    
    20   11   10 am   
    21   59   10 1    
    22   12   11 1    
    23   14   11 2    
    24   47   12 1    
    25   20   13 1    
    26   50   13 1    
    27   51   13 1    
    28   16   15 2    
    29   17   15 am   
    30   53   15 1    
    31   26   17 1    
    32   29   17 1    
    33   19   18 1    
    34   24   18 1    
    35   60   18 1    
    36   61   18 1    
    37   91   19 1    
    38   92   19 1    
    39   93   19 1    
    40   94   20 1    
    41   95   20 1    
    42   96   20 1    
    43   22   21 1    
    44   62   21 1    
    45   23   22 1    
    46   24   22 1    
    47   25   22 1    
    48   35   23 am   
    49   36   23 2    
    50   25   24 1    
    51   63   24 1    
    52   64   25 1    
    53   65   25 1    
    54   27   26 1    
    55   66   26 1    
    56   67   26 1    
    57   28   27 ar   
    58   30   27 ar   
    59   29   28 1    
    60   33   28 ar   
    61   68   29 1    
    62   69   29 1    
    63   31   30 ar   
    64   70   30 1    
    65   32   31 ar   
    66   71   31 1    
    67   33   32 ar   
    68   72   32 1    
    69   34   33 1    
    70   43   34 1    
    71   73   34 1    
    72   74   34 1    
    73   37   35 1    
    74   75   35 1    
    75   38   37 1    
    76   39   37 2    
    77   40   37 2    
    78   41   38 1    
    79   42   38 1    
    80   76   38 1    
    81   42   41 1    
    82   77   41 1    
    83   78   41 1    
    84   79   42 1    
    85   80   42 1    
    86   44   43 1    
    87   81   43 1    
    88   82   43 1    
    89   45   44 1    
    90   83   44 1    
    91   84   44 1    
    92   46   45 1    
    93   85   45 1    
    94   86   45 1    
    95   47   46 1    
    96   48   46 1    
    97   49   46 1    
    98   87   47 1    
    99   88   47 1    
   100   97   48 1    
   101   98   48 1    
   102   99   48 1    
   103  100   49 1    
   104  101   49 1    
   105  102   49 1    
   106  103   50 1    
   107  104   50 1    
   108  105   50 1    
   109  106   51 1    
   110  107   51 1    
   111  108   51 1    
   112   89   52 1    
   113   90   52 1    
@<TRIPOS>SUBSTRUCTURE
     1 SU31        1 GROUP   
@<TRIPOS>SET

