#    Name: 3o9g_F53_1_INTS_M
#    Modification time : Tue Mar 25 03:25:34 2014

@<TRIPOS>MOLECULE
3o9g_F53_1_INTS_M
  104     0     9     0     0
SMALL
NO_CHARGES


@<TRIPOS>ATOM
      1 CA         12.9605   35.4570   19.8335 C.3       3 GLC5        0.0000 
      2 CA         14.2960   35.7890   18.2350 C.3       9 GLL5        0.0000 
      3 CA         11.6250   35.1250   21.4320 C.3       6 GLP5        0.0000 
      4 CA         13.6430   37.3110   16.9725 C.3       3 GLC5        0.0000 
      5 CA         12.9900   38.8330   15.7100 C.3       6 GLP5        0.0000 
      6 CA         12.3825   36.2120   18.0105 C.3       3 GLC5        0.0000 
      7 CA         10.4690   36.6350   17.7860 C.3       6 GLP5        0.0000 
      8 N          14.3005   34.9085   20.7270 N.am      2 SEC2        0.0000 
      9 N          14.8510   35.8600   19.5590 N.am      8 SEL2        0.0000 
     10 N          13.7500   33.9570   21.8950 N.am      5 SEP2        0.0000 
     11 CA         15.1265   36.8975   15.6890 C.3       3 GLC5        0.0000 
     12 CA         16.2360   35.5150   16.6580 C.3       9 GLL5        0.0000 
     13 CA         14.0170   38.2800   14.7200 C.3       6 GLP5        0.0000 
     14 CA         15.1910   31.0490   15.5660 C.3       3 GLC5        0.0000 
     15 CA         15.8810   32.7460   16.5160 C.3       9 GLL5        0.0000 
     16 CA         14.5010   29.3520   14.6160 C.3       6 GLP5        0.0000 
     17 N          23.0215   23.9660   12.4995 N.am      2 SEC2        0.0000 
     18 N          22.5210   24.6060   11.2720 N.am      8 SEL2        0.0000 
     19 N          23.5220   23.3260   13.7270 N.am      5 SEP2        0.0000 
     20 CA         21.1320   34.2045   13.8260 C.3       3 GLC5        0.0000 
     21 CA         21.8490   32.8160   15.1560 C.3       9 GLL5        0.0000 
     22 CA         20.4150   35.5930   12.4960 C.3       6 GLP5        0.0000 
     23 CA         22.6735   32.8795   19.3275 C.3       3 GLC5        0.0000 
     24 CA         21.9750   33.5550   17.5770 C.3       9 GLL5        0.0000 
     25 CA         23.3720   32.2040   21.0780 C.3       6 GLP5        0.0000 
     26 CA         23.8840   32.3725   17.6390 C.3       3 GLC5        0.0000 
     27 CA         25.7930   31.1900   17.7010 C.3       6 GLP5        0.0000 
     28 CA         17.3935   30.7030   18.0220 C.3       3 GLC5        0.0000 
     29 CA         18.8230   30.4980   16.4310 C.3       9 GLL5        0.0000 
     30 CA         15.9640   30.9080   19.6130 C.3       6 GLP5        0.0000 
     31 CA         22.7475   35.7535   15.7175 C.3       3 GLC5        0.0000 
     32 CA         21.8030   35.0240   17.2580 C.3       9 GLL5        0.0000 
     33 CA         23.6920   36.4830   14.1770 C.3       6 GLP5        0.0000 
     34 N          19.2545   27.7515   17.9755 N.am      2 SEC2        0.0000 
     35 N          19.7890   28.2430   16.6950 N.am      8 SEL2        0.0000 
     36 N          18.7200   27.2600   19.2560 N.am      5 SEP2        0.0000 
     37 O          20.6570   27.9240   17.5815 O.2       1 ALC1        0.0000 
     38 O          19.7890   28.2430   16.6950 O.2       7 ALL1        0.0000 
     39 O          21.5250   27.6050   18.4680 O.2       4 ALP1        0.0000 
     40 O          21.3440   28.6665   17.1110 O.2       1 ALC1        0.0000 
     41 O          22.8990   29.0900   17.5270 O.2       4 ALP1        0.0000 
     42 CA         24.5355   30.9900   15.0835 C.3       3 GLC5        0.0000 
     43 CA         23.3300   32.4940   15.0310 C.3       9 GLL5        0.0000 
     44 CA         25.7410   29.4860   15.1360 C.3       6 GLP5        0.0000 
     45 CA         24.1255   31.8940   13.3000 C.3       3 GLC5        0.0000 
     46 CA         24.9210   31.2940   11.5690 C.3       6 GLP5        0.0000 
     47 O          20.3335   26.7510   14.3560 O.2       1 ALC1        0.0000 
     48 O          20.5620   28.2570   13.9230 O.2       7 ALL1        0.0000 
     49 O          20.1050   25.2450   14.7890 O.2       4 ALP1        0.0000 
     50 CA         26.2070   25.8035   11.8910 C.3       3 GLC5        0.0000 
     51 CA         24.5910   27.1810   12.1260 C.3       9 GLL5        0.0000 
     52 CA         27.8230   24.4260   11.6560 C.3       6 GLP5        0.0000 
     53 CA         26.4610   27.9695   12.1320 C.3       3 GLC5        0.0000 
     54 CA         28.3310   28.7580   12.1380 C.3       6 GLP5        0.0000 
     55 CA         25.7810   27.9680   10.4025 C.3       3 GLC5        0.0000 
     56 CA         26.9710   28.7550    8.6790 C.3       6 GLP5        0.0000 
     57 CA         25.1660   28.3335   13.6310 C.3       3 GLC5        0.0000 
     58 N          25.2765   24.6460   12.5850 N.am      2 SEC2        0.0000 
     59 N          24.3900   25.7760   11.9720 N.am      8 SEL2        0.0000 
     60 N          26.1630   23.5160   13.1980 N.am      5 SEP2        0.0000 
     61 CA         23.1870   25.3510   13.0440 C.3       3 GLC5        0.0000 
     62 CA         23.5160   25.5460   10.8720 C.3       9 GLL5        0.0000 
     63 CA         22.8580   25.1560   15.2160 C.3       6 GLP5        0.0000 
     64 CA         23.7595   23.5990   11.3895 C.3       3 GLC5        0.0000 
     65 CA         24.0030   21.6520   11.9070 C.3       6 GLP5        0.0000 
     66 CA         22.0475   25.2035   13.2670 C.3       3 GLC5        0.0000 
     67 CA         21.2370   25.2510   11.3180 C.3       9 GLL5        0.0000 
     68 CA         17.1260   26.2590   14.5205 C.3       3 GLC5        0.0000 
     69 CA         18.1900   28.2210   14.2730 C.3       9 GLL5        0.0000 
     70 CA         16.0620   24.2970   14.7680 C.3       6 GLP5        0.0000 
     71 CA         17.0715   25.4430   13.5650 C.3       3 GLC5        0.0000 
     72 CA         18.0810   26.5890   12.3620 C.3       9 GLL5        0.0000 
     73 CA         18.9220   29.5575    9.6375 C.3       3 GLC5        0.0000 
     74 CA         17.4330   28.5250   10.5340 C.3       9 GLL5        0.0000 
     75 CA         20.4110   30.5900    8.7410 C.3       6 GLP5        0.0000 
     76 CA         13.3150   34.1453   17.0110 C.3       3 GLC5        0.0000 
     77 CA         15.2060   34.9220   17.3790 C.3       9 GLL5        0.0000 
     78 CA         11.8790   32.9350   16.2150 C.3       6 GLP5        0.0000 
     79 CA         13.9722   35.1245   15.8338 C.3       3 GLC5        0.0000 
     80 CA         15.0210   33.5420   17.3020 C.3       9 GLL5        0.0000 
     81 CA         12.8310   36.0170   14.3270 C.3       6 GLP5        0.0000 
     82 CA         15.4767   33.0727   14.2258 C.3       3 GLC5        0.0000 
     83 CA         14.5580   33.1090   12.3160 C.3       6 GLP5        0.0000 
     84 CA         15.7075   32.0260   18.2610 C.3       3 GLC5        0.0000 
     85 CA         13.6650   33.0395   16.5620 C.3       3 GLC5        0.0000 
     86 CA         23.1407   34.5690   14.6352 C.3       3 GLC5        0.0000 
     87 CA         23.7030   34.5768   18.0158 C.3       3 GLC5        0.0000 
     88 CA         25.5170   34.8640   18.6140 C.3       6 GLP5        0.0000 
     89 CA         23.9340   26.8125   13.7763 C.3       3 GLC5        0.0000 
     90 CA         23.2770   27.7790   11.6290 C.3       9 GLL5        0.0000 
     91 CA         23.9340   26.1450   15.6750 C.3       6 GLP5        0.0000 
     92 CA         24.4275   29.3870   11.7233 C.3       3 GLC5        0.0000 
     93 CA         16.2340   26.4143   11.7675 C.3       3 GLC5        0.0000 
     94 CA         14.4790   26.4200   11.8380 C.3       6 GLP5        0.0000 
     95 CA         16.1685   28.2265    9.0987 C.3       3 GLC5        0.0000 
     96 CA         17.5650   27.2110   10.1090 C.3       9 GLL5        0.0000 
     97 CA         14.8380   28.5850    7.8760 C.3       6 GLP5        0.0000 
     98 CA         15.9890   27.1440   11.0798 C.3       3 GLC5        0.0000 
     99 CA         17.3268   30.4868   10.3637 C.3       3 GLC5        0.0000 
    100 CA         17.1330   32.2700    9.5200 C.3       6 GLP5        0.0000 
    101 CA         16.1315   27.4070   12.0910 C.3       3 GLC5        0.0000 
    102 CA         17.6080   28.8820   11.8810 C.3       9 GLL5        0.0000 
    103 CA         16.1713   28.9124   13.6632 C.3       3 GLC5        0.0000 
    104 CA         17.9600   27.9060   12.8070 C.3       9 GLL5        0.0000 
@<TRIPOS>BOND
@<TRIPOS>SUBSTRUCTURE
     1 ALC1       37 GROUP        1 X    ALC  0     ROOT ALC X 1
     2 SEC2        8 GROUP        1 X    SEC  0     **** SEC X 2
     3 GLC5        1 GROUP        1 X    GLC  0     **** GLC X 6
     4 ALP1       39 GROUP        1 Y    ALP  0     ROOT ALP Y 8
     5 SEP2       10 GROUP        1 Y    SEP  0     **** SEP Y 9
     6 GLP5        3 GROUP        1 Y    GLP  0     **** GLP Y 13
     7 ALL1       38 GROUP        1 Z    ALL  0     ROOT ALL Z 15
     8 SEL2        9 GROUP        1 Z    SEL  0     **** SEL Z 16
     9 GLL5        2 GROUP        1 Z    GLL  0     **** GLL Z 20
@<TRIPOS>SET

