#    Name: 3o9g_F53_1_ligand
#    Modification time : Tue Mar 25 03:25:34 2014

@<TRIPOS>MOLECULE
3o9g_F53_1_ligand
   83    86     1     0     0
SMALL
NO_CHARGES


@<TRIPOS>ATOM
      1 C1         14.2960   35.7890   18.2350 C.3       1 F53200      0.0000 
      2 O1         14.8510   35.8600   19.5590 O.3       1 F53200      0.0000 
      3 C2         15.2060   34.9220   17.3790 C.ar      1 F53200      0.0000 
      4 C3         16.2360   35.5150   16.6580 C.ar      1 F53200      0.0000 
      5 C4         17.0740   34.7250   15.8480 C.ar      1 F53200      0.0000 
      6 C5         16.9100   33.3270   15.7550 C.ar      1 F53200      0.0000 
      7 C6         15.8810   32.7460   16.5160 C.ar      1 F53200      0.0000 
      8 C7         15.0210   33.5420   17.3020 C.ar      1 F53200      0.0000 
      9 O8         22.5210   24.6060   11.2720 O.3       1 F53200      0.0000 
     10 S8         17.9290   32.3990   14.8720 S.o2      1 F53200      0.0000 
     11 O9         18.5970   33.2150   13.9280 O.2       1 F53200      0.0000 
     12 O10        17.2180   31.2890   14.2940 O.2       1 F53200      0.0000 
     13 N11        19.1210   31.7980   15.7940 N.pl3     1 F53200      0.0000 
     14 C12        19.7810   32.8440   16.6270 C.3       1 F53200      0.0000 
     15 C13        21.2890   32.6320   16.5680 C.3       1 F53200      0.0000 
     16 C14        21.8490   32.8160   15.1560 C.3       1 F53200      0.0000 
     17 C15        21.9750   33.5550   17.5770 C.3       1 F53200      0.0000 
     18 C16        18.8230   30.4980   16.4310 C.3       1 F53200      0.0000 
     19 C17        19.7940   29.4340   15.8810 C.3       1 F53200      0.0000 
     20 C18        21.8030   35.0240   17.2580 C.3       1 F53200      0.0000 
     21 O18        19.7890   28.2430   16.6950 O.3       1 F53200      0.0000 
     22 C19        19.4670   29.0490   14.4330 C.3       1 F53200      0.0000 
     23 C20        23.3300   32.4940   15.0310 C.3       1 F53200      0.0000 
     24 N20        20.5620   28.2570   13.9230 N.am      1 F53200      0.0000 
     25 C21        21.4570   28.6380   13.0100 C.2       1 F53200      0.0000 
     26 O22        21.5550   29.6840   12.4000 O.2       1 F53200      0.0000 
     27 O23        22.4390   27.6090   12.7640 O.3       1 F53200      0.0000 
     28 C24        23.2770   27.7790   11.6290 C.3       1 F53200      0.0000 
     29 C25        24.5910   27.1810   12.1260 C.3       1 F53200      0.0000 
     30 O26        24.3900   25.7760   11.9720 O.3       1 F53200      0.0000 
     31 C27        23.5160   25.5460   10.8720 C.3       1 F53200      0.0000 
     32 C29        21.2370   25.2510   11.3180 C.3       1 F53200      0.0000 
     33 C30        21.3650   26.4900   10.4390 C.3       1 F53200      0.0000 
     34 C31        22.8480   26.8540   10.5110 C.3       1 F53200      0.0000 
     35 C32        18.1900   28.2210   14.2730 C.3       1 F53200      0.0000 
     36 C33        18.0810   26.5890   12.3620 C.ar      1 F53200      0.0000 
     37 C34        17.8970   26.2280   11.0320 C.ar      1 F53200      0.0000 
     38 C35        17.5650   27.2110   10.1090 C.ar      1 F53200      0.0000 
     39 C36        17.4330   28.5250   10.5340 C.ar      1 F53200      0.0000 
     40 C37        17.6080   28.8820   11.8810 C.ar      1 F53200      0.0000 
     41 C38        17.9600   27.9060   12.8070 C.ar      1 F53200      0.0000 
     42 H          14.2317   36.7746   17.7736 H         1 F53200      0.0000 
     43 H          13.3029   35.3394   18.2399 H         1 F53200      0.0000 
     44 H          16.3920   36.5272   16.7107 H         1 F53200      0.0000 
     45 H          17.8288   35.1798   15.3074 H         1 F53200      0.0000 
     46 H          15.7509   31.7251   16.5013 H         1 F53200      0.0000 
     47 H          14.2539   33.0940   17.8194 H         1 F53200      0.0000 
     48 H          19.4540   32.7659   17.6575 H         1 F53200      0.0000 
     49 H          19.5486   33.8314   16.2448 H         1 F53200      0.0000 
     50 H          21.4914   31.5979   16.8822 H         1 F53200      0.0000 
     51 H          21.6782   33.8590   14.8400 H         1 F53200      0.0000 
     52 H          21.2800   32.1740   14.4625 H         1 F53200      0.0000 
     53 H          23.0481   33.3108   17.6062 H         1 F53200      0.0000 
     54 H          21.5671   33.3486   18.5785 H         1 F53200      0.0000 
     55 H          17.8089   30.1815   16.2079 H         1 F53200      0.0000 
     56 H          18.9545   30.5555   17.5070 H         1 F53200      0.0000 
     57 H          20.7980   29.8748   15.8779 H         1 F53200      0.0000 
     58 H          19.3692   29.9513   13.8481 H         1 F53200      0.0000 
     59 H          20.6261   27.2707   14.3466 H         1 F53200      0.0000 
     60 H          23.4211   28.7295   11.3247 H         1 F53200      0.0000 
     61 H          24.7234   27.4643   13.1500 H         1 F53200      0.0000 
     62 H          25.3835   27.5498   11.5077 H         1 F53200      0.0000 
     63 H          24.0569   25.1972   10.0170 H         1 F53200      0.0000 
     64 H          20.9815   25.5683   12.3173 H         1 F53200      0.0000 
     65 H          20.4574   24.6253   10.9116 H         1 F53200      0.0000 
     66 H          20.7818   27.2813   10.8427 H         1 F53200      0.0000 
     67 H          21.1029   26.2510    9.4373 H         1 F53200      0.0000 
     68 H          23.2139   27.1623    9.5848 H         1 F53200      0.0000 
     69 H          17.3485   28.7864   14.6614 H         1 F53200      0.0000 
     70 H          18.2928   27.2968   14.8333 H         1 F53200      0.0000 
     71 H          18.3196   25.8458   13.0580 H         1 F53200      0.0000 
     72 H          18.0044   25.2556   10.7394 H         1 F53200      0.0000 
     73 H          17.4192   26.9678    9.1247 H         1 F53200      0.0000 
     74 H          17.1998   29.2662    9.8469 H         1 F53200      0.0000 
     75 H          17.4763   29.8529   12.1721 H         1 F53200      0.0000 
     76 H          22.2586   35.6061   17.9315 H         1 F53200      0.0000 
     77 H          22.1845   35.2569   16.3634 H         1 F53200      0.0000 
     78 H          20.8393   35.2907   17.2442 H         1 F53200      0.0000 
     79 H          23.8876   33.0740   15.6249 H         1 F53200      0.0000 
     80 H          23.5261   31.5455   15.2797 H         1 F53200      0.0000 
     81 H          23.6613   32.6266   14.0968 H         1 F53200      0.0000 
     82 H          14.3380   36.5867   20.0159 H         1 F53200      0.0000 
     83 H          20.7076   28.1937   17.0870 H         1 F53200      0.0000 
@<TRIPOS>BOND
     1    2    1 1    
     2    3    1 1    
     3   42    1 1    
     4   43    1 1    
     5   82    2 1    
     6    4    3 ar   
     7    8    3 ar   
     8    5    4 ar   
     9   44    4 1    
    10    6    5 ar   
    11   45    5 1    
    12    7    6 ar   
    13   10    6 1    
    14    8    7 ar   
    15   46    7 1    
    16   47    8 1    
    17   31    9 1    
    18   32    9 1    
    19   11   10 2    
    20   12   10 2    
    21   13   10 1    
    22   14   13 1    
    23   18   13 1    
    24   15   14 1    
    25   48   14 1    
    26   49   14 1    
    27   16   15 1    
    28   17   15 1    
    29   50   15 1    
    30   23   16 1    
    31   51   16 1    
    32   52   16 1    
    33   20   17 1    
    34   53   17 1    
    35   54   17 1    
    36   19   18 1    
    37   55   18 1    
    38   56   18 1    
    39   21   19 1    
    40   22   19 1    
    41   57   19 1    
    42   76   20 1    
    43   77   20 1    
    44   78   20 1    
    45   83   21 1    
    46   24   22 1    
    47   35   22 1    
    48   58   22 1    
    49   79   23 1    
    50   80   23 1    
    51   81   23 1    
    52   25   24 am   
    53   59   24 1    
    54   26   25 2    
    55   27   25 1    
    56   28   27 1    
    57   29   28 1    
    58   34   28 1    
    59   60   28 1    
    60   30   29 1    
    61   61   29 1    
    62   62   29 1    
    63   31   30 1    
    64   34   31 1    
    65   63   31 1    
    66   33   32 1    
    67   64   32 1    
    68   65   32 1    
    69   34   33 1    
    70   66   33 1    
    71   67   33 1    
    72   68   34 1    
    73   41   35 1    
    74   69   35 1    
    75   70   35 1    
    76   37   36 ar   
    77   41   36 ar   
    78   71   36 1    
    79   38   37 ar   
    80   72   37 1    
    81   39   38 ar   
    82   73   38 1    
    83   40   39 ar   
    84   74   39 1    
    85   41   40 ar   
    86   75   40 1    
@<TRIPOS>SUBSTRUCTURE
     1 F53200      1 GROUP   
@<TRIPOS>SET

