#    Name: 2gfd_RDA_1_INTS_M
#    Modification time : Tue Mar 25 14:04:36 2014

@<TRIPOS>MOLECULE
2gfd_RDA_1_INTS_M
   48     0     6     0     0
SMALL
NO_CHARGES


@<TRIPOS>ATOM
      1 CA       -120.1190  -42.5665   54.7080 C.3       2 GLC5        0.0000 
      2 CA       -118.6280  -41.6200   54.6740 C.3       6 GLL5        0.0000 
      3 CA       -121.6100  -43.5130   54.7420 C.3       4 GLP5        0.0000 
      4 CA       -122.2600  -38.6755   51.6245 C.3       2 GLC5        0.0000 
      5 CA       -120.7200  -37.8030   52.7060 C.3       6 GLL5        0.0000 
      6 CA       -123.8000  -39.5480   50.5430 C.3       4 GLP5        0.0000 
      7 O        -120.8210  -37.5535   50.3940 O.2       1 ALC1        0.0000 
      8 O        -120.4820  -38.2280   51.4370 O.2       5 ALL1        0.0000 
      9 O        -121.1600  -36.8790   49.3510 O.2       3 ALP1        0.0000 
     10 CA       -120.0060  -35.4955   51.5520 C.3       2 GLC5        0.0000 
     11 CA       -121.3760  -36.5940   52.9100 C.3       6 GLL5        0.0000 
     12 CA       -118.6360  -34.3970   50.1940 C.3       4 GLP5        0.0000 
     13 CA       -122.9890  -37.7735   52.2975 C.3       2 GLC5        0.0000 
     14 CA       -124.6020  -38.9530   51.6850 C.3       4 GLP5        0.0000 
     15 CA       -122.5145  -37.8790   58.2140 C.3       2 GLC5        0.0000 
     16 CA       -121.6060  -36.4140   56.8840 C.3       6 GLL5        0.0000 
     17 CA       -123.4230  -39.3440   59.5440 C.3       4 GLP5        0.0000 
     18 CA       -122.9605  -35.6195   57.6850 C.3       2 GLC5        0.0000 
     19 CA       -124.3150  -34.8250   58.4860 C.3       4 GLP5        0.0000 
     20 CA       -120.9105  -35.8985   60.4265 C.3       2 GLC5        0.0000 
     21 CA       -119.6320  -37.5170   61.1220 C.3       6 GLL5        0.0000 
     22 CA       -122.1890  -34.2800   59.7310 C.3       4 GLP5        0.0000 
     23 CA       -117.6595  -38.0465   65.9215 C.3       2 GLC5        0.0000 
     24 CA       -118.5020  -37.7820   64.6300 C.3       6 GLL5        0.0000 
     25 CA       -116.8170  -38.3110   67.2130 C.3       4 GLP5        0.0000 
     26 CA       -117.7345  -36.2805   64.7330 C.3       2 GLC5        0.0000 
     27 CA       -116.9670  -34.7790   64.8360 C.3       4 GLP5        0.0000 
     28 CA       -120.2095  -36.7355   64.5615 C.3       2 GLC5        0.0000 
     29 CA       -121.9170  -35.6890   64.4930 C.3       4 GLP5        0.0000 
     30 CA       -119.4795  -40.9385   61.9375 C.3       2 GLC5        0.0000 
     31 CA       -118.1810  -39.1320   62.1590 C.3       6 GLL5        0.0000 
     32 CA       -120.7780  -42.7450   61.7160 C.3       4 GLP5        0.0000 
     33 CA       -119.0820  -38.5640   51.8432 C.3       2 GLC5        0.0000 
     34 CA       -120.3100  -38.5730   53.7910 C.3       6 GLL5        0.0000 
     35 CA       -117.6490  -38.9400   50.4380 C.3       4 GLP5        0.0000 
     36 CA       -120.1120  -35.2548   54.1073 C.3       2 GLC5        0.0000 
     37 CA       -121.6180  -36.1670   54.2110 C.3       6 GLL5        0.0000 
     38 CA       -118.7270  -34.1290   54.6540 C.3       4 GLP5        0.0000 
     39 CA       -123.3195  -36.2591   54.2389 C.3       2 GLC5        0.0000 
     40 CA       -121.2090  -36.9500   55.2870 C.3       6 GLL5        0.0000 
     41 CA       -125.2860  -35.8530   54.0540 C.3       4 GLP5        0.0000 
     42 CA       -119.8509  -35.7752   55.1239 C.3       2 GLC5        0.0000 
     43 CA       -121.6190  -39.8937   55.1924 C.3       2 GLC5        0.0000 
     44 CA       -122.9950  -41.1060   55.0150 C.3       4 GLP5        0.0000 
     45 CA       -121.4990  -38.5992   60.0302 C.3       2 GLC5        0.0000 
     46 CA       -119.5180  -38.1920   59.9110 C.3       6 GLL5        0.0000 
     47 CA       -119.5345  -40.9151   60.3164 C.3       2 GLC5        0.0000 
     48 CA       -120.4730  -42.5440   60.2270 C.3       4 GLP5        0.0000 
@<TRIPOS>BOND
@<TRIPOS>SUBSTRUCTURE
     1 ALC1        7 GROUP        1 X    ALC  0     ROOT ALC X 1
     2 GLC5        1 GROUP        1 X    GLC  0     **** GLC X 6
     3 ALP1        9 GROUP        1 Y    ALP  0     ROOT ALP Y 8
     4 GLP5        3 GROUP        1 Y    GLP  0     **** GLP Y 13
     5 ALL1        8 GROUP        1 Z    ALL  0     ROOT ALL Z 15
     6 GLL5        2 GROUP        1 Z    GLL  0     **** GLL Z 20
@<TRIPOS>SET

