#    Name: 2gfd_RDA_1_ligand
#    Modification time : Tue Mar 25 14:04:36 2014

@<TRIPOS>MOLECULE
2gfd_RDA_1_ligand
   46    47     1     0     0
SMALL
NO_CHARGES


@<TRIPOS>ATOM
      1 C7       -118.6280  -41.6200   54.6740 C.3       1 RDA1001     0.0000 
      2 O4       -118.5140  -40.2690   54.2170 O.3       1 RDA1001     0.0000 
      3 C6       -119.6170  -39.9090   53.5060 C.2       1 RDA1001     0.0000 
      4 O3       -120.0490  -40.6550   52.6290 O.2       1 RDA1001     0.0000 
      5 C5       -120.3100  -38.5730   53.7910 C.ar      1 RDA1001     0.0000 
      6 C4       -120.7200  -37.8030   52.7060 C.ar      1 RDA1001     0.0000 
      7 O2       -120.4820  -38.2280   51.4370 O.3       1 RDA1001     0.0000 
      8 C3       -121.3760  -36.5940   52.9100 C.ar      1 RDA1001     0.0000 
      9 C2       -121.6180  -36.1670   54.2110 C.ar      1 RDA1001     0.0000 
     10 O1       -122.2270  -34.9700   54.4230 O.3       1 RDA1001     0.0000 
     11 C1       -121.2090  -36.9500   55.2870 C.ar      1 RDA1001     0.0000 
     12 CL       -121.6060  -36.4140   56.8840 Cl        1 RDA1001     0.0000 
     13 C8       -120.5420  -38.1610   55.1020 C.ar      1 RDA1001     0.0000 
     14 C9       -120.0600  -38.9960   56.2930 C.3       1 RDA1001     0.0000 
     15 C10      -118.6730  -38.5490   56.7640 C.3       1 RDA1001     0.0000 
     16 C11      -117.9960  -39.6180   57.6260 C.2       1 RDA1001     0.0000 
     17 O5       -116.8920  -40.0690   57.3230 O.2       1 RDA1001     0.0000 
     18 N1       -118.6940  -40.0290   58.6810 N.am      1 RDA1001     0.0000 
     19 C12      -118.7380  -39.3410   59.8200 C.ar      1 RDA1001     0.0000 
     20 C18      -119.5180  -38.1920   59.9110 C.ar      1 RDA1001     0.0000 
     21 C17      -119.6320  -37.5170   61.1220 C.ar      1 RDA1001     0.0000 
     22 O8       -120.3040  -36.4900   61.1880 O.3       1 RDA1001     0.0000 
     23 C15      -118.9710  -37.9890   62.2520 C.ar      1 RDA1001     0.0000 
     24 O7       -119.1550  -37.3410   63.4350 O.3       1 RDA1001     0.0000 
     25 C16      -118.5020  -37.7820   64.6300 C.3       1 RDA1001     0.0000 
     26 C14      -118.1810  -39.1320   62.1590 C.ar      1 RDA1001     0.0000 
     27 C13      -118.0640  -39.8060   60.9460 C.ar      1 RDA1001     0.0000 
     28 O6       -117.3610  -40.8120   60.8740 O.3       1 RDA1001     0.0000 
     29 H        -121.6762  -36.0270   52.1145 H         1 RDA1001     0.0000 
     30 H        -120.0181  -40.0455   56.0006 H         1 RDA1001     0.0000 
     31 H        -120.7689  -38.8899   57.1146 H         1 RDA1001     0.0000 
     32 H        -118.7713  -37.6298   57.3448 H         1 RDA1001     0.0000 
     33 H        -118.0483  -38.3430   55.8927 H         1 RDA1001     0.0000 
     34 H        -119.2378  -40.9417   58.6127 H         1 RDA1001     0.0000 
     35 H        -120.0123  -37.8405   59.0790 H         1 RDA1001     0.0000 
     36 H        -117.6821  -39.4797   62.9891 H         1 RDA1001     0.0000 
     37 H        -117.8239  -41.9046   55.1959 H         1 RDA1001     0.0000 
     38 H        -119.4225  -41.7453   55.2682 H         1 RDA1001     0.0000 
     39 H        -118.7264  -42.2622   53.9138 H         1 RDA1001     0.0000 
     40 H        -117.5064  -37.7592   64.5392 H         1 RDA1001     0.0000 
     41 H        -118.7379  -37.2094   65.4151 H         1 RDA1001     0.0000 
     42 H        -118.7534  -38.7207   64.8658 H         1 RDA1001     0.0000 
     43 H        -120.8786  -37.5227   50.8493 H         1 RDA1001     0.0000 
     44 H        -122.2210  -34.5154   53.5323 H         1 RDA1001     0.0000 
     45 H        -119.7915  -35.8113   60.6620 H         1 RDA1001     0.0000 
     46 H        -117.0556  -40.8466   59.9224 H         1 RDA1001     0.0000 
@<TRIPOS>BOND
     1    2    1 1    
     2   37    1 1    
     3   38    1 1    
     4   39    1 1    
     5    3    2 1    
     6    4    3 2    
     7    5    3 1    
     8    6    5 ar   
     9   13    5 ar   
    10    7    6 1    
    11    8    6 ar   
    12   43    7 1    
    13    9    8 ar   
    14   29    8 1    
    15   10    9 1    
    16   11    9 ar   
    17   44   10 1    
    18   12   11 1    
    19   13   11 ar   
    20   14   13 1    
    21   15   14 1    
    22   30   14 1    
    23   31   14 1    
    24   16   15 1    
    25   32   15 1    
    26   33   15 1    
    27   17   16 2    
    28   18   16 am   
    29   19   18 1    
    30   34   18 1    
    31   20   19 ar   
    32   27   19 ar   
    33   21   20 ar   
    34   35   20 1    
    35   22   21 1    
    36   23   21 ar   
    37   45   22 1    
    38   24   23 1    
    39   26   23 ar   
    40   25   24 1    
    41   40   25 1    
    42   41   25 1    
    43   42   25 1    
    44   27   26 ar   
    45   36   26 1    
    46   28   27 1    
    47   46   28 1    
@<TRIPOS>SUBSTRUCTURE
     1 RDA1001     1 GROUP   
@<TRIPOS>SET

