#    Name: 3rep_ATP_1_INTS_M
#    Modification time : Mon Apr  7 20:17:18 2014

@<TRIPOS>MOLECULE
3rep_ATP_1_INTS_M
   78     0    15     0     0
SMALL
NO_CHARGES


@<TRIPOS>ATOM
      1 NZ         -7.3200   -0.5325   16.0505 N.4       3 LYC4        0.0000 
      2 NZ         -5.8590   -1.1610   15.6050 N.4      13 LYL4        0.0000 
      3 NZ         -8.7810    0.0960   16.4960 N.4       8 LYP4        0.0000 
      4 NZ         -4.5230   -2.3475   16.4800 N.4       3 LYC4        0.0000 
      5 NZ         -3.1870   -3.5340   17.3550 N.4       8 LYP4        0.0000 
      6 Zn         -5.7110   -0.2870   14.9605 Zn        4 ZIC7        0.0000 
      7 Zn         -5.8590   -1.1610   15.6050 Zn       14 ZIL7        0.0000 
      8 Zn         -5.5630    0.5870   14.3160 Zn        9 ZIP7        0.0000 
      9 N          -7.3200   -0.5325   16.0505 N.am      2 SEC2        0.0000 
     10 N          -5.8590   -1.1610   15.6050 N.am     12 SEL2        0.0000 
     11 N          -8.7810    0.0960   16.4960 N.am      7 SEP2        0.0000 
     12 NZ         -4.5020   -3.6150   16.5970 N.4       3 LYC4        0.0000 
     13 NZ         -5.8170   -3.6960   15.8390 N.4      13 LYL4        0.0000 
     14 N          -7.0865   -3.7470   16.9875 N.am      2 SEC2        0.0000 
     15 N          -5.8170   -3.6960   15.8390 N.am     12 SEL2        0.0000 
     16 N          -8.3560   -3.7980   18.1360 N.am      7 SEP2        0.0000 
     17 N          -4.5020   -3.6150   16.5970 N.am      2 SEC2        0.0000 
     18 N          -3.1870   -3.5340   17.3550 N.am      7 SEP2        0.0000 
     19 NZ         -8.3770   -1.1610   16.2590 N.4       3 LYC4        0.0000 
     20 NZ         -7.9730   -2.4180   16.0220 N.4      13 LYL4        0.0000 
     21 N          -8.9950   -2.9830   15.0925 N.am      2 SEC2        0.0000 
     22 N          -7.9730   -2.4180   16.0220 N.am     12 SEL2        0.0000 
     23 N         -10.0170   -3.5480   14.1630 N.am      7 SEP2        0.0000 
     24 N          -8.1645   -3.1080   17.0790 N.am      2 SEC2        0.0000 
     25 N          -8.3770   -1.1610   16.2590 N.am      2 SEC2        0.0000 
     26 Zn         -5.6655   -0.0865   13.4635 Zn        4 ZIC7        0.0000 
     27 Zn         -5.7680   -0.7600   12.6110 Zn       14 ZIL7        0.0000 
     28 N          -8.4650   -3.1325   13.9350 N.am      2 SEC2        0.0000 
     29 N          -6.9130   -2.7170   13.7070 N.am     12 SEL2        0.0000 
     30 NZ         -9.4435    0.2535   14.9355 N.4       3 LYC4        0.0000 
     31 NZ        -10.1060    0.4110   13.3750 N.4      13 LYL4        0.0000 
     32 N         -10.9305   -0.4585   12.5405 N.am      2 SEC2        0.0000 
     33 N         -10.1060    0.4110   13.3750 N.am     12 SEL2        0.0000 
     34 N         -11.7550   -1.3280   11.7060 N.am      7 SEP2        0.0000 
     35 NZ         -8.2270    0.4970   15.2980 N.4       3 LYC4        0.0000 
     36 NZ         -7.6730    0.8980   14.1000 N.4      13 LYL4        0.0000 
     37 Zn         -6.6180    0.7425   14.2080 Zn        4 ZIC7        0.0000 
     38 Zn         -7.6730    0.8980   14.1000 Zn       14 ZIL7        0.0000 
     39 N          -8.2270    0.4970   15.2980 N.am      2 SEC2        0.0000 
     40 N          -7.6730    0.8980   14.1000 N.am     12 SEL2        0.0000 
     41 CA        -11.2760    0.9830   11.0175 C.3       5 GLC5        0.0000 
     42 CA         -9.4710    1.2730   10.7350 C.3      15 GLL5        0.0000 
     43 CA        -13.0810    0.6930   11.3000 C.3      10 GLP5        0.0000 
     44 O          -6.8500    3.5355    6.3640 O.2       1 ALC1        0.0000 
     45 O          -7.7500    3.4760    7.2190 O.2      11 ALL1        0.0000 
     46 O          -5.9500    3.5950    5.5090 O.2       6 ALP1        0.0000 
     47 CA         -8.8950    4.4940   11.1410 C.3       5 GLC5        0.0000 
     48 CA         -8.0030    4.3370    9.4680 C.3      15 GLL5        0.0000 
     49 CA         -9.7870    4.6510   12.8140 C.3      10 GLP5        0.0000 
     50 CA         -6.0940   10.2395   11.5955 C.3       5 GLC5        0.0000 
     51 CA         -5.6800    8.0480   11.5240 C.3      15 GLL5        0.0000 
     52 CA         -6.5080   12.4310   11.6670 C.3      10 GLP5        0.0000 
     53 CA         -4.3315    9.2310   10.2965 C.3       5 GLC5        0.0000 
     54 CA         -2.9830   10.4140    9.0690 C.3      10 GLP5        0.0000 
     55 O          -4.7755    9.9285   12.9455 O.2       1 ALC1        0.0000 
     56 O          -4.8760    8.5590   12.4900 O.2      11 ALL1        0.0000 
     57 O          -4.6750   11.2980   13.4010 O.2       6 ALP1        0.0000 
     58 N          -5.6050   10.1995   10.2395 N.am      2 SEC2        0.0000 
     59 N          -6.1200    8.9050   10.5820 N.am     12 SEL2        0.0000 
     60 N          -5.0900   11.4940    9.8970 N.am      7 SEP2        0.0000 
     61 CA         -8.0470    8.7665   11.2140 C.3       5 GLC5        0.0000 
     62 CA         -6.9130    8.5030    9.5990 C.3      15 GLL5        0.0000 
     63 CA         -9.1810    9.0300   12.8290 C.3      10 GLP5        0.0000 
     64 CA         -6.7105   10.4670   10.6330 C.3       5 GLC5        0.0000 
     65 CA         -5.4925   10.0010    9.2195 C.3       5 GLC5        0.0000 
     66 CA         -4.0720   11.4990    8.8400 C.3      10 GLP5        0.0000 
     67 CA         -5.8385    7.6770    7.9630 C.3       5 GLC5        0.0000 
     68 CA         -4.7640    6.8510    6.3270 C.3      10 GLP5        0.0000 
     69 CA         -8.0355    7.6760   11.5975 C.3       5 GLC5        0.0000 
     70 CA         -6.8900    6.3220   10.3660 C.3      15 GLL5        0.0000 
     71 CA         -9.5293    3.2067   11.4913 C.3       5 GLC5        0.0000 
     72 CA         -9.0720    2.2520    9.6020 C.3      15 GLL5        0.0000 
     73 CA         -8.1305    5.5787   11.8552 C.3       5 GLC5        0.0000 
     74 CA         -6.7945    7.8547   13.1188 C.3       5 GLC5        0.0000 
     75 CA         -6.0580    6.6910   11.4270 C.3      15 GLL5        0.0000 
     76 CA         -7.7200    8.3400   14.7620 C.3      10 GLP5        0.0000 
     77 CA         -4.6088    6.2224   10.5079 C.3       5 GLC5        0.0000 
     78 CA         -2.8380    5.5990   10.0950 C.3      10 GLP5        0.0000 
@<TRIPOS>BOND
@<TRIPOS>SUBSTRUCTURE
     1 ALC1       44 GROUP        1 X    ALC  0     ROOT ALC X 1
     2 SEC2        9 GROUP        1 X    SEC  0     **** SEC X 2
     3 LYC4        1 GROUP        1 X    LYC  0     **** LYC X 4
     4 ZIC7        6 GROUP        1 X    ZIC  0     **** ZIC X 5
     5 GLC5       41 GROUP        1 X    GLC  0     **** GLC X 6
     6 ALP1       46 GROUP        1 Y    ALP  0     ROOT ALP Y 8
     7 SEP2       11 GROUP        1 Y    SEP  0     **** SEP Y 9
     8 LYP4        3 GROUP        1 Y    LYP  0     **** LYP Y 11
     9 ZIP7        8 GROUP        1 Y    ZIP  0     **** ZIP Y 12
    10 GLP5       43 GROUP        1 Y    GLP  0     **** GLP Y 13
    11 ALL1       45 GROUP        1 Z    ALL  0     ROOT ALL Z 15
    12 SEL2       10 GROUP        1 Z    SEL  0     **** SEL Z 16
    13 LYL4        2 GROUP        1 Z    LYL  0     **** LYL Z 18
    14 ZIL7        7 GROUP        1 Z    ZIL  0     **** ZIL Z 19
    15 GLL5       42 GROUP        1 Z    GLL  0     **** GLL Z 20
@<TRIPOS>SET

