#    Name: 3rep_ATP_1_ligand
#    Modification time : Mon Apr  7 20:17:18 2014

@<TRIPOS>MOLECULE
3rep_ATP_1_ligand
   43    45     1     0     0
SMALL
NO_CHARGES


@<TRIPOS>ATOM
      1 PG         -6.5570   -2.4510   15.2780 P.3       1 ATP502      0.0000 
      2 O1G        -5.8590   -1.1610   15.6050 O.co2     1 ATP502      0.0000 
      3 O2G        -5.8170   -3.6960   15.8390 O.co2     1 ATP502      0.0000 
      4 O3G        -7.9730   -2.4180   16.0220 O.co2     1 ATP502      0.0000 
      5 PB         -6.8690   -1.7520   12.4950 P.3       1 ATP502      0.0000 
      6 O1B        -5.7680   -0.7600   12.6110 O.co2     1 ATP502      0.0000 
      7 O2B        -6.8990   -2.6770   11.3320 O.co2     1 ATP502      0.0000 
      8 O3B        -6.9130   -2.7170   13.7070 O.3       1 ATP502      0.0000 
      9 PA         -8.6460    0.4630   13.0730 P.3       1 ATP502      0.0000 
     10 O1A       -10.1060    0.4110   13.3750 O.co2     1 ATP502      0.0000 
     11 O2A        -7.6730    0.8980   14.1000 O.co2     1 ATP502      0.0000 
     12 O3A        -8.2780   -1.0160   12.5300 O.3       1 ATP502      0.0000 
     13 O5'        -8.4430    1.3050   11.7860 O.3       1 ATP502      0.0000 
     14 C5'        -9.4710    1.2730   10.7350 C.3       1 ATP502      0.0000 
     15 C4'        -9.0720    2.2520    9.6020 C.3       1 ATP502      0.0000 
     16 O4'        -9.0330    3.5950   10.1170 O.3       1 ATP502      0.0000 
     17 C3'        -7.6160    2.0270    9.1450 C.3       1 ATP502      0.0000 
     18 O3'        -7.5600    1.0410    8.0970 O.3       1 ATP502      0.0000 
     19 C2'        -7.2270    3.3800    8.5670 C.3       1 ATP502      0.0000 
     20 O2'        -7.7500    3.4760    7.2190 O.3       1 ATP502      0.0000 
     21 C1'        -8.0030    4.3370    9.4680 C.3       1 ATP502      0.0000 
     22 N9         -7.1290    5.0340   10.4580 N.pl3     1 ATP502      0.0000 
     23 C8         -6.5040    4.5600   11.5460 C.2       1 ATP502      0.0000 
     24 N7         -5.8540    5.5910   12.1530 N.2       1 ATP502      0.0000 
     25 C5         -6.0580    6.6910   11.4270 C.ar      1 ATP502      0.0000 
     26 C6         -5.6800    8.0480   11.5240 C.ar      1 ATP502      0.0000 
     27 N6         -4.8760    8.5590   12.4900 N.pl3     1 ATP502      0.0000 
     28 N1         -6.1200    8.9050   10.5820 N.ar      1 ATP502      0.0000 
     29 C2         -6.9130    8.5030    9.5990 C.ar      1 ATP502      0.0000 
     30 N3         -7.3050    7.2470    9.4500 N.ar      1 ATP502      0.0000 
     31 C4         -6.8900    6.3220   10.3660 C.ar      1 ATP502      0.0000 
     32 H         -10.4372    1.5842   11.1220 H         1 ATP502      0.0000 
     33 H          -9.5601    0.2799   10.3038 H         1 ATP502      0.0000 
     34 H          -9.7096    2.1605    8.7839 H         1 ATP502      0.0000 
     35 H          -7.0240    1.8190    9.9715 H         1 ATP502      0.0000 
     36 H          -6.2224    3.5353    8.6616 H         1 ATP502      0.0000 
     37 H          -8.4570    5.0921    8.8099 H         1 ATP502      0.0000 
     38 H          -6.5072    3.6460   11.8559 H         1 ATP502      0.0000 
     39 H          -4.6935    9.5408   12.4368 H         1 ATP502      0.0000 
     40 H          -4.5370    7.9087   13.1698 H         1 ATP502      0.0000 
     41 H          -7.2536    9.2311    8.8897 H         1 ATP502      0.0000 
     42 H          -7.8300    1.5297    7.2674 H         1 ATP502      0.0000 
     43 H          -6.9675    3.7425    6.6563 H         1 ATP502      0.0000 
@<TRIPOS>BOND
     1    2    1 ar   
     2    3    1 ar   
     3    4    1 ar   
     4    8    1 1    
     5    6    5 ar   
     6    7    5 ar   
     7    8    5 1    
     8   12    5 1    
     9   10    9 ar   
    10   11    9 ar   
    11   12    9 1    
    12   13    9 1    
    13   14   13 1    
    14   15   14 1    
    15   32   14 1    
    16   33   14 1    
    17   16   15 1    
    18   17   15 1    
    19   34   15 1    
    20   21   16 1    
    21   18   17 1    
    22   19   17 1    
    23   35   17 1    
    24   42   18 1    
    25   20   19 1    
    26   21   19 1    
    27   36   19 1    
    28   43   20 1    
    29   22   21 1    
    30   37   21 1    
    31   23   22 1    
    32   31   22 1    
    33   24   23 2    
    34   38   23 1    
    35   25   24 1    
    36   26   25 ar   
    37   31   25 ar   
    38   27   26 1    
    39   28   26 ar   
    40   39   27 1    
    41   40   27 1    
    42   29   28 ar   
    43   30   29 ar   
    44   41   29 1    
    45   31   30 ar   
@<TRIPOS>SUBSTRUCTURE
     1 ATP502      1 GROUP   
@<TRIPOS>SET

