#    Name: 4is9_LTF_1_INTS_M
#    Modification time : Tue Mar 25 04:27:38 2014

@<TRIPOS>MOLECULE
4is9_LTF_1_INTS_M
   54     0     6     0     0
SMALL
NO_CHARGES


@<TRIPOS>ATOM
      1 CA         19.2280   -6.6815   25.7840 C.3       2 GLC5        0.0000 
      2 CA         19.6020   -5.9840   27.4330 C.3       6 GLL5        0.0000 
      3 CA         18.8540   -7.3790   24.1350 C.3       4 GLP5        0.0000 
      4 CA         20.6405   -7.7150   26.5315 C.3       2 GLC5        0.0000 
      5 CA         21.6790   -9.4460   25.6300 C.3       4 GLP5        0.0000 
      6 CA         20.8965   -5.5710   25.8995 C.3       2 GLC5        0.0000 
      7 CA         22.1910   -5.1580   24.3660 C.3       4 GLP5        0.0000 
      8 CA         20.5085   -6.9725   29.2155 C.3       2 GLC5        0.0000 
      9 CA         21.4150   -7.9610   30.9980 C.3       4 GLP5        0.0000 
     10 CA         18.4835   -4.0675   30.0490 C.3       2 GLC5        0.0000 
     11 CA         19.1410   -4.6380   28.0000 C.3       6 GLL5        0.0000 
     12 CA         17.8260   -3.4970   32.0980 C.3       4 GLP5        0.0000 
     13 CA         18.0670   -3.9700   25.2590 C.3       2 GLC5        0.0000 
     14 CA         17.8030   -4.2450   27.3910 C.3       6 GLL5        0.0000 
     15 CA         18.3310   -3.6950   23.1270 C.3       4 GLP5        0.0000 
     16 CA         17.0215   -5.7080   28.4500 C.3       2 GLC5        0.0000 
     17 CA         16.2400   -7.1710   29.5090 C.3       4 GLP5        0.0000 
     18 CA         14.0270   -2.5835   27.4940 C.3       2 GLC5        0.0000 
     19 CA         14.4610   -3.9540   28.6770 C.3       6 GLL5        0.0000 
     20 CA         13.5930   -1.2130   26.3110 C.3       4 GLP5        0.0000 
     21 CA         13.2740   -4.6475   30.2245 C.3       2 GLC5        0.0000 
     22 CA         12.0870   -5.3410   31.7720 C.3       4 GLP5        0.0000 
     23 CA         15.3505   -5.5625   29.0930 C.3       2 GLC5        0.0000 
     24 CA         12.9520   -4.2260   27.7035 C.3       2 GLC5        0.0000 
     25 CA         11.4430   -4.4980   26.7300 C.3       4 GLP5        0.0000 
     26 CA         14.8740   -4.5740   26.6760 C.3       2 GLC5        0.0000 
     27 CA         15.2870   -5.1940   24.6750 C.3       4 GLP5        0.0000 
     28 CA         18.4965    0.1855   24.3390 C.3       2 GLC5        0.0000 
     29 CA         19.4610    1.6960   25.4420 C.3       6 GLL5        0.0000 
     30 CA         17.5320   -1.3250   23.2360 C.3       4 GLP5        0.0000 
     31 CA         20.6455    0.8295   24.0650 C.3       2 GLC5        0.0000 
     32 CA         21.8300   -0.0370   22.6880 C.3       4 GLP5        0.0000 
     33 CA         20.7955    0.7990   26.6360 C.3       2 GLC5        0.0000 
     34 CA         22.1300   -0.0980   27.8300 C.3       4 GLP5        0.0000 
     35 Zn         21.0525    4.3885   27.5800 Zn        1 ZIC7        0.0000 
     36 Zn         20.4690    3.4150   27.4460 Zn        5 ZIL7        0.0000 
     37 Zn         21.6360    5.3620   27.7140 Zn        3 ZIP7        0.0000 
     38 Zn         20.6795    5.7160   27.4755 Zn        1 ZIC7        0.0000 
     39 Zn         19.7230    6.0700   27.2370 Zn        5 ZIL7        0.0000 
     40 CA         18.5297   -6.3605   28.8023 C.3       2 GLC5        0.0000 
     41 CA         17.6880   -7.4100   29.8880 C.3       4 GLP5        0.0000 
     42 CA         20.8807   -4.5610   28.1142 C.3       2 GLC5        0.0000 
     43 CA         22.3900   -3.8110   28.5120 C.3       4 GLP5        0.0000 
     44 CA         16.4275   -4.3675   26.1288 C.3       2 GLC5        0.0000 
     45 CA         15.6148   -1.7503   26.8910 C.3       2 GLC5        0.0000 
     46 CA         17.3330   -2.8370   27.7740 C.3       6 GLL5        0.0000 
     47 CA         17.6397   -1.2067   25.2775 C.3       2 GLC5        0.0000 
     48 CA         17.9400   -1.7380   27.1680 C.3       6 GLL5        0.0000 
     49 CA         14.8555   -1.5900   27.5820 C.3       2 GLC5        0.0000 
     50 CA         16.3200   -2.6110   28.6960 C.3       6 GLL5        0.0000 
     51 CA         17.0986   -2.7603   30.3603 C.3       2 GLC5        0.0000 
     52 CA         15.9160   -1.3230   29.0100 C.3       6 GLL5        0.0000 
     53 CA         15.3170   -0.7743   27.1227 C.3       2 GLC5        0.0000 
     54 CA         16.5270   -0.2320   28.3990 C.3       6 GLL5        0.0000 
@<TRIPOS>BOND
@<TRIPOS>SUBSTRUCTURE
     1 ZIC7       35 GROUP        1 X    ZIC  0     ROOT ZIC X 5
     2 GLC5        1 GROUP        1 X    GLC  0     **** GLC X 6
     3 ZIP7       37 GROUP        1 Y    ZIP  0     ROOT ZIP Y 12
     4 GLP5        3 GROUP        1 Y    GLP  0     **** GLP Y 13
     5 ZIL7       36 GROUP        1 Z    ZIL  0     ROOT ZIL Z 19
     6 GLL5        2 GROUP        1 Z    GLL  0     **** GLL Z 20
@<TRIPOS>SET

