#    Name: 4is9_LTF_1_ligand
#    Modification time : Tue Mar 25 04:27:39 2014

@<TRIPOS>MOLECULE
4is9_LTF_1_ligand
   41    42     1     0     0
SMALL
NO_CHARGES


@<TRIPOS>ATOM
      1 CAO        19.6020   -5.9840   27.4330 C.3       1 LTF503      0.0000 
      2 CAN        19.1410   -4.6380   28.0000 C.3       1 LTF503      0.0000 
      3 CAK        17.8030   -4.2450   27.3910 C.3       1 LTF503      0.0000 
      4 CAJ        17.3330   -2.8370   27.7740 C.ar      1 LTF503      0.0000 
      5 CAI        17.9400   -1.7380   27.1680 C.ar      1 LTF503      0.0000 
      6 CAM        16.3200   -2.6110   28.6960 C.ar      1 LTF503      0.0000 
      7 OAV        15.7160   -3.6660   29.3110 O.3       1 LTF503      0.0000 
      8 CAP        14.4610   -3.9540   28.6770 C.3       1 LTF503      0.0000 
      9 CAL        15.9160   -1.3230   29.0100 C.ar      1 LTF503      0.0000 
     10 OAU        14.9040   -1.1760   29.9150 O.3       1 LTF503      0.0000 
     11 CAQ        14.8670    0.1440   30.4600 C.3       1 LTF503      0.0000 
     12 CAH        16.5270   -0.2320   28.3990 C.ar      1 LTF503      0.0000 
     13 CAG        17.5550   -0.4390   27.4700 C.ar      1 LTF503      0.0000 
     14 CAF        18.1770    0.6370   26.8300 C.2       1 LTF503      0.0000 
     15 N          17.7960    1.9330   26.8970 N.2       1 LTF503      0.0000 
     16 OAR        18.7840    0.4720   25.6130 O.3       1 LTF503      0.0000 
     17 CB         19.4610    1.6960   25.4420 C.3       1 LTF503      0.0000 
     18 CA         18.6280    2.8020   26.0160 C.3       1 LTF503      0.0000 
     19 C          19.4430    3.7520   26.8790 C.2       1 LTF503      0.0000 
     20 O          20.4690    3.4150   27.4460 O.2       1 LTF503      0.0000 
     21 NAB        19.0560    5.0150   26.7140 N.am      1 LTF503      0.0000 
     22 OAS        19.7230    6.0700   27.2370 O.3       1 LTF503      0.0000 
     23 H          19.8829   -3.8803   27.7665 H         1 LTF503      0.0000 
     24 H          19.0389   -4.7217   29.0778 H         1 LTF503      0.0000 
     25 H          17.0354   -4.9715   27.7053 H         1 LTF503      0.0000 
     26 H          17.8736   -4.3074   26.2924 H         1 LTF503      0.0000 
     27 H          18.6972   -1.8975   26.4752 H         1 LTF503      0.0000 
     28 H          16.2286    0.7223   28.6254 H         1 LTF503      0.0000 
     29 H          19.6428    1.9180   24.3813 H         1 LTF503      0.0000 
     30 H          20.4346    1.6995   25.9515 H         1 LTF503      0.0000 
     31 H          18.0607    3.2490   25.3072 H         1 LTF503      0.0000 
     32 H          18.1777    5.2151   26.1427 H         1 LTF503      0.0000 
     33 H          19.7138   -5.9499   26.4399 H         1 LTF503      0.0000 
     34 H          20.4806   -6.2676   27.8173 H         1 LTF503      0.0000 
     35 H          18.9470   -6.7137   27.6294 H         1 LTF503      0.0000 
     36 H          14.5777   -4.1890   27.7120 H         1 LTF503      0.0000 
     37 H          13.9933   -4.7237   29.1116 H         1 LTF503      0.0000 
     38 H          13.8377   -3.1729   28.7152 H         1 LTF503      0.0000 
     39 H          15.7191    0.3761   30.9292 H         1 LTF503      0.0000 
     40 H          14.7253    0.8347   29.7509 H         1 LTF503      0.0000 
     41 H          14.1278    0.2507   31.1250 H         1 LTF503      0.0000 
@<TRIPOS>BOND
     1    2    1 1    
     2   33    1 1    
     3   34    1 1    
     4   35    1 1    
     5    3    2 1    
     6   23    2 1    
     7   24    2 1    
     8    4    3 1    
     9   25    3 1    
    10   26    3 1    
    11    5    4 ar   
    12    6    4 ar   
    13   13    5 ar   
    14   27    5 1    
    15    7    6 1    
    16    9    6 ar   
    17    8    7 1    
    18   36    8 1    
    19   37    8 1    
    20   38    8 1    
    21   10    9 1    
    22   12    9 ar   
    23   11   10 1    
    24   39   11 1    
    25   40   11 1    
    26   41   11 1    
    27   13   12 ar   
    28   28   12 1    
    29   14   13 1    
    30   15   14 2    
    31   16   14 1    
    32   18   15 1    
    33   17   16 1    
    34   18   17 1    
    35   29   17 1    
    36   30   17 1    
    37   19   18 1    
    38   31   18 1    
    39   20   19 2    
    40   21   19 am   
    41   22   21 1    
    42   32   21 1    
@<TRIPOS>SUBSTRUCTURE
     1 LTF503      1 GROUP   
@<TRIPOS>SET

