#    Name: 4dmr_PGD_2_INTS_M
#    Modification time : Mon Apr  7 22:53:18 2014

@<TRIPOS>MOLECULE
4dmr_PGD_2_INTS_M
  109     0    12     0     0
SMALL
NO_CHARGES


@<TRIPOS>ATOM
      1 NZ         -7.6740   56.6205   35.1460 N.4       3 LYC4        0.0000 
      2 NZ         -7.9500   55.4100   35.4300 N.4      11 LYL4        0.0000 
      3 NZ         -7.3980   57.8310   34.8620 N.4       7 LYP4        0.0000 
      4 N          -7.6740   56.6205   35.1460 N.am      2 SEC2        0.0000 
      5 N          -7.9500   55.4100   35.4300 N.am     10 SEL2        0.0000 
      6 N          -7.3980   57.8310   34.8620 N.am      6 SEP2        0.0000 
      7 N          -6.5695   55.3310   35.7910 N.am      2 SEC2        0.0000 
      8 N          -5.1890   55.2520   36.1520 N.am      6 SEP2        0.0000 
      9 N          -7.9010   51.6105   37.2525 N.am      2 SEC2        0.0000 
     10 N          -8.0360   53.0760   37.0680 N.am     10 SEL2        0.0000 
     11 N          -7.7660   50.1450   37.4370 N.am      6 SEP2        0.0000 
     12 N          -7.7250   52.7770   38.3960 N.am      2 SEC2        0.0000 
     13 N          -7.4140   52.4780   39.7240 N.am      6 SEP2        0.0000 
     14 N         -12.7220   51.3145   34.9880 N.am      2 SEC2        0.0000 
     15 N         -11.9560   52.3580   34.3800 N.am     10 SEL2        0.0000 
     16 N         -13.4880   50.2710   35.5960 N.am      6 SEP2        0.0000 
     17 NZ         -8.7950   50.5090   36.5005 N.4       3 LYC4        0.0000 
     18 NZ         -9.8240   50.8730   35.5640 N.4      11 LYL4        0.0000 
     19 NZ         -7.8690   48.8550   37.1560 N.4       7 LYP4        0.0000 
     20 N          -8.7950   50.5090   36.5005 N.am      2 SEC2        0.0000 
     21 N          -9.8240   50.8730   35.5640 N.am     10 SEL2        0.0000 
     22 N          -9.2225   49.6910   35.8390 N.am      2 SEC2        0.0000 
     23 N          -8.6210   48.5090   36.1140 N.am      6 SEP2        0.0000 
     24 CA        -13.9315   55.7340   37.4730 C.3       4 GLC5        0.0000 
     25 CA        -11.8580   56.4010   37.0510 C.3      12 GLL5        0.0000 
     26 CA        -16.0050   55.0670   37.8950 C.3       8 GLP5        0.0000 
     27 N         -12.2985   54.4560   38.6845 N.am      2 SEC2        0.0000 
     28 N         -12.2510   55.7330   38.2510 N.am     10 SEL2        0.0000 
     29 N         -12.3460   53.1790   39.1180 N.am      6 SEP2        0.0000 
     30 O         -12.2060   59.3480   38.2320 O.2       1 ALC1        0.0000 
     31 O         -11.2650   58.6980   36.9390 O.2       9 ALL1        0.0000 
     32 O         -13.1470   59.9980   39.5250 O.2       5 ALP1        0.0000 
     33 O         -12.5210   59.0335   37.2400 O.2       1 ALC1        0.0000 
     34 O         -13.7770   59.3690   37.5410 O.2       5 ALP1        0.0000 
     35 O         -11.9690   59.3505   39.5430 O.2       1 ALC1        0.0000 
     36 O         -10.7910   58.7030   39.5610 O.2       9 ALL1        0.0000 
     37 CA        -14.1010   55.9145   38.5640 C.3       4 GLC5        0.0000 
     38 CA        -12.1970   56.7620   39.2330 C.3      12 GLL5        0.0000 
     39 CA        -13.0835   57.9045   40.7685 C.3       4 GLC5        0.0000 
     40 CA        -13.9700   59.0470   42.3040 C.3       8 GLP5        0.0000 
     41 CA        -11.6115   54.6975   39.2145 C.3       4 GLC5        0.0000 
     42 CA        -11.0260   52.6330   39.1960 C.3       8 GLP5        0.0000 
     43 N         -10.3860   55.0135   43.1485 N.am      2 SEC2        0.0000 
     44 N         -11.7220   55.0870   42.4940 N.am     10 SEL2        0.0000 
     45 N          -9.0500   54.9400   43.8030 N.am      6 SEP2        0.0000 
     46 CA        -12.1865   53.7005   43.3760 C.3       4 GLC5        0.0000 
     47 CA        -13.0580   55.2470   42.4050 C.3      12 GLL5        0.0000 
     48 CA        -11.3150   52.1540   44.3470 C.3       8 GLP5        0.0000 
     49 N         -14.0030   54.0015   45.8385 N.am      2 SEC2        0.0000 
     50 N         -13.8280   54.3040   44.3530 N.am     10 SEL2        0.0000 
     51 N         -14.1780   53.6990   47.3240 N.am      6 SEP2        0.0000 
     52 O         -16.2480   54.3990   43.6390 O.2       1 ALC1        0.0000 
     53 O         -15.3420   55.1420   42.9610 O.2       9 ALL1        0.0000 
     54 O         -17.1540   53.6560   44.3170 O.2       5 ALP1        0.0000 
     55 O         -17.0475   54.8690   43.0575 O.2       1 ALC1        0.0000 
     56 O         -18.7530   54.5960   43.1540 O.2       5 ALP1        0.0000 
     57 O         -17.4115   56.9720   40.4120 O.2       1 ALC1        0.0000 
     58 O         -17.0270   56.0160   41.5250 O.2       9 ALL1        0.0000 
     59 O         -17.7960   57.9280   39.2990 O.2       5 ALP1        0.0000 
     60 O         -17.8900   55.3060   42.3395 O.2       1 ALC1        0.0000 
     61 CA        -14.6355   54.8505   40.0105 C.3       4 GLC5        0.0000 
     62 CA        -13.3920   55.8640   41.2480 C.3      12 GLL5        0.0000 
     63 CA        -15.8790   53.8370   38.7730 C.3       8 GLP5        0.0000 
     64 CA        -12.2090   54.2485   40.2220 C.3       4 GLC5        0.0000 
     65 CA         -8.9100   48.4315   31.2375 C.3       4 GLC5        0.0000 
     66 CA         -7.1110   49.6320   31.3720 C.3      12 GLL5        0.0000 
     67 CA        -10.7090   47.2310   31.1030 C.3       8 GLP5        0.0000 
     68 CA         -8.2555   49.1190   29.5615 C.3       4 GLC5        0.0000 
     69 CA         -9.4000   48.6060   27.7510 C.3       8 GLP5        0.0000 
     70 CA         -7.5425   46.7200   32.8710 C.3       4 GLC5        0.0000 
     71 CA         -7.2680   48.1750   32.4500 C.3      12 GLL5        0.0000 
     72 CA         -7.8170   45.2650   33.2920 C.3       8 GLP5        0.0000 
     73 CA         -9.0950   47.8895   32.4355 C.3       4 GLC5        0.0000 
     74 CA        -10.9220   47.6040   32.4210 C.3       8 GLP5        0.0000 
     75 N          -4.8540   51.7865   31.9585 N.am      2 SEC2        0.0000 
     76 N          -4.6670   51.7470   30.5410 N.am     10 SEL2        0.0000 
     77 N          -5.0410   51.8260   33.3760 N.am      6 SEP2        0.0000 
     78 N          -1.0565   53.3645   31.1505 N.am      2 SEC2        0.0000 
     79 N          -2.5160   53.5320   31.1590 N.am     10 SEL2        0.0000 
     80 N           0.4030   53.1970   31.1420 N.am      6 SEP2        0.0000 
     81 O          -2.0485   55.8570   29.7780 O.2       1 ALC1        0.0000 
     82 O          -3.4060   55.2080   30.0110 O.2       9 ALL1        0.0000 
     83 O          -0.6910   56.5060   29.5450 O.2       5 ALP1        0.0000 
     84 O          -3.6880   57.4215   30.0890 O.2       1 ALC1        0.0000 
     85 O          -4.3750   57.0430   28.7370 O.2       9 ALL1        0.0000 
     86 O          -3.0010   57.8000   31.4410 O.2       5 ALP1        0.0000 
     87 CA         -8.1815   53.2750   29.7085 C.3       4 GLC5        0.0000 
     88 CA         -6.9800   51.6700   29.6210 C.3      12 GLL5        0.0000 
     89 CA         -9.3830   54.8800   29.7960 C.3       8 GLP5        0.0000 
     90 CA        -13.3400   55.7410   35.4153 C.3       4 GLC5        0.0000 
     91 CA        -11.2460   55.3210   36.1320 C.3      12 GLL5        0.0000 
     92 CA        -15.1280   55.6210   34.2390 C.3       8 GLP5        0.0000 
     93 CA        -11.2890   54.2470   37.8937 C.3       4 GLC5        0.0000 
     94 CA         -8.7988   56.8630   38.2975 C.3       4 GLC5        0.0000 
     95 CA        -10.8430   57.4560   37.4530 C.3      12 GLL5        0.0000 
     96 CA         -6.7470   56.2790   38.3870 C.3       8 GLP5        0.0000 
     97 CA        -13.5975   57.3012   42.0652 C.3       4 GLC5        0.0000 
     98 CA         -8.5385   53.1075   31.7072 C.3       4 GLC5        0.0000 
     99 CA         -8.3880   51.1890   32.9320 C.3      12 GLL5        0.0000 
    100 CA         -8.8850   55.2030   31.2040 C.3       8 GLP5        0.0000 
    101 CA         -9.5570   49.3080   32.3158 C.3       4 GLC5        0.0000 
    102 CA         -6.6720   51.9335   33.2498 C.3       4 GLC5        0.0000 
    103 CA         -5.1520   52.8550   34.2890 C.3       8 GLP5        0.0000 
    104 CA         -4.8718   48.1352   29.1107 C.3       4 GLC5        0.0000 
    105 CA         -5.9500   49.7130   30.6870 C.3      12 GLL5        0.0000 
    106 CA         -4.3650   47.2430   27.5420 C.3       8 GLP5        0.0000 
    107 CA         -5.6327   51.2750   27.8758 C.3       4 GLC5        0.0000 
    108 CA         -5.6370   50.9120   29.8280 C.3      12 GLL5        0.0000 
    109 CA         -4.9570   51.2590   26.0270 C.3       8 GLP5        0.0000 
@<TRIPOS>BOND
@<TRIPOS>SUBSTRUCTURE
     1 ALC1       30 GROUP        1 X    ALC  0     ROOT ALC X 1
     2 SEC2        4 GROUP        1 X    SEC  0     **** SEC X 2
     3 LYC4        1 GROUP        1 X    LYC  0     **** LYC X 4
     4 GLC5       24 GROUP        1 X    GLC  0     **** GLC X 6
     5 ALP1       32 GROUP        1 Y    ALP  0     ROOT ALP Y 8
     6 SEP2        6 GROUP        1 Y    SEP  0     **** SEP Y 9
     7 LYP4        3 GROUP        1 Y    LYP  0     **** LYP Y 11
     8 GLP5       26 GROUP        1 Y    GLP  0     **** GLP Y 13
     9 ALL1       31 GROUP        1 Z    ALL  0     ROOT ALL Z 15
    10 SEL2        5 GROUP        1 Z    SEL  0     **** SEL Z 16
    11 LYL4        2 GROUP        1 Z    LYL  0     **** LYL Z 18
    12 GLL5       25 GROUP        1 Z    GLL  0     **** GLL Z 20
@<TRIPOS>SET

