#    Name: 4dmr_PGD_2_ligand
#    Modification time : Mon Apr  7 22:53:19 2014

@<TRIPOS>MOLECULE
4dmr_PGD_2_ligand
   67    72     1     0     0
SMALL
NO_CHARGES


@<TRIPOS>ATOM
      1 PB         -8.9000   54.1460   36.0720 P.3       1 PGD783      0.0000 
      2 O1B        -7.9500   55.4100   35.4300 O.co2     1 PGD783      0.0000 
      3 O2B        -8.0360   53.0760   37.0680 O.co2     1 PGD783      0.0000 
      4 O3B        -9.4740   53.3800   34.7750 O.3       1 PGD783      0.0000 
      5 O3A        -9.7170   51.6520   32.8170 O.3       1 PGD783      0.0000 
      6 PA        -10.2900   52.0240   34.4130 P.3       1 PGD783      0.0000 
      7 O1A       -11.9560   52.3580   34.3800 O.co2     1 PGD783      0.0000 
      8 O2A        -9.8240   50.8730   35.5640 O.co2     1 PGD783      0.0000 
      9 O5'       -10.2920   54.6970   36.9230 O.3       1 PGD783      0.0000 
     10 C5'       -11.2460   55.3210   36.1320 C.3       1 PGD783      0.0000 
     11 C4'       -11.8580   56.4010   37.0510 C.3       1 PGD783      0.0000 
     12 O4'       -12.2510   55.7330   38.2510 O.3       1 PGD783      0.0000 
     13 C3'       -10.8430   57.4560   37.4530 C.3       1 PGD783      0.0000 
     14 O3'       -11.2650   58.6980   36.9390 O.3       1 PGD783      0.0000 
     15 C2'       -10.8580   57.4380   38.9630 C.3       1 PGD783      0.0000 
     16 O2'       -10.7910   58.7030   39.5610 O.3       1 PGD783      0.0000 
     17 C1'       -12.1970   56.7620   39.2330 C.3       1 PGD783      0.0000 
     18 N9        -12.2880   56.1220   40.5420 N.pl3     1 PGD783      0.0000 
     19 C8        -11.2820   55.6490   41.3270 C.2       1 PGD783      0.0000 
     20 N7        -11.7220   55.0870   42.4940 N.2       1 PGD783      0.0000 
     21 C5        -13.0580   55.2470   42.4050 C.2       1 PGD783      0.0000 
     22 C6        -14.0500   54.8650   43.2940 C.2       1 PGD783      0.0000 
     23 O6        -13.8280   54.3040   44.3530 O.2       1 PGD783      0.0000 
     24 N1        -15.3420   55.1420   42.9610 N.am      1 PGD783      0.0000 
     25 C2        -15.6570   55.7910   41.7890 C.2       1 PGD783      0.0000 
     26 N2        -17.0270   56.0160   41.5250 N.pl3     1 PGD783      0.0000 
     27 N3        -14.6820   56.1390   40.9090 N.2       1 PGD783      0.0000 
     28 C4        -13.3920   55.8640   41.2480 C.2       1 PGD783      0.0000 
     29 C10        -8.3880   51.1890   32.9320 C.3       1 PGD783      0.0000 
     30 C11        -7.9960   50.8350   31.4890 C.3       1 PGD783      0.0000 
     31 O11        -7.5570   52.0100   30.8500 O.3       1 PGD783      0.0000 
     32 C12        -7.1110   49.6320   31.3720 C.2       1 PGD783      0.0000 
     33 S12        -7.2680   48.1750   32.4500 S.3       1 PGD783      0.0000 
     34 C13        -5.9500   49.7130   30.6870 C.2       1 PGD783      0.0000 
     35 S13        -4.8070   48.3420   30.6720 S.3       1 PGD783      0.0000 
     36 C14        -5.6370   50.9120   29.8280 C.3       1 PGD783      0.0000 
     37 N15        -4.6670   51.7470   30.5410 N.2       1 PGD783      0.0000 
     38 C16        -4.5310   53.1120   30.1260 C.2       1 PGD783      0.0000 
     39 C17        -3.4450   53.9110   30.4570 C.2       1 PGD783      0.0000 
     40 O17        -2.5160   53.5320   31.1590 O.2       1 PGD783      0.0000 
     41 N18        -3.4060   55.2080   30.0110 N.am      1 PGD783      0.0000 
     42 C19        -4.3890   55.7100   29.2240 C.2       1 PGD783      0.0000 
     43 N19        -4.3750   57.0430   28.7370 N.pl3     1 PGD783      0.0000 
     44 N20        -5.4340   54.9390   28.8740 N.2       1 PGD783      0.0000 
     45 C21        -5.5230   53.6560   29.3190 C.2       1 PGD783      0.0000 
     46 N22        -6.6800   52.9140   28.9160 N.2       1 PGD783      0.0000 
     47 C23        -6.9800   51.6700   29.6210 C.3       1 PGD783      0.0000 
     48 H         -12.0499   54.6684   35.8294 H         1 PGD783      0.0000 
     49 H         -10.8313   55.8298   35.2760 H         1 PGD783      0.0000 
     50 H         -12.6800   56.8482   36.5668 H         1 PGD783      0.0000 
     51 H          -9.8922   57.1473   37.1087 H         1 PGD783      0.0000 
     52 H         -10.0985   56.7510   39.2880 H         1 PGD783      0.0000 
     53 H         -12.9746   57.4648   39.0752 H         1 PGD783      0.0000 
     54 H         -10.3223   55.7045   41.0804 H         1 PGD783      0.0000 
     55 H         -16.1142   54.8580   43.6053 H         1 PGD783      0.0000 
     56 H         -17.2367   56.5199   40.6870 H         1 PGD783      0.0000 
     57 H         -17.6704   55.6523   42.1986 H         1 PGD783      0.0000 
     58 H          -8.3064   50.2955   33.5224 H         1 PGD783      0.0000 
     59 H          -7.7102   51.9464   33.2793 H         1 PGD783      0.0000 
     60 H          -8.9992   50.5421   31.0099 H         1 PGD783      0.0000 
     61 H          -5.2792   50.5918   28.8900 H         1 PGD783      0.0000 
     62 H          -2.6003   55.8145   30.2872 H         1 PGD783      0.0000 
     63 H          -4.7824   57.1863   27.8351 H         1 PGD783      0.0000 
     64 H          -3.9588   57.7263   29.3370 H         1 PGD783      0.0000 
     65 H          -7.6105   51.0554   29.0207 H         1 PGD783      0.0000 
     66 H         -12.1957   58.8181   37.2844 H         1 PGD783      0.0000 
     67 H         -11.7218   59.0645   39.5066 H         1 PGD783      0.0000 
@<TRIPOS>BOND
     1    2    1 ar   
     2    3    1 ar   
     3    4    1 1    
     4    9    1 1    
     5    6    4 1    
     6    6    5 1    
     7   29    5 1    
     8    7    6 ar   
     9    8    6 ar   
    10   10    9 1    
    11   11   10 1    
    12   48   10 1    
    13   49   10 1    
    14   12   11 1    
    15   13   11 1    
    16   50   11 1    
    17   17   12 1    
    18   14   13 1    
    19   15   13 1    
    20   51   13 1    
    21   66   14 1    
    22   16   15 1    
    23   17   15 1    
    24   52   15 1    
    25   67   16 1    
    26   18   17 1    
    27   53   17 1    
    28   19   18 1    
    29   28   18 1    
    30   20   19 2    
    31   54   19 1    
    32   21   20 1    
    33   22   21 1    
    34   28   21 2    
    35   23   22 2    
    36   24   22 am   
    37   25   24 1    
    38   55   24 1    
    39   26   25 1    
    40   27   25 2    
    41   56   26 1    
    42   57   26 1    
    43   28   27 1    
    44   30   29 1    
    45   58   29 1    
    46   59   29 1    
    47   31   30 1    
    48   32   30 1    
    49   60   30 1    
    50   47   31 1    
    51   33   32 1    
    52   34   32 2    
    53   35   34 1    
    54   36   34 1    
    55   37   36 1    
    56   47   36 1    
    57   61   36 1    
    58   38   37 2    
    59   39   38 1    
    60   45   38 1    
    61   40   39 2    
    62   41   39 am   
    63   42   41 1    
    64   62   41 1    
    65   43   42 1    
    66   44   42 2    
    67   63   43 1    
    68   64   43 1    
    69   45   44 1    
    70   46   45 2    
    71   47   46 1    
    72   65   47 1    
@<TRIPOS>SUBSTRUCTURE
     1 PGD783      1 GROUP   
@<TRIPOS>SET

