#    Name: 1ndy_FR3_1_INTS_M
#    Modification time : Mon Mar 24 18:03:35 2014

@<TRIPOS>MOLECULE
1ndy_FR3_1_INTS_M
   62     0     9     0     0
SMALL
NO_CHARGES


@<TRIPOS>ATOM
      1 O          50.8470   50.0545   22.9650 O.2       1 ALC1        0.0000 
      2 O          50.5600   50.3070   21.5210 O.2       7 ALL1        0.0000 
      3 O          51.1340   49.8020   24.4090 O.2       4 ALP1        0.0000 
      4 O          50.2640   48.9045   21.0545 O.2       1 ALC1        0.0000 
      5 O          49.9680   47.5020   20.5880 O.2       4 ALP1        0.0000 
      6 CA         49.2735   55.9365   23.0180 C.3       3 GLC5        0.0000 
      7 CA         50.9440   56.4700   21.6690 C.3       9 GLL5        0.0000 
      8 CA         47.6030   55.4030   24.3670 C.3       6 GLP5        0.0000 
      9 CA         54.2605   57.9100   22.6245 C.3       3 GLC5        0.0000 
     10 CA         52.4470   57.1350   21.6080 C.3       9 GLL5        0.0000 
     11 CA         56.0740   58.6850   23.6410 C.3       6 GLP5        0.0000 
     12 CA         53.0790   59.1655   20.9335 C.3       3 GLC5        0.0000 
     13 CA         53.7110   61.1960   20.2590 C.3       6 GLP5        0.0000 
     14 CA         52.3200   57.9475   19.5245 C.3       3 GLC5        0.0000 
     15 CA         52.1930   58.7600   17.4410 C.3       6 GLP5        0.0000 
     16 N          53.7290   55.1420   22.5665 N.am      2 SEC2        0.0000 
     17 N          53.3600   56.5060   22.6140 N.am      8 SEL2        0.0000 
     18 N          54.0980   53.7780   22.5190 N.am      5 SEP2        0.0000 
     19 O          52.7830   56.6910   23.8175 O.2       1 ALC1        0.0000 
     20 O          53.3600   56.5060   22.6140 O.2       7 ALL1        0.0000 
     21 O          52.2060   56.8760   25.0210 O.2       4 ALP1        0.0000 
     22 O          52.1610   57.4410   23.3590 O.2       1 ALC1        0.0000 
     23 O          50.9620   58.3760   24.1040 O.2       4 ALP1        0.0000 
     24 CA         48.1130   55.4090   22.0155 C.3       3 GLC5        0.0000 
     25 CA         48.7150   56.5170   20.5210 C.3       9 GLL5        0.0000 
     26 CA         47.5110   54.3010   23.5100 C.3       6 GLP5        0.0000 
     27 CA         47.0800   54.1360   14.1975 C.3       3 GLC5        0.0000 
     28 CA         46.9520   54.9460   16.1170 C.3       9 GLL5        0.0000 
     29 CA         47.2080   53.3260   12.2780 C.3       6 GLP5        0.0000 
     30 CA         47.9870   53.2080   14.6110 C.3       3 GLC5        0.0000 
     31 CA         47.3560   53.6240   16.4480 C.3       9 GLL5        0.0000 
     32 CA         48.6180   52.7920   12.7740 C.3       6 GLP5        0.0000 
     33 CA         52.4682   53.2092   22.3335 C.3       3 GLC5        0.0000 
     34 CA         50.9530   53.9590   20.7880 C.3       9 GLL5        0.0000 
     35 CA         54.0940   53.0450   23.5940 C.3       6 GLP5        0.0000 
     36 CA         50.7747   58.6332   21.0102 C.3       3 GLC5        0.0000 
     37 CA         49.8540   60.4640   20.3820 C.3       6 GLP5        0.0000 
     38 CA         49.6698   58.5810   20.4143 C.3       3 GLC5        0.0000 
     39 CA         50.2560   56.8790   20.3720 C.3       9 GLL5        0.0000 
     40 CA         50.0733   57.3075   18.6513 C.3       3 GLC5        0.0000 
     41 CA         50.6610   57.9170   16.8560 C.3       6 GLP5        0.0000 
     42 CA         46.2610   55.4650   18.7183 C.3       3 GLC5        0.0000 
     43 CA         47.9560   56.7980   19.2230 C.3       9 GLL5        0.0000 
     44 CA         44.6450   54.6600   18.6880 C.3       6 GLP5        0.0000 
     45 CA         48.8100   58.9555   19.7178 C.3       3 GLC5        0.0000 
     46 CA         49.2135   57.6820   17.9548 C.3       3 GLC5        0.0000 
     47 CA         47.5760   58.0960   18.8840 C.3       9 GLL5        0.0000 
     48 CA         45.7340   56.2490   17.9378 C.3       3 GLC5        0.0000 
     49 CA         46.9220   58.3730   17.6490 C.3       9 GLL5        0.0000 
     50 CA         48.7420   57.8775   17.0218 C.3       3 GLC5        0.0000 
     51 CA         46.7240   57.3030   16.7260 C.3       9 GLL5        0.0000 
     52 CA         49.0545   56.8927   17.2655 C.3       3 GLC5        0.0000 
     53 CA         47.0980   55.9950   17.0760 C.3       9 GLL5        0.0000 
     54 CA         48.9380   55.2862   16.5310 C.3       3 GLC5        0.0000 
     55 CA         47.7980   55.7420   18.2740 C.3       9 GLL5        0.0000 
     56 CA         50.4280   54.7040   15.3870 C.3       6 GLP5        0.0000 
     57 CA         45.7250   52.8085   16.1038 C.3       3 GLC5        0.0000 
     58 CA         44.2960   51.3320   15.9250 C.3       6 GLP5        0.0000 
     59 CA         48.7910   54.4945   15.8347 C.3       3 GLC5        0.0000 
     60 CA         49.2615   54.3075   16.7750 C.3       3 GLC5        0.0000 
     61 CA         48.1790   54.4260   18.6170 C.3       9 GLL5        0.0000 
     62 CA         46.1439   54.4446   18.0153 C.3       3 GLC5        0.0000 
@<TRIPOS>BOND
@<TRIPOS>SUBSTRUCTURE
     1 ALC1        1 GROUP        1 X    ALC  0     ROOT ALC X 1
     2 SEC2       16 GROUP        1 X    SEC  0     **** SEC X 2
     3 GLC5        6 GROUP        1 X    GLC  0     **** GLC X 6
     4 ALP1        3 GROUP        1 Y    ALP  0     ROOT ALP Y 8
     5 SEP2       18 GROUP        1 Y    SEP  0     **** SEP Y 9
     6 GLP5        8 GROUP        1 Y    GLP  0     **** GLP Y 13
     7 ALL1        2 GROUP        1 Z    ALL  0     ROOT ALL Z 15
     8 SEL2       17 GROUP        1 Z    SEL  0     **** SEL Z 16
     9 GLL5        7 GROUP        1 Z    GLL  0     **** GLL Z 20
@<TRIPOS>SET

