#    Name: 1ndy_FR3_1_ligand
#    Modification time : Mon Mar 24 18:03:35 2014

@<TRIPOS>MOLECULE
1ndy_FR3_1_ligand
   42    44     1     0     0
SMALL
NO_CHARGES


@<TRIPOS>ATOM
      1 C1         50.9530   53.9590   20.7880 C.2       1 FR31001     0.0000 
      2 N2         51.0310   54.9480   21.7970 N.pl3     1 FR31001     0.0000 
      3 C3         50.8750   54.2580   22.9380 C.2       1 FR31001     0.0000 
      4 N4         50.6810   52.9280   22.7430 N.2       1 FR31001     0.0000 
      5 C5         50.7320   52.7880   21.3580 C.2       1 FR31001     0.0000 
      6 C8         50.5960   51.4430   20.7830 C.2       1 FR31001     0.0000 
      7 O9         50.3550   51.3630   19.6040 O.2       1 FR31001     0.0000 
      8 N10        50.5600   50.3070   21.5210 N.am      1 FR31001     0.0000 
      9 C13        50.9440   56.4700   21.6690 C.3       1 FR31001     0.0000 
     10 C14        52.4470   57.1350   21.6080 C.3       1 FR31001     0.0000 
     11 O15        53.3600   56.5060   22.6140 O.3       1 FR31001     0.0000 
     12 C18        50.2560   56.8790   20.3720 C.3       1 FR31001     0.0000 
     13 C19        48.7150   56.5170   20.5210 C.3       1 FR31001     0.0000 
     14 C22        47.9560   56.7980   19.2230 C.ar      1 FR31001     0.0000 
     15 C25        47.5760   58.0960   18.8840 C.ar      1 FR31001     0.0000 
     16 C26        46.9220   58.3730   17.6490 C.ar      1 FR31001     0.0000 
     17 C27        46.7240   57.3030   16.7260 C.ar      1 FR31001     0.0000 
     18 C28        47.0980   55.9950   17.0760 C.ar      1 FR31001     0.0000 
     19 C29        47.7980   55.7420   18.2740 C.ar      1 FR31001     0.0000 
     20 C2         46.9520   54.9460   16.1170 C.ar      1 FR31001     0.0000 
     21 C4         48.1790   54.4260   18.6170 C.ar      1 FR31001     0.0000 
     22 C6         47.3560   53.6240   16.4480 C.ar      1 FR31001     0.0000 
     23 C7         48.0110   53.3960   17.7090 C.ar      1 FR31001     0.0000 
     24 H          51.0522   54.1614   19.8533 H         1 FR31001     0.0000 
     25 H          50.8980   54.6740   23.8447 H         1 FR31001     0.0000 
     26 H          50.6750   50.4196   22.5080 H         1 FR31001     0.0000 
     27 H          50.4216   49.4567   21.0133 H         1 FR31001     0.0000 
     28 H          50.4581   56.9050   22.4959 H         1 FR31001     0.0000 
     29 H          52.3117   58.1932   21.7940 H         1 FR31001     0.0000 
     30 H          52.7987   56.9826   20.5952 H         1 FR31001     0.0000 
     31 H          50.6467   56.3242   19.5475 H         1 FR31001     0.0000 
     32 H          50.3338   57.9332   20.2208 H         1 FR31001     0.0000 
     33 H          48.3109   57.1165   21.3275 H         1 FR31001     0.0000 
     34 H          48.6451   55.4664   20.7748 H         1 FR31001     0.0000 
     35 H          47.7655   58.8769   19.5285 H         1 FR31001     0.0000 
     36 H          46.6059   59.3034   17.4312 H         1 FR31001     0.0000 
     37 H          46.3101   57.4980   15.8144 H         1 FR31001     0.0000 
     38 H          46.5602   55.1477   15.2020 H         1 FR31001     0.0000 
     39 H          48.5801   54.2467   19.5449 H         1 FR31001     0.0000 
     40 H          47.1909   52.8570   15.8184 H         1 FR31001     0.0000 
     41 H          48.3494   52.4478   17.9146 H         1 FR31001     0.0000 
     42 H          52.8913   56.6126   23.4909 H         1 FR31001     0.0000 
@<TRIPOS>BOND
     1    2    1 1    
     2    5    1 2    
     3   24    1 1    
     4    3    2 1    
     5    9    2 1    
     6    4    3 2    
     7   25    3 1    
     8    5    4 1    
     9    6    5 1    
    10    7    6 2    
    11    8    6 am   
    12   26    8 1    
    13   27    8 1    
    14   10    9 1    
    15   12    9 1    
    16   28    9 1    
    17   11   10 1    
    18   29   10 1    
    19   30   10 1    
    20   42   11 1    
    21   13   12 1    
    22   31   12 1    
    23   32   12 1    
    24   14   13 1    
    25   33   13 1    
    26   34   13 1    
    27   15   14 ar   
    28   19   14 ar   
    29   16   15 ar   
    30   35   15 1    
    31   17   16 ar   
    32   36   16 1    
    33   18   17 ar   
    34   37   17 1    
    35   19   18 ar   
    36   20   18 ar   
    37   21   19 ar   
    38   22   20 ar   
    39   38   20 1    
    40   23   21 ar   
    41   39   21 1    
    42   23   22 ar   
    43   40   22 1    
    44   41   23 1    
@<TRIPOS>SUBSTRUCTURE
     1 FR31001     1 GROUP   
@<TRIPOS>SET

