#    Name: 2a94_AP0_1_INTS_M
#    Modification time : Mon Mar 24 18:46:01 2014

@<TRIPOS>MOLECULE
2a94_AP0_1_INTS_M
   94     0     9     0     0
SMALL
NO_CHARGES


@<TRIPOS>ATOM
      1 CA         25.4330   23.4055    5.4955 C.3       3 GLC5        0.0000 
      2 CA         25.3850   22.3000    7.3330 C.3       9 GLL5        0.0000 
      3 CA         25.4810   24.5110    3.6580 C.3       6 GLP5        0.0000 
      4 CA         24.0450   22.1000   10.3575 C.3       3 GLC5        0.0000 
      5 CA         24.8460   22.3490    8.7500 C.3       9 GLL5        0.0000 
      6 CA         23.2440   21.8510   11.9650 C.3       6 GLP5        0.0000 
      7 CA         26.1735   22.8710    4.6200 C.3       3 GLC5        0.0000 
      8 CA         26.8660   21.2310    5.5820 C.3       9 GLL5        0.0000 
      9 CA         28.7270   20.5075    9.1580 C.3       3 GLC5        0.0000 
     10 CA         28.3130   18.5700    8.5970 C.3       9 GLL5        0.0000 
     11 CA         29.1410   22.4450    9.7190 C.3       6 GLP5        0.0000 
     12 CA         28.0455   18.6935   10.6660 C.3       3 GLC5        0.0000 
     13 CA         27.7780   18.8170   12.7350 C.3       6 GLP5        0.0000 
     14 N          25.9350   17.3555    7.8300 N.am      2 SEC2        0.0000 
     15 N          27.2400   16.5250    7.9120 N.am      8 SEL2        0.0000 
     16 N          24.6300   18.1860    7.7480 N.am      5 SEP2        0.0000 
     17 N          27.2825   16.9975   10.9150 N.am      2 SEC2        0.0000 
     18 N          28.5990   16.3430   10.2050 N.am      8 SEL2        0.0000 
     19 N          25.9660   17.6520   11.6250 N.am      5 SEP2        0.0000 
     20 O          28.7385   14.7800   10.0835 O.2       1 ALC1        0.0000 
     21 O          28.5990   16.3430   10.2050 O.2       7 ALL1        0.0000 
     22 O          28.8780   13.2170    9.9620 O.2       4 ALP1        0.0000 
     23 CA         29.0465   18.3505   11.0545 C.3       3 GLC5        0.0000 
     24 CA         30.3150   17.8840    9.3740 C.3       9 GLL5        0.0000 
     25 CA         31.5620   19.5965    7.5805 C.3       3 GLC5        0.0000 
     26 CA         31.7310   17.9550    8.7850 C.3       9 GLL5        0.0000 
     27 CA         31.3930   21.2380    6.3760 C.3       6 GLP5        0.0000 
     28 N          34.9005   19.6095    6.4195 N.am      2 SEC2        0.0000 
     29 N          34.2010   18.5790    7.1790 N.am      8 SEL2        0.0000 
     30 N          35.6000   20.6400    5.6600 N.am      5 SEP2        0.0000 
     31 N          36.5490   16.9985    6.0885 N.am      2 SEC2        0.0000 
     32 N          35.8960   15.7430    6.3630 N.am      8 SEL2        0.0000 
     33 N          37.2020   18.2540    5.8140 N.am      5 SEP2        0.0000 
     34 CA         36.6830   17.3710   12.1970 C.3       3 GLC5        0.0000 
     35 CA         36.1490   15.6190   11.0010 C.3       9 GLL5        0.0000 
     36 CA         37.2170   19.1230   13.3930 C.3       6 GLP5        0.0000 
     37 N          34.1190   15.2800   12.9565 N.am      2 SEC2        0.0000 
     38 N          35.6990   15.4820   12.3280 N.am      8 SEL2        0.0000 
     39 N          32.5390   15.0780   13.5850 N.am      5 SEP2        0.0000 
     40 CA         36.9740   16.9330   13.1890 C.3       3 GLC5        0.0000 
     41 CA         36.7310   14.7430   12.9850 C.3       9 GLL5        0.0000 
     42 CA         35.1175   15.9575   13.6470 C.3       3 GLC5        0.0000 
     43 CA         33.5040   17.1720   14.3090 C.3       6 GLP5        0.0000 
     44 O          39.2270   13.7345   12.8540 O.2       1 ALC1        0.0000 
     45 O          38.2600   12.9450   12.3160 O.2       7 ALL1        0.0000 
     46 O          40.1940   14.5240   13.3920 O.2       4 ALP1        0.0000 
     47 O          39.0140   15.5750   11.3285 O.2       1 ALC1        0.0000 
     48 O          38.3880   14.8670   10.3750 O.2       7 ALL1        0.0000 
     49 O          39.6400   16.2830   12.2820 O.2       4 ALP1        0.0000 
     50 CA         34.7435   16.5315   18.5220 C.3       3 GLC5        0.0000 
     51 CA         36.1700   14.9690   17.7700 C.3       9 GLL5        0.0000 
     52 CA         33.3170   18.0940   19.2740 C.3       6 GLP5        0.0000 
     53 O          36.2390   14.8630   20.1170 O.2       1 ALC1        0.0000 
     54 O          35.7040   14.3690   18.8740 O.2       7 ALL1        0.0000 
     55 O          36.7740   15.3570   21.3600 O.2       4 ALP1        0.0000 
     56 CA         37.8650   13.5105   15.7055 C.3       3 GLC5        0.0000 
     57 CA         36.5860   15.0500   15.4210 C.3       9 GLL5        0.0000 
     58 CA         39.1440   11.9710   15.9900 C.3       6 GLP5        0.0000 
     59 CA         36.6680   18.4350   17.4555 C.3       3 GLC5        0.0000 
     60 CA         37.4080   16.7620   16.7990 C.3       9 GLL5        0.0000 
     61 CA         35.9280   20.1080   18.1120 C.3       6 GLP5        0.0000 
     62 CA         37.3125   17.9425   15.0960 C.3       3 GLC5        0.0000 
     63 CA         39.2470   16.7545   16.0775 C.3       3 GLC5        0.0000 
     64 CA         41.0860   16.7470   15.3560 C.3       6 GLP5        0.0000 
     65 CA         38.2535   14.9555   17.5430 C.3       3 GLC5        0.0000 
     66 CA         39.0990   13.1490   18.2870 C.3       6 GLP5        0.0000 
     67 CA         35.6600   16.9590   16.2735 C.3       3 GLC5        0.0000 
     68 CA         33.9120   17.1560   15.7480 C.3       6 GLP5        0.0000 
     69 CA         27.1282   22.3848    8.8803 C.3       3 GLC5        0.0000 
     70 CA         23.4428   21.9057    7.5808 C.3       3 GLC5        0.0000 
     71 CA         21.7700   21.4870    7.1200 C.3       6 GLP5        0.0000 
     72 CA         27.8845   21.6322    8.5550 C.3       3 GLC5        0.0000 
     73 CA         26.3790   21.2690    6.9120 C.3       9 GLL5        0.0000 
     74 CA         26.4936   23.5494    7.5344 C.3       3 GLC5        0.0000 
     75 CA         27.2400   25.3020    7.5920 C.3       6 GLP5        0.0000 
     76 CA         28.2025   22.0610    4.2305 C.3       3 GLC5        0.0000 
     77 CA         29.0410   23.3570    3.0340 C.3       6 GLP5        0.0000 
     78 CA         29.7215   20.5692    6.0892 C.3       3 GLC5        0.0000 
     79 CA         27.8620   20.2990    5.2720 C.3       9 GLL5        0.0000 
     80 CA         26.4200   17.4375    9.0745 C.3       3 GLC5        0.0000 
     81 CA         24.4500   16.9910    9.8390 C.3       6 GLP5        0.0000 
     82 CA         29.1300   14.9515    8.0107 C.3       3 GLC5        0.0000 
     83 CA         28.4670   17.1980    8.0230 C.3       9 GLL5        0.0000 
     84 CA         29.3210   12.9640    7.4840 C.3       6 GLP5        0.0000 
     85 CA         32.1415   19.3167   10.1208 C.3       3 GLC5        0.0000 
     86 CA         33.2600   20.7140   11.1620 C.3       6 GLP5        0.0000 
     87 CA         37.3042   16.3410    9.2432 C.3       3 GLC5        0.0000 
     88 CA         34.9330   15.7090   10.0670 C.3       9 GLL5        0.0000 
     89 CA         38.2960   17.6340    7.8690 C.3       6 GLP5        0.0000 
     90 CA         37.5953   13.9192   17.7123 C.3       3 GLC5        0.0000 
     91 CA         36.0130   14.4100   16.5050 C.3       9 GLL5        0.0000 
     92 CA         34.0258   14.8113   17.6913 C.3       3 GLC5        0.0000 
     93 CA         31.9600   14.9330   18.2450 C.3       6 GLP5        0.0000 
     94 CA         35.1254   16.0129   16.0136 C.3       3 GLC5        0.0000 
@<TRIPOS>BOND
@<TRIPOS>SUBSTRUCTURE
     1 ALC1       20 GROUP        1 X    ALC  0     ROOT ALC X 1
     2 SEC2       14 GROUP        1 X    SEC  0     **** SEC X 2
     3 GLC5        1 GROUP        1 X    GLC  0     **** GLC X 6
     4 ALP1       22 GROUP        1 Y    ALP  0     ROOT ALP Y 8
     5 SEP2       16 GROUP        1 Y    SEP  0     **** SEP Y 9
     6 GLP5        3 GROUP        1 Y    GLP  0     **** GLP Y 13
     7 ALL1       21 GROUP        1 Z    ALL  0     ROOT ALL Z 15
     8 SEL2       15 GROUP        1 Z    SEL  0     **** SEL Z 16
     9 GLL5        2 GROUP        1 Z    GLL  0     **** GLL Z 20
@<TRIPOS>SET

