#    Name: 2a94_AP0_1_ligand
#    Modification time : Mon Mar 24 18:46:01 2014

@<TRIPOS>MOLECULE
2a94_AP0_1_ligand
   74    78     1     0     0
SMALL
NO_CHARGES


@<TRIPOS>ATOM
      1 O7N        24.9250   23.2480    6.4420 O.3       1 AP0336      0.0000 
      2 C7N        25.3850   22.3000    7.3330 C.3       1 AP0336      0.0000 
      3 C8N        24.8460   22.3490    8.7500 C.3       1 AP0336      0.0000 
      4 C3N        26.3790   21.2690    6.9120 C.2       1 AP0336      0.0000 
      5 C4N        26.8660   21.2310    5.5820 C.3       1 AP0336      0.0000 
      6 C5N        27.8620   20.2990    5.2720 C.2       1 AP0336      0.0000 
      7 C6N        28.2380   19.5020    6.3330 C.2       1 AP0336      0.0000 
      8 C2N        26.8770   20.3700    7.8700 C.2       1 AP0336      0.0000 
      9 N1N        27.8270   19.4260    7.5890 N.pl3     1 AP0336      0.0000 
     10 C1D        28.3130   18.5700    8.5970 C.3       1 AP0336      0.0000 
     11 C2D        28.4670   17.1980    8.0230 C.3       1 AP0336      0.0000 
     12 O2D        27.2400   16.5250    7.9120 O.3       1 AP0336      0.0000 
     13 C3D        29.4110   16.6800    9.0520 C.3       1 AP0336      0.0000 
     14 O3D        28.5990   16.3430   10.2050 O.3       1 AP0336      0.0000 
     15 O4D        29.6140   19.0120    8.8910 O.3       1 AP0336      0.0000 
     16 C4D        30.3150   17.8840    9.3740 C.3       1 AP0336      0.0000 
     17 C5D        31.7310   17.9550    8.7850 C.3       1 AP0336      0.0000 
     18 O5D        31.7680   17.8480    7.3750 O.3       1 AP0336      0.0000 
     19 PN         33.1660   17.6520    6.6710 P.3       1 AP0336      0.0000 
     20 O1N        32.9220   17.5430    5.2050 O.co2     1 AP0336      0.0000 
     21 O2N        34.2010   18.5790    7.1790 O.co2     1 AP0336      0.0000 
     22 O3         33.4730   16.1540    7.2120 O.3       1 AP0336      0.0000 
     23 PA         34.8890   15.4270    7.4250 P.3       1 AP0336      0.0000 
     24 O1A        34.5740   13.9530    7.6560 O.co2     1 AP0336      0.0000 
     25 O2A        35.8960   15.7430    6.3630 O.co2     1 AP0336      0.0000 
     26 O5B        35.4270   16.0710    8.8000 O.3       1 AP0336      0.0000 
     27 C5B        34.9330   15.7090   10.0670 C.3       1 AP0336      0.0000 
     28 C4B        36.1490   15.6190   11.0010 C.3       1 AP0336      0.0000 
     29 O4B        35.6990   15.4820   12.3280 O.3       1 AP0336      0.0000 
     30 C1B        36.7310   14.7430   12.9850 C.3       1 AP0336      0.0000 
     31 C2B        37.0550   13.6270   12.0030 C.3       1 AP0336      0.0000 
     32 O2B        38.2600   12.9450   12.3160 O.3       1 AP0336      0.0000 
     33 C3B        37.0840   14.4320   10.7010 C.3       1 AP0336      0.0000 
     34 O3B        38.3880   14.8670   10.3750 O.3       1 AP0336      0.0000 
     35 N9A        36.3000   14.3270   14.3070 N.pl3     1 AP0336      0.0000 
     36 C8A        35.5690   13.2220   14.6970 C.2       1 AP0336      0.0000 
     37 N7A        35.3970   13.2860   16.0390 N.2       1 AP0336      0.0000 
     38 C5A        36.0130   14.4100   16.5050 C.ar      1 AP0336      0.0000 
     39 C6A        36.1700   14.9690   17.7700 C.ar      1 AP0336      0.0000 
     40 N6A        35.7040   14.3690   18.8740 N.pl3     1 AP0336      0.0000 
     41 C4A        36.5860   15.0500   15.4210 C.ar      1 AP0336      0.0000 
     42 N3A        37.2800   16.2050   15.5560 N.ar      1 AP0336      0.0000 
     43 C2A        37.4080   16.7620   16.7990 C.ar      1 AP0336      0.0000 
     44 N1A        36.8740   16.1490   17.9070 N.ar      1 AP0336      0.0000 
     45 H          24.3043   21.4098    6.9726 H         1 AP0336      0.0000 
     46 H          27.2227   22.2812    5.2906 H         1 AP0336      0.0000 
     47 H          25.9786   21.0919    4.8691 H         1 AP0336      0.0000 
     48 H          28.2556   20.2259    4.3684 H         1 AP0336      0.0000 
     49 H          29.0605   18.7766    6.0575 H         1 AP0336      0.0000 
     50 H          26.4912   20.4380    8.8465 H         1 AP0336      0.0000 
     51 H          27.6999   18.5383    9.4413 H         1 AP0336      0.0000 
     52 H          29.0119   17.3086    7.1076 H         1 AP0336      0.0000 
     53 H          29.9680   15.8999    8.6833 H         1 AP0336      0.0000 
     54 H          30.3883   17.9673   10.4644 H         1 AP0336      0.0000 
     55 H          32.3265   17.1507    9.2748 H         1 AP0336      0.0000 
     56 H          32.1811   18.9114    9.1374 H         1 AP0336      0.0000 
     57 H          34.4487   14.7378   10.0670 H         1 AP0336      0.0000 
     58 H          34.2571   16.4500   10.4815 H         1 AP0336      0.0000 
     59 H          36.7294   16.5318   10.8900 H         1 AP0336      0.0000 
     60 H          37.6198   15.3784   13.0462 H         1 AP0336      0.0000 
     61 H          36.1847   12.9960   11.9584 H         1 AP0336      0.0000 
     62 H          36.6166   13.8428    9.9442 H         1 AP0336      0.0000 
     63 H          35.2475   12.5394   14.1099 H         1 AP0336      0.0000 
     64 H          34.8836   13.8092   18.7576 H         1 AP0336      0.0000 
     65 H          36.2184   14.5349   19.7154 H         1 AP0336      0.0000 
     66 H          37.9171   17.6637   16.9100 H         1 AP0336      0.0000 
     67 H          25.2323   21.6235    9.3196 H         1 AP0336      0.0000 
     68 H          25.0577   23.2176    9.1981 H         1 AP0336      0.0000 
     69 H          23.8520   22.2419    8.7732 H         1 AP0336      0.0000 
     70 H          25.5024   23.8254    7.0194 H         1 AP0336      0.0000 
     71 H          27.0139   16.2438    8.8446 H         1 AP0336      0.0000 
     72 H          28.4864   15.3504   10.1609 H         1 AP0336      0.0000 
     73 H          38.9046   13.6643   12.5751 H         1 AP0336      0.0000 
     74 H          38.7006   15.3727   11.1791 H         1 AP0336      0.0000 
@<TRIPOS>BOND
     1    2    1 1    
     2   70    1 1    
     3    3    2 1    
     4    4    2 1    
     5   45    2 1    
     6   67    3 1    
     7   68    3 1    
     8   69    3 1    
     9    5    4 1    
    10    8    4 2    
    11    6    5 1    
    12   46    5 1    
    13   47    5 1    
    14    7    6 2    
    15   48    6 1    
    16    9    7 1    
    17   49    7 1    
    18    9    8 1    
    19   50    8 1    
    20   10    9 1    
    21   11   10 1    
    22   15   10 1    
    23   51   10 1    
    24   12   11 1    
    25   13   11 1    
    26   52   11 1    
    27   71   12 1    
    28   14   13 1    
    29   16   13 1    
    30   53   13 1    
    31   72   14 1    
    32   16   15 1    
    33   17   16 1    
    34   54   16 1    
    35   18   17 1    
    36   55   17 1    
    37   56   17 1    
    38   19   18 1    
    39   20   19 ar   
    40   21   19 ar   
    41   22   19 1    
    42   23   22 1    
    43   24   23 ar   
    44   25   23 ar   
    45   26   23 1    
    46   27   26 1    
    47   28   27 1    
    48   57   27 1    
    49   58   27 1    
    50   29   28 1    
    51   33   28 1    
    52   59   28 1    
    53   30   29 1    
    54   31   30 1    
    55   35   30 1    
    56   60   30 1    
    57   32   31 1    
    58   33   31 1    
    59   61   31 1    
    60   73   32 1    
    61   34   33 1    
    62   62   33 1    
    63   74   34 1    
    64   36   35 1    
    65   41   35 1    
    66   37   36 2    
    67   63   36 1    
    68   38   37 1    
    69   39   38 ar   
    70   41   38 ar   
    71   40   39 1    
    72   44   39 ar   
    73   64   40 1    
    74   65   40 1    
    75   42   41 ar   
    76   43   42 ar   
    77   44   43 ar   
    78   66   43 1    
@<TRIPOS>SUBSTRUCTURE
     1 AP0336      1 GROUP   
@<TRIPOS>SET

