#    Name: 3bwc_SAM_1_INTS_M
#    Modification time : Mon Mar 24 20:09:36 2014

@<TRIPOS>MOLECULE
3bwc_SAM_1_INTS_M
   66     0     9     0     0
SMALL
NO_CHARGES


@<TRIPOS>ATOM
      1 O           2.4420   54.0545   61.8065 O.2       1 ALC1        0.0000 
      2 O           2.7250   53.4570   60.7050 O.2       7 ALL1        0.0000 
      3 O           2.1590   54.6520   62.9080 O.2       4 ALP1        0.0000 
      4 CA          3.5740   55.6735   58.8800 C.3       3 GLC5        0.0000 
      5 CA          3.9000   54.0210   59.9800 C.3       9 GLL5        0.0000 
      6 CA          3.2480   57.3260   57.7800 C.3       6 GLP5        0.0000 
      7 N           7.2160   52.2610   58.8430 N.am      2 SEC2        0.0000 
      8 N           5.6400   52.9320   58.7030 N.am      8 SEL2        0.0000 
      9 N           8.7920   51.5900   58.9830 N.am      5 SEP2        0.0000 
     10 CA          4.4650   56.5515   59.2085 C.3       3 GLC5        0.0000 
     11 CA          5.6820   55.7770   60.6370 C.3       9 GLL5        0.0000 
     12 CA          3.9300   57.8325   59.4420 C.3       3 GLC5        0.0000 
     13 CA          4.6120   58.3390   61.1040 C.3       9 GLL5        0.0000 
     14 CA          6.4175   59.2120   60.6745 C.3       3 GLC5        0.0000 
     15 CA          7.2250   57.7010   61.9780 C.3       9 GLL5        0.0000 
     16 CA          5.6100   60.7230   59.3710 C.3       6 GLP5        0.0000 
     17 CA          7.8295   58.1015   65.1215 C.3       3 GLC5        0.0000 
     18 CA          7.4070   58.6960   63.1220 C.3       9 GLL5        0.0000 
     19 CA          8.2520   57.5070   67.1210 C.3       6 GLP5        0.0000 
     20 CA          6.4005   60.4320   61.0285 C.3       3 GLC5        0.0000 
     21 CA          7.1910   60.1410   62.6860 C.3       9 GLL5        0.0000 
     22 O           6.2660   60.5160   64.7635 O.2       1 ALC1        0.0000 
     23 O           6.0280   60.6620   63.2880 O.2       7 ALL1        0.0000 
     24 O           6.5040   60.3700   66.2390 O.2       4 ALP1        0.0000 
     25 N           8.1330   62.8235   62.4420 N.am      2 SEC2        0.0000 
     26 N           8.1320   62.0940   63.7840 N.am      8 SEL2        0.0000 
     27 N           8.1340   63.5530   61.1000 N.am      5 SEP2        0.0000 
     28 O           7.7600   62.2335   65.0295 O.2       1 ALC1        0.0000 
     29 O           8.1320   62.0940   63.7840 O.2       7 ALL1        0.0000 
     30 O           7.3880   62.3730   66.2750 O.2       4 ALP1        0.0000 
     31 O           7.3180   61.2320   65.0115 O.2       1 ALC1        0.0000 
     32 CA          8.6925   58.7045   65.5920 C.3       3 GLC5        0.0000 
     33 CA          9.1330   59.9020   64.0630 C.3       9 GLL5        0.0000 
     34 CA         12.8430   61.9525   66.1180 C.3       3 GLC5        0.0000 
     35 CA         13.7190   60.2470   65.7060 C.3       9 GLL5        0.0000 
     36 CA         11.9670   63.6580   66.5300 C.3       6 GLP5        0.0000 
     37 O          15.7380   60.8175   66.6150 O.2       1 ALC1        0.0000 
     38 O          14.9910   60.3950   65.3520 O.2       7 ALL1        0.0000 
     39 O          16.4850   61.2400   67.8780 O.2       4 ALP1        0.0000 
     40 N          14.0440   60.2045   68.4365 N.am      2 SEC2        0.0000 
     41 N          13.3940   60.1300   67.0400 N.am      8 SEL2        0.0000 
     42 N          14.6940   60.2790   69.8330 N.am      5 SEP2        0.0000 
     43 CA         12.2345   58.1600   67.9605 C.3       3 GLC5        0.0000 
     44 CA         12.0790   59.9750   67.4330 C.3       9 GLL5        0.0000 
     45 CA         12.3900   56.3450   68.4880 C.3       6 GLP5        0.0000 
     46 CA         10.2755   60.6280   68.1705 C.3       3 GLC5        0.0000 
     47 CA          8.4720   61.2810   68.9080 C.3       6 GLP5        0.0000 
     48 CA         12.0230   61.8165   66.9815 C.3       3 GLC5        0.0000 
     49 CA         13.4650   61.3320   68.5105 C.3       3 GLC5        0.0000 
     50 CA         14.8510   62.6890   69.5880 C.3       6 GLP5        0.0000 
     51 CA         13.4275   59.4805   68.9675 C.3       3 GLC5        0.0000 
     52 CA         14.7760   58.9860   70.5020 C.3       6 GLP5        0.0000 
     53 N          10.5215   61.3485   67.0875 N.am      2 SEC2        0.0000 
     54 N          11.0790   59.9360   66.4810 N.am      8 SEL2        0.0000 
     55 N           9.9640   62.7610   67.6940 N.am      5 SEP2        0.0000 
     56 CA          9.8195   58.7790   66.1420 C.3       3 GLC5        0.0000 
     57 CA         11.3870   60.0510   65.1630 C.3       9 GLL5        0.0000 
     58 CA          4.2145   52.6385   61.4183 C.3       3 GLC5        0.0000 
     59 CA          4.9680   54.4710   60.9830 C.3       9 GLL5        0.0000 
     60 CA          3.9950   51.0310   62.3550 C.3       6 GLP5        0.0000 
     61 CA          5.3435   59.2037   60.4460 C.3       3 GLC5        0.0000 
     62 CA          5.5420   57.0300   61.9380 C.3       9 GLL5        0.0000 
     63 CA         10.1418   61.9368   64.3423 C.3       3 GLC5        0.0000 
     64 CA          8.4380   60.8850   63.1300 C.3       9 GLL5        0.0000 
     65 CA         11.4980   63.4800   65.0880 C.3       6 GLP5        0.0000 
     66 CA         11.7717   61.8043   65.0225 C.3       3 GLC5        0.0000 
@<TRIPOS>BOND
@<TRIPOS>SUBSTRUCTURE
     1 ALC1        1 GROUP        1 X    ALC  0     ROOT ALC X 1
     2 SEC2        7 GROUP        1 X    SEC  0     **** SEC X 2
     3 GLC5        4 GROUP        1 X    GLC  0     **** GLC X 6
     4 ALP1        3 GROUP        1 Y    ALP  0     ROOT ALP Y 8
     5 SEP2        9 GROUP        1 Y    SEP  0     **** SEP Y 9
     6 GLP5        6 GROUP        1 Y    GLP  0     **** GLP Y 13
     7 ALL1        2 GROUP        1 Z    ALL  0     ROOT ALL Z 15
     8 SEL2        8 GROUP        1 Z    SEL  0     **** SEL Z 16
     9 GLL5        5 GROUP        1 Z    GLL  0     **** GLL Z 20
@<TRIPOS>SET

