#    Name: 3bwc_SAM_1_ligand
#    Modification time : Mon Mar 24 20:09:36 2014

@<TRIPOS>MOLECULE
3bwc_SAM_1_ligand
   50    52     1     0     0
SMALL
NO_CHARGES


@<TRIPOS>ATOM
      1 N           2.7250   53.4570   60.7050 N.4       1 SAM501      0.0000 
      2 CA          3.9000   54.0210   59.9800 C.3       1 SAM501      0.0000 
      3 C           4.4410   52.9960   58.9790 C.2       1 SAM501      0.0000 
      4 O           5.6400   52.9320   58.7030 O.co2     1 SAM501      0.0000 
      5 OXT         3.6840   52.2050   58.4110 O.co2     1 SAM501      0.0000 
      6 CB          4.9680   54.4710   60.9830 C.3       1 SAM501      0.0000 
      7 CG          5.6820   55.7770   60.6370 C.3       1 SAM501      0.0000 
      8 SD          5.5420   57.0300   61.9380 S.3       1 SAM501      0.0000 
      9 CE          4.6120   58.3390   61.1040 C.3       1 SAM501      0.0000 
     10 C5'         7.2250   57.7010   61.9780 C.3       1 SAM501      0.0000 
     11 C4'         7.4070   58.6960   63.1220 C.3       1 SAM501      0.0000 
     12 O4'         8.7120   58.6130   63.6660 O.3       1 SAM501      0.0000 
     13 C3'         7.1910   60.1410   62.6860 C.3       1 SAM501      0.0000 
     14 O3'         6.0280   60.6620   63.2880 O.3       1 SAM501      0.0000 
     15 C2'         8.4380   60.8850   63.1300 C.3       1 SAM501      0.0000 
     16 O2'         8.1320   62.0940   63.7840 O.3       1 SAM501      0.0000 
     17 C1'         9.1330   59.9020   64.0630 C.3       1 SAM501      0.0000 
     18 N9         10.6020   60.0420   64.0410 N.pl3     1 SAM501      0.0000 
     19 C8         11.4290   60.1930   62.9580 C.2       1 SAM501      0.0000 
     20 N7         12.7030   60.2910   63.4040 N.2       1 SAM501      0.0000 
     21 C5         12.7040   60.2060   64.7510 C.ar      1 SAM501      0.0000 
     22 C6         13.7190   60.2470   65.7060 C.ar      1 SAM501      0.0000 
     23 N6         14.9910   60.3950   65.3520 N.pl3     1 SAM501      0.0000 
     24 N1         13.3940   60.1300   67.0400 N.ar      1 SAM501      0.0000 
     25 C2         12.0790   59.9750   67.4330 C.ar      1 SAM501      0.0000 
     26 N3         11.0790   59.9360   66.4810 N.ar      1 SAM501      0.0000 
     27 C4         11.3870   60.0510   65.1630 C.ar      1 SAM501      0.0000 
     28 H           3.5742   54.8994   59.4197 H         1 SAM501      0.0000 
     29 H           5.7231   53.6660   61.0813 H         1 SAM501      0.0000 
     30 H           4.4960   54.5750   61.9801 H         1 SAM501      0.0000 
     31 H           5.2623   56.2812   59.7857 H         1 SAM501      0.0000 
     32 H           6.7464   55.6685   60.5355 H         1 SAM501      0.0000 
     33 H           7.3196   58.1412   61.0092 H         1 SAM501      0.0000 
     34 H           7.8209   56.8201   62.0785 H         1 SAM501      0.0000 
     35 H           6.6640   58.4738   63.8892 H         1 SAM501      0.0000 
     36 H           7.1565   60.1546   61.6154 H         1 SAM501      0.0000 
     37 H           9.0672   61.0087   62.2686 H         1 SAM501      0.0000 
     38 H           8.7617   60.1171   65.0722 H         1 SAM501      0.0000 
     39 H          11.1426   60.2229   62.0416 H         1 SAM501      0.0000 
     40 H          15.6584   60.3906   66.0967 H         1 SAM501      0.0000 
     41 H          15.1662   60.4975   64.3728 H         1 SAM501      0.0000 
     42 H          11.8449   59.8888   68.4321 H         1 SAM501      0.0000 
     43 H           1.9829   53.2166   60.0793 H         1 SAM501      0.0000 
     44 H           2.9633   52.6272   61.2097 H         1 SAM501      0.0000 
     45 H           2.3510   54.1058   61.3677 H         1 SAM501      0.0000 
     46 H           4.5715   59.1736   61.6533 H         1 SAM501      0.0000 
     47 H           5.0232   58.5854   60.2264 H         1 SAM501      0.0000 
     48 H           3.6686   58.0640   60.9187 H         1 SAM501      0.0000 
     49 H           6.1661   60.5350   64.2702 H         1 SAM501      0.0000 
     50 H           7.4635   61.8467   64.4854 H         1 SAM501      0.0000 
@<TRIPOS>BOND
     1    2    1 1    
     2   43    1 1    
     3   44    1 1    
     4   45    1 1    
     5    3    2 1    
     6    6    2 1    
     7   28    2 1    
     8    4    3 ar   
     9    5    3 ar   
    10    7    6 1    
    11   29    6 1    
    12   30    6 1    
    13    8    7 1    
    14   31    7 1    
    15   32    7 1    
    16    9    8 1    
    17   10    8 1    
    18   46    9 1    
    19   47    9 1    
    20   48    9 1    
    21   11   10 1    
    22   33   10 1    
    23   34   10 1    
    24   12   11 1    
    25   13   11 1    
    26   35   11 1    
    27   17   12 1    
    28   14   13 1    
    29   15   13 1    
    30   36   13 1    
    31   49   14 1    
    32   16   15 1    
    33   17   15 1    
    34   37   15 1    
    35   50   16 1    
    36   18   17 1    
    37   38   17 1    
    38   19   18 1    
    39   27   18 1    
    40   20   19 2    
    41   39   19 1    
    42   21   20 1    
    43   22   21 ar   
    44   27   21 ar   
    45   23   22 1    
    46   24   22 ar   
    47   40   23 1    
    48   41   23 1    
    49   25   24 ar   
    50   26   25 ar   
    51   42   25 1    
    52   27   26 ar   
@<TRIPOS>SUBSTRUCTURE
     1 SAM501      1 GROUP   
@<TRIPOS>SET

