#    Name: 3zhq_TPP_2_INTS_M
#    Modification time : Tue Mar 25 02:58:46 2014

@<TRIPOS>MOLECULE
3zhq_TPP_2_INTS_M
   76     0    15     0     0
SMALL
NO_CHARGES


@<TRIPOS>ATOM
      1 CA          4.8990  -10.4405  -41.2010 C.3       5 GLC5        0.0000 
      2 CA          6.7940  -10.0600  -40.5830 C.3      15 GLL5        0.0000 
      3 CA          3.0040  -10.8210  -41.8190 C.3      10 GLP5        0.0000 
      4 CA          7.2745   -9.7790  -38.4270 C.3       5 GLC5        0.0000 
      5 CA          7.7550   -9.4980  -36.2710 C.3      10 GLP5        0.0000 
      6 CA          6.9975  -10.3865  -42.6950 C.3       5 GLC5        0.0000 
      7 CA          7.2010  -10.7130  -44.8070 C.3      10 GLP5        0.0000 
      8 CA          8.2215   -9.4175  -39.4150 C.3       5 GLC5        0.0000 
      9 CA          6.9020   -8.6060  -40.9310 C.3      15 GLL5        0.0000 
     10 CA          9.5410  -10.2290  -37.8990 C.3      10 GLP5        0.0000 
     11 CA          7.6515   -9.1855  -42.8585 C.3       5 GLC5        0.0000 
     12 CA          8.4010   -9.7650  -44.7860 C.3      10 GLP5        0.0000 
     13 N           8.3410  -10.2975  -42.2575 N.am      2 SEC2        0.0000 
     14 N           7.6970  -10.9140  -41.0530 N.am     12 SEL2        0.0000 
     15 N           8.9850   -9.6810  -43.4620 N.am      7 SEP2        0.0000 
     16 CA          9.1360  -10.6650  -41.3125 C.3       5 GLC5        0.0000 
     17 CA          7.6280  -12.2270  -40.7570 C.3      15 GLL5        0.0000 
     18 CA         10.6440   -9.1030  -41.8680 C.3      10 GLP5        0.0000 
     19 CA          7.5325  -12.1870  -42.5865 C.3       5 GLC5        0.0000 
     20 CA          7.4370  -12.1470  -44.4160 C.3      10 GLP5        0.0000 
     21 O           9.7005  -12.5385  -41.8315 O.2       1 ALC1        0.0000 
     22 O           8.6250  -13.0740  -41.2120 O.2      11 ALL1        0.0000 
     23 O          10.7760  -12.0030  -42.4510 O.2       6 ALP1        0.0000 
     24 CA          6.3230  -12.7745  -42.0490 C.3       5 GLC5        0.0000 
     25 CA          6.5590  -12.6910  -39.9480 C.3      15 GLL5        0.0000 
     26 CA          6.0870  -12.8580  -44.1500 C.3      10 GLP5        0.0000 
     27 CA          6.7050  -10.6190  -37.8720 C.3       5 GLC5        0.0000 
     28 CA          5.6550  -11.7400  -39.4730 C.3      15 GLL5        0.0000 
     29 CA          5.9975  -14.9295  -37.9335 C.3       5 GLC5        0.0000 
     30 CA          6.4030  -14.1430  -39.5470 C.3      15 GLL5        0.0000 
     31 CA          5.5920  -15.7160  -36.3200 C.3      10 GLP5        0.0000 
     32 CA          7.8050  -13.5185  -38.3815 C.3       5 GLC5        0.0000 
     33 CA          9.2070  -12.8940  -37.2160 C.3      10 GLP5        0.0000 
     34 CA          2.1420  -13.5155  -39.1975 C.3       5 GLC5        0.0000 
     35 CA          3.5280  -14.3820  -40.5970 C.3      15 GLL5        0.0000 
     36 CA          0.7560  -12.6490  -37.7980 C.3      10 GLP5        0.0000 
     37 CA          4.9305  -14.4045  -44.2895 C.3       5 GLC5        0.0000 
     38 CA          3.7740  -15.9510  -44.4290 C.3      15 GLL5        0.0000 
     39 N           2.2815  -12.8210  -46.9355 N.am      2 SEC2        0.0000 
     40 N           3.1010  -14.0490  -47.1200 N.am     12 SEL2        0.0000 
     41 N           1.4620  -11.5930  -46.7510 N.am      7 SEP2        0.0000 
     42 Zn          1.3320  -16.8380  -48.1440 Zn        4 ZIC7        0.0000 
     43 Zn          1.4680  -15.9180  -47.5830 Zn       14 ZIL7        0.0000 
     44 Zn          1.1960  -17.7580  -48.7050 Zn        9 ZIP7        0.0000 
     45 N           0.6310  -14.7220  -47.8180 N.am      2 SEC2        0.0000 
     46 N           1.4680  -15.9180  -47.5830 N.am     12 SEL2        0.0000 
     47 N          -0.2060  -13.5260  -48.0530 N.am      7 SEP2        0.0000 
     48 NZ          5.5460  -19.7730  -46.6775 N.4       3 LYC4        0.0000 
     49 NZ          5.0360  -18.4650  -46.3970 N.4      13 LYL4        0.0000 
     50 NZ          6.5180  -21.3420  -48.1750 N.4       8 LYP4        0.0000 
     51 N           5.5460  -19.7730  -46.6775 N.am      2 SEC2        0.0000 
     52 N           5.0360  -18.4650  -46.3970 N.am     12 SEL2        0.0000 
     53 N           6.0560  -21.0810  -46.9580 N.am      7 SEP2        0.0000 
     54 Zn          2.0480  -18.1315  -48.2270 Zn        4 ZIC7        0.0000 
     55 Zn          2.9000  -18.5050  -47.7490 Zn       14 ZIL7        0.0000 
     56 N           2.8780  -19.5430  -48.9310 N.am      2 SEC2        0.0000 
     57 N           2.9000  -18.5050  -47.7490 N.am     12 SEL2        0.0000 
     58 N           2.8560  -20.5810  -50.1130 N.am      7 SEP2        0.0000 
     59 NZ          5.7480  -19.2245  -49.0805 N.4       3 LYC4        0.0000 
     60 NZ          5.0460  -18.0330  -49.0260 N.4      13 LYL4        0.0000 
     61 N           5.7480  -19.2245  -49.0805 N.am      2 SEC2        0.0000 
     62 N           5.0460  -18.0330  -49.0260 N.am     12 SEL2        0.0000 
     63 N           6.4500  -20.4160  -49.1350 N.am      7 SEP2        0.0000 
     64 CA          8.7460   -9.2180  -41.3125 C.3       5 GLC5        0.0000 
     65 CA          4.5555  -11.5183  -40.7647 C.3       5 GLC5        0.0000 
     66 CA          2.9705  -17.7018  -41.7883 C.3       5 GLC5        0.0000 
     67 CA          4.5850  -15.9630  -42.1670 C.3      15 GLL5        0.0000 
     68 CA          1.9730  -19.2930  -40.9970 C.3      10 GLP5        0.0000 
     69 CA          3.1235  -13.8822  -42.1186 C.3       5 GLC5        0.0000 
     70 CA          2.1490  -12.8090  -43.1130 C.3      10 GLP5        0.0000 
     71 CA          2.8558  -14.4567  -43.4117 C.3       5 GLC5        0.0000 
     72 CA          3.3510  -16.2580  -42.9920 C.3      15 GLL5        0.0000 
     73 CA          1.6242  -16.9108  -44.1497 C.3       5 GLC5        0.0000 
     74 CA         -0.3140  -17.7170  -44.5890 C.3      10 GLP5        0.0000 
     75 CA          5.8342  -14.3731  -42.9584 C.3       5 GLC5        0.0000 
     76 CA          4.7510  -15.0950  -41.1360 C.3      15 GLL5        0.0000 
@<TRIPOS>BOND
@<TRIPOS>SUBSTRUCTURE
     1 ALC1       21 GROUP        1 X    ALC  0     ROOT ALC X 1
     2 SEC2       13 GROUP        1 X    SEC  0     **** SEC X 2
     3 LYC4       48 GROUP        1 X    LYC  0     **** LYC X 4
     4 ZIC7       42 GROUP        1 X    ZIC  0     **** ZIC X 5
     5 GLC5        1 GROUP        1 X    GLC  0     **** GLC X 6
     6 ALP1       23 GROUP        1 Y    ALP  0     ROOT ALP Y 8
     7 SEP2       15 GROUP        1 Y    SEP  0     **** SEP Y 9
     8 LYP4       50 GROUP        1 Y    LYP  0     **** LYP Y 11
     9 ZIP7       44 GROUP        1 Y    ZIP  0     **** ZIP Y 12
    10 GLP5        3 GROUP        1 Y    GLP  0     **** GLP Y 13
    11 ALL1       22 GROUP        1 Z    ALL  0     ROOT ALL Z 15
    12 SEL2       14 GROUP        1 Z    SEL  0     **** SEL Z 16
    13 LYL4       49 GROUP        1 Z    LYL  0     **** LYL Z 18
    14 ZIL7       43 GROUP        1 Z    ZIL  0     **** ZIL Z 19
    15 GLL5        2 GROUP        1 Z    GLL  0     **** GLL Z 20
@<TRIPOS>SET

