#    Name: 3zhq_TPP_2_ligand
#    Modification time : Tue Mar 25 02:58:46 2014

@<TRIPOS>MOLECULE
3zhq_TPP_2_ligand
   42    43     1     0     0
SMALL
NO_CHARGES


@<TRIPOS>ATOM
      1 N1'         5.7870  -10.4620  -39.8180 N.ar      1 TPP2001     0.0000 
      2 C2'         6.7940  -10.0600  -40.5830 C.ar      1 TPP2001     0.0000 
      3 CM2         6.9020   -8.6060  -40.9310 C.3       1 TPP2001     0.0000 
      4 N3'         7.6970  -10.9140  -41.0530 N.ar      1 TPP2001     0.0000 
      5 C4'         7.6280  -12.2270  -40.7570 C.ar      1 TPP2001     0.0000 
      6 N4'         8.6250  -13.0740  -41.2120 N.pl3     1 TPP2001     0.0000 
      7 C5'         6.5590  -12.6910  -39.9480 C.ar      1 TPP2001     0.0000 
      8 C6'         5.6550  -11.7400  -39.4730 C.ar      1 TPP2001     0.0000 
      9 C7'         6.4030  -14.1430  -39.5470 C.3       1 TPP2001     0.0000 
     10 N3          5.9920  -14.9990  -40.6710 N.pl3     1 TPP2001     0.0000 
     11 C2          6.8480  -15.7790  -41.2500 C.2       1 TPP2001     0.0000 
     12 S1          6.1420  -16.7160  -42.5140 S.3       1 TPP2001     0.0000 
     13 C5          4.5850  -15.9630  -42.1670 C.2       1 TPP2001     0.0000 
     14 C4          4.7510  -15.0950  -41.1360 C.2       1 TPP2001     0.0000 
     15 CM4         3.5280  -14.3820  -40.5970 C.3       1 TPP2001     0.0000 
     16 C6          3.3510  -16.2580  -42.9920 C.3       1 TPP2001     0.0000 
     17 C7          3.7740  -15.9510  -44.4290 C.3       1 TPP2001     0.0000 
     18 O7          2.6730  -15.7700  -45.3020 O.3       1 TPP2001     0.0000 
     19 PA          2.8380  -15.4730  -46.8720 P.3       1 TPP2001     0.0000 
     20 O1A         3.1010  -14.0490  -47.1200 O.co2     1 TPP2001     0.0000 
     21 O2A         1.4680  -15.9180  -47.5830 O.co2     1 TPP2001     0.0000 
     22 O3A         4.0420  -16.3570  -47.4780 O.3       1 TPP2001     0.0000 
     23 PB          4.2320  -17.8530  -47.6620 P.3       1 TPP2001     0.0000 
     24 O1B         5.0360  -18.4650  -46.3970 O.co2     1 TPP2001     0.0000 
     25 O2B         2.9000  -18.5050  -47.7490 O.co2     1 TPP2001     0.0000 
     26 O3B         5.0460  -18.0330  -49.0260 O.co2     1 TPP2001     0.0000 
     27 H           8.8018  -13.8850  -40.6543 H         1 TPP2001     0.0000 
     28 H           9.0817  -12.8011  -42.0588 H         1 TPP2001     0.0000 
     29 H           4.8874  -12.0600  -38.8503 H         1 TPP2001     0.0000 
     30 H           5.6612  -14.2030  -38.7313 H         1 TPP2001     0.0000 
     31 H           7.3627  -14.4960  -39.1303 H         1 TPP2001     0.0000 
     32 H           7.7775  -15.9720  -41.1581 H         1 TPP2001     0.0000 
     33 H           2.5568  -15.6093  -42.7088 H         1 TPP2001     0.0000 
     34 H           3.0920  -17.2866  -42.9096 H         1 TPP2001     0.0000 
     35 H           4.4298  -16.7831  -44.7631 H         1 TPP2001     0.0000 
     36 H           4.4227  -15.0498  -44.3949 H         1 TPP2001     0.0000 
     37 H           6.9935   -8.0347  -40.1154 H         1 TPP2001     0.0000 
     38 H           7.6964   -8.4206  -41.5094 H         1 TPP2001     0.0000 
     39 H           6.0963   -8.2820  -41.4269 H         1 TPP2001     0.0000 
     40 H           3.3530  -14.6160  -39.6406 H         1 TPP2001     0.0000 
     41 H           3.6277  -13.3880  -40.6420 H         1 TPP2001     0.0000 
     42 H           2.7037  -14.6175  -41.1119 H         1 TPP2001     0.0000 
@<TRIPOS>BOND
     1    2    1 ar   
     2    8    1 ar   
     3    3    2 1    
     4    4    2 ar   
     5   37    3 1    
     6   38    3 1    
     7   39    3 1    
     8    5    4 ar   
     9    6    5 1    
    10    7    5 ar   
    11   27    6 1    
    12   28    6 1    
    13    8    7 ar   
    14    9    7 1    
    15   29    8 1    
    16   10    9 1    
    17   30    9 1    
    18   31    9 1    
    19   11   10 2    
    20   14   10 1    
    21   12   11 1    
    22   32   11 1    
    23   13   12 1    
    24   14   13 2    
    25   16   13 1    
    26   15   14 1    
    27   40   15 1    
    28   41   15 1    
    29   42   15 1    
    30   17   16 1    
    31   33   16 1    
    32   34   16 1    
    33   18   17 1    
    34   35   17 1    
    35   36   17 1    
    36   19   18 1    
    37   20   19 ar   
    38   21   19 ar   
    39   22   19 1    
    40   23   22 1    
    41   24   23 ar   
    42   25   23 ar   
    43   26   23 ar   
@<TRIPOS>SUBSTRUCTURE
     1 TPP2001     1 GROUP   
@<TRIPOS>SET

