#    Name: 3uo4_0C0_1_INTS_M
#    Modification time : Mon Mar 24 23:07:32 2014

@<TRIPOS>MOLECULE
3uo4_0C0_1_INTS_M
   78     0    12     0     0
SMALL
NO_CHARGES


@<TRIPOS>ATOM
      1 N           3.0050   33.0000    9.6940 N.am      2 SEC2        0.0000 
      2 N           3.3240   31.8130    8.7720 N.am     10 SEL2        0.0000 
      3 N           2.6860   34.1870   10.6160 N.am      6 SEP2        0.0000 
      4 O           2.5985   34.3735    7.4365 O.2       1 ALC1        0.0000 
      5 O           2.8100   33.1870    6.9250 O.2       9 ALL1        0.0000 
      6 O           2.3870   35.5600    7.9480 O.2       5 ALP1        0.0000 
      7 CA          2.6170   31.6800   10.6470 C.3       4 GLC5        0.0000 
      8 CA          3.8550   30.7150    9.3340 C.3      12 GLL5        0.0000 
      9 CA          1.3790   32.6450   11.9600 C.3       8 GLP5        0.0000 
     10 CA          1.6950   30.9575    6.7950 C.3       4 GLC5        0.0000 
     11 CA          3.3940   31.9830    7.4480 C.3      12 GLL5        0.0000 
     12 CA         -0.0040   29.9320    6.1420 C.3       8 GLP5        0.0000 
     13 CA          4.0220   33.6650    8.5875 C.3       4 GLC5        0.0000 
     14 CA          4.6500   35.3470    9.7270 C.3       8 GLP5        0.0000 
     15 CA          5.2500   32.0955    7.9195 C.3       4 GLC5        0.0000 
     16 CA          7.1060   32.2080    8.3910 C.3       8 GLP5        0.0000 
     17 CA          4.9490   28.0095    9.7660 C.3       4 GLC5        0.0000 
     18 CA          4.4810   29.7570    8.5430 C.3      12 GLL5        0.0000 
     19 CA          5.4170   26.2620   10.9890 C.3       8 GLP5        0.0000 
     20 CA          4.5825   27.4300    5.2305 C.3       4 GLC5        0.0000 
     21 CA          5.3080   29.1560    4.9110 C.3      12 GLL5        0.0000 
     22 CA          3.8570   25.7040    5.5500 C.3       8 GLP5        0.0000 
     23 CA          3.3125   27.7935    4.8545 C.3       4 GLC5        0.0000 
     24 CA          4.1690   29.2970    4.1320 C.3      12 GLL5        0.0000 
     25 CA          2.4560   26.2900    5.5770 C.3       8 GLP5        0.0000 
     26 CA          1.1815   31.6680    5.8605 C.3       4 GLC5        0.0000 
     27 CA          2.3670   33.4040    5.5790 C.3      12 GLL5        0.0000 
     28 CA          7.9730   31.6435    4.0100 C.3       4 GLC5        0.0000 
     29 CA          8.6030   30.1290    5.3450 C.3      12 GLL5        0.0000 
     30 CA          7.3430   33.1580    2.6750 C.3       8 GLP5        0.0000 
     31 NZ          1.9115   35.5570    0.2895 N.4       3 LYC4        0.0000 
     32 NZ          1.6710   33.8690    0.6290 N.4      11 LYL4        0.0000 
     33 NZ          2.1520   37.2450   -0.0500 N.4       7 LYP4        0.0000 
     34 NZ         -1.2870   34.3125    2.2655 N.4       3 LYC4        0.0000 
     35 NZ         -0.1570   34.7430    1.4500 N.4      11 LYL4        0.0000 
     36 NZ         -3.1240   33.2020    2.1880 N.4       7 LYP4        0.0000 
     37 NZ          0.6025   35.5360    0.4275 N.4       3 LYC4        0.0000 
     38 N          -1.3585   33.7885    1.2460 N.am      2 SEC2        0.0000 
     39 N          -0.1570   34.7430    1.4500 N.am     10 SEL2        0.0000 
     40 N          -2.5600   32.8340    1.0420 N.am      6 SEP2        0.0000 
     41 N          -1.2870   34.3125    2.2655 N.am      2 SEC2        0.0000 
     42 N          -2.4170   33.8820    3.0810 N.am      6 SEP2        0.0000 
     43 N           0.6025   35.5360    0.4275 N.am      2 SEC2        0.0000 
     44 N           1.3620   36.3290   -0.5950 N.am      6 SEP2        0.0000 
     45 CA          2.6050   29.5085    9.5917 C.3       4 GLC5        0.0000 
     46 CA          1.0420   28.7810   10.2450 C.3       8 GLP5        0.0000 
     47 CA          5.7425   30.3580   10.2387 C.3       4 GLC5        0.0000 
     48 CA          7.3170   30.4800   11.5390 C.3       8 GLP5        0.0000 
     49 CA          3.3628   28.4705    7.3595 C.3       4 GLC5        0.0000 
     50 CA          2.2150   27.0760    6.8640 C.3       8 GLP5        0.0000 
     51 CA          5.7300   31.1562    8.2219 C.3       4 GLC5        0.0000 
     52 CA          4.5400   29.9730    7.1670 C.3      12 GLL5        0.0000 
     53 CA          2.3420   29.5595    3.5250 C.3       4 GLC5        0.0000 
     54 CA          0.4580   29.7450    3.6050 C.3       8 GLP5        0.0000 
     55 CA          6.8355   31.2171    3.0474 C.3       4 GLC5        0.0000 
     56 CA          5.5270   29.4620    2.1490 C.3      12 GLL5        0.0000 
     57 CA          2.9750   35.0948    4.8948 C.3       4 GLC5        0.0000 
     58 CA          4.1060   36.3410    4.3160 C.3       8 GLP5        0.0000 
     59 CA          4.6985   33.2885    5.6555 C.3       4 GLC5        0.0000 
     60 CA          6.7290   33.4870    6.2730 C.3       8 GLP5        0.0000 
     61 CA          2.6347   35.2862    3.9297 C.3       4 GLC5        0.0000 
     62 CA          0.8660   34.5490    4.0840 C.3      12 GLL5        0.0000 
     63 CA         -0.0634   32.6427    4.1573 C.3       4 GLC5        0.0000 
     64 CA          1.4610   33.9140    3.0030 C.3      12 GLL5        0.0000 
     65 CA         -1.4040   31.1180    4.4500 C.3       8 GLP5        0.0000 
     66 CA          1.5995   31.3235    3.7290 C.3       4 GLC5        0.0000 
     67 CA          2.5130   33.0280    3.2090 C.3      12 GLL5        0.0000 
     68 CA          3.4235   34.6215    4.0845 C.3       4 GLC5        0.0000 
     69 CA         11.3815   27.6710    7.1010 C.3       4 GLC5        0.0000 
     70 CA         10.1400   28.7720    6.5840 C.3      12 GLL5        0.0000 
     71 CA         13.0170   27.1280    7.7370 C.3       8 GLP5        0.0000 
     72 CA         11.6105   30.2735    5.8410 C.3       4 GLC5        0.0000 
     73 CA         13.2670   31.1560    5.3470 C.3       8 GLP5        0.0000 
     74 CA          8.4247   31.6688    6.5832 C.3       4 GLC5        0.0000 
     75 CA          9.7680   30.0100    6.0860 C.3      12 GLL5        0.0000 
     76 CA          7.6640   33.2680    7.4510 C.3       8 GLP5        0.0000 
     77 CA         10.1330   29.7170    8.0147 C.3       4 GLC5        0.0000 
     78 CA         10.5090   30.3220    9.7540 C.3       8 GLP5        0.0000 
@<TRIPOS>BOND
@<TRIPOS>SUBSTRUCTURE
     1 ALC1        4 GROUP        1 X    ALC  0     ROOT ALC X 1
     2 SEC2        1 GROUP        1 X    SEC  0     **** SEC X 2
     3 LYC4       31 GROUP        1 X    LYC  0     **** LYC X 4
     4 GLC5        7 GROUP        1 X    GLC  0     **** GLC X 6
     5 ALP1        6 GROUP        1 Y    ALP  0     ROOT ALP Y 8
     6 SEP2        3 GROUP        1 Y    SEP  0     **** SEP Y 9
     7 LYP4       33 GROUP        1 Y    LYP  0     **** LYP Y 11
     8 GLP5        9 GROUP        1 Y    GLP  0     **** GLP Y 13
     9 ALL1        5 GROUP        1 Z    ALL  0     ROOT ALL Z 15
    10 SEL2        2 GROUP        1 Z    SEL  0     **** SEL Z 16
    11 LYL4       32 GROUP        1 Z    LYL  0     **** LYL Z 18
    12 GLL5        8 GROUP        1 Z    GLL  0     **** GLL Z 20
@<TRIPOS>SET

