#    Name: 3uo4_0C0_1_ligand
#    Modification time : Mon Mar 24 23:07:32 2014

@<TRIPOS>MOLECULE
3uo4_0C0_1_ligand
   46    49     1     0     0
SMALL
NO_CHARGES


@<TRIPOS>ATOM
      1 N01         3.3240   31.8130    8.7720 N.ar      1 0C01        0.0000 
      2 N02         3.9920   31.0910    6.6460 N.ar      1 0C01        0.0000 
      3 N03         5.1850   28.9910    6.3330 N.pl3     1 0C01        0.0000 
      4 N04         2.8100   33.1870    6.9250 N.pl3     1 0C01        0.0000 
      5 C05         3.8550   30.7150    9.3340 C.ar      1 0C01        0.0000 
      6 C06         3.3940   31.9830    7.4480 C.ar      1 0C01        0.0000 
      7 C07         4.5400   29.9730    7.1670 C.ar      1 0C01        0.0000 
      8 C08         4.4810   29.7570    8.5430 C.ar      1 0C01        0.0000 
      9 C09         5.3080   29.1560    4.9110 C.ar      1 0C01        0.0000 
     10 C10         4.1690   29.2970    4.1320 C.ar      1 0C01        0.0000 
     11 C11         4.2830   29.4510    2.7580 C.ar      1 0C01        0.0000 
     12 C12         5.5270   29.4620    2.1490 C.ar      1 0C01        0.0000 
     13 C13         6.6650   29.3170    2.9260 C.ar      1 0C01        0.0000 
     14 C14         6.5600   29.1630    4.3020 C.ar      1 0C01        0.0000 
     15 C15         7.8100   29.0150    5.1070 C.ar      1 0C01        0.0000 
     16 C16         2.3670   33.4040    5.5790 C.ar      1 0C01        0.0000 
     17 C17         1.3210   34.2930    5.3680 C.ar      1 0C01        0.0000 
     18 C18         0.8660   34.5490    4.0840 C.ar      1 0C01        0.0000 
     19 C19         1.4610   33.9140    3.0030 C.ar      1 0C01        0.0000 
     20 C20         2.5130   33.0280    3.2090 C.ar      1 0C01        0.0000 
     21 C21         2.9690   32.7760    4.4970 C.ar      1 0C01        0.0000 
     22 C22         0.9650   34.1900    1.6220 C.2       1 0C01        0.0000 
     23 C23         8.1860   27.7760    5.6060 C.ar      1 0C01        0.0000 
     24 C24         9.3520   27.6560    6.3460 C.ar      1 0C01        0.0000 
     25 C25        10.1400   28.7720    6.5840 C.ar      1 0C01        0.0000 
     26 C26         9.7680   30.0100    6.0860 C.ar      1 0C01        0.0000 
     27 C27         8.6030   30.1290    5.3450 C.ar      1 0C01        0.0000 
     28 O28         1.6710   33.8690    0.6290 O.co2     1 0C01        0.0000 
     29 O29        -0.1570   34.7430    1.4500 O.co2     1 0C01        0.0000 
     30 H           5.5697   28.1443    6.7717 H         1 0C01        0.0000 
     31 H           2.6958   33.9948    7.6031 H         1 0C01        0.0000 
     32 H           3.8094   30.5608   10.3592 H         1 0C01        0.0000 
     33 H           4.8849   28.9217    8.9558 H         1 0C01        0.0000 
     34 H           3.2390   29.2874    4.5733 H         1 0C01        0.0000 
     35 H           3.4297   29.5586    2.1832 H         1 0C01        0.0000 
     36 H           5.6052   29.5763    1.1329 H         1 0C01        0.0000 
     37 H           7.5960   29.3233    2.4811 H         1 0C01        0.0000 
     38 H           0.8805   34.7654    6.1731 H         1 0C01        0.0000 
     39 H           0.0908   35.2066    3.9323 H         1 0C01        0.0000 
     40 H           2.9538   32.5589    2.4062 H         1 0C01        0.0000 
     41 H           3.7507   32.1257    4.6480 H         1 0C01        0.0000 
     42 H           7.6010   26.9496    5.4270 H         1 0C01        0.0000 
     43 H           9.6332   26.7385    6.7190 H         1 0C01        0.0000 
     44 H          11.0078   28.6791    7.1349 H         1 0C01        0.0000 
     45 H          10.3526   30.8358    6.2650 H         1 0C01        0.0000 
     46 H           8.3237   31.0474    4.9690 H         1 0C01        0.0000 
@<TRIPOS>BOND
     1    5    1 ar   
     2    6    1 ar   
     3    6    2 ar   
     4    7    2 ar   
     5    7    3 1    
     6    9    3 1    
     7   30    3 1    
     8    6    4 1    
     9   16    4 1    
    10   31    4 1    
    11    8    5 ar   
    12   32    5 1    
    13    8    7 ar   
    14   33    8 1    
    15   10    9 ar   
    16   14    9 ar   
    17   11   10 ar   
    18   34   10 1    
    19   12   11 ar   
    20   35   11 1    
    21   13   12 ar   
    22   36   12 1    
    23   14   13 ar   
    24   37   13 1    
    25   15   14 1    
    26   23   15 ar   
    27   27   15 ar   
    28   17   16 ar   
    29   21   16 ar   
    30   18   17 ar   
    31   38   17 1    
    32   19   18 ar   
    33   39   18 1    
    34   20   19 ar   
    35   22   19 1    
    36   21   20 ar   
    37   40   20 1    
    38   41   21 1    
    39   28   22 ar   
    40   29   22 ar   
    41   24   23 ar   
    42   42   23 1    
    43   25   24 ar   
    44   43   24 1    
    45   26   25 ar   
    46   44   25 1    
    47   27   26 ar   
    48   45   26 1    
    49   46   27 1    
@<TRIPOS>SUBSTRUCTURE
     1 0C01        1 GROUP   
@<TRIPOS>SET

