#    Name: 1EPV_1_CAVITY_N1_ALL.mol2
#    Modification time : Mon Mar 10 21:17:55 2014

@<TRIPOS>MOLECULE
1EPV_1_CAVITY_N1_ALL.mol2
   71     0     6     0     0
SMALL
NO_CHARGES


@<TRIPOS>ATOM
      1 O          23.3268   10.5084   69.4264 O.2       2 ALA2        0.0000 
      2 O          23.3757   11.1878   68.0900 O.2       2 ALA2        0.0000 
      3 CA         21.8280   10.5626   69.3990 C.3       6 GLY6        0.0000 
      4 N          21.8769   11.2420   68.0626 N.2       2 ALA2        0.0000 
      5 CA         24.8614   11.7904   70.1344 C.3       6 GLY6        0.0000 
      6 N          24.9104   12.4699   68.7980 N.2       2 ALA2        0.0000 
      7 CA         23.3627   11.8446   70.1070 C.3       6 GLY6        0.0000 
      8 N          23.4116   12.5240   68.7706 N.2       2 ALA2        0.0000 
      9 N          23.4605   13.2035   67.4342 N.2       2 ALA2        0.0000 
     10 N          23.5095   13.8830   66.0978 N.2       2 ALA2        0.0000 
     11 OG         23.5584   14.5624   64.7615 O.2       1 SER1        0.0000 
     12 CZ         23.6073   15.2419   63.4251 C.ar      5 PHE5        0.0000 
     13 CZ         23.6563   15.9213   62.0887 C.ar      5 PHE5        0.0000 
     14 NZ         23.7052   16.6008   60.7523 N.2       4 LYS4        0.0000 
     15 CA         21.8639   11.8988   70.0797 C.3       6 GLY6        0.0000 
     16 CA         21.9128   12.5782   68.7433 C.3       6 GLY6        0.0000 
     17 CA         21.9618   13.2577   67.4069 C.3       6 GLY6        0.0000 
     18 CA         22.0107   13.9371   66.0705 C.3       6 GLY6        0.0000 
     19 O          22.0596   14.6166   64.7341 O.2       2 ALA2        0.0000 
     20 OG         22.1086   15.2960   63.3977 O.2       1 SER1        0.0000 
     21 OG         22.1575   15.9755   62.0613 O.2       1 SER1        0.0000 
     22 N          20.4140   12.6324   68.7160 N.2       2 ALA2        0.0000 
     23 O          20.4630   13.3118   67.3796 O.2       2 ALA2        0.0000 
     24 CA         20.5119   13.9913   66.0432 C.3       6 GLY6        0.0000 
     25 OG         20.5609   14.6708   64.7068 O.2       1 SER1        0.0000 
     26 CA         26.3961   13.0724   70.8424 C.3       6 GLY6        0.0000 
     27 O          26.4450   13.7519   69.5060 O.2       2 ALA2        0.0000 
     28 CA         24.8973   13.1266   70.8150 C.3       6 GLY6        0.0000 
     29 CA         24.9462   13.8060   69.4786 C.3       6 GLY6        0.0000 
     30 OG         24.9952   14.4855   68.1422 O.2       1 SER1        0.0000 
     31 CZ         25.2399   17.8828   61.4603 C.ar      5 PHE5        0.0000 
     32 CA         25.2888   18.5623   60.1239 C.3       6 GLY6        0.0000 
     33 CA         23.3985   13.1808   70.7877 C.3       6 GLY6        0.0000 
     34 CA         23.4475   13.8602   69.4513 C.3       6 GLY6        0.0000 
     35 OD1        23.4964   14.5397   68.1149 O.3       3 ASP3        0.0000 
     36 OG         23.5453   15.2191   66.7785 O.2       1 SER1        0.0000 
     37 OG         23.5943   15.8986   65.4421 O.2       1 SER1        0.0000 
     38 CZ         23.6432   16.5781   64.1057 C.ar      5 PHE5        0.0000 
     39 OG         23.6922   17.2575   62.7693 O.2       1 SER1        0.0000 
     40 NZ         23.7411   17.9370   61.4330 N.2       4 LYS4        0.0000 
     41 NZ         23.7900   18.6164   60.0966 N.2       4 LYS4        0.0000 
     42 OG         21.9487   13.9144   69.4240 O.2       1 SER1        0.0000 
     43 OG         21.9976   14.5939   68.0876 O.2       1 SER1        0.0000 
     44 OG         22.0466   15.2733   66.7512 O.2       1 SER1        0.0000 
     45 OG         22.0955   15.9528   65.4148 O.2       1 SER1        0.0000 
     46 OG         22.2423   17.9912   61.4056 O.2       1 SER1        0.0000 
     47 OG         20.5478   15.3275   66.7238 O.2       1 SER1        0.0000 
     48 CA         26.4809   15.0881   70.1866 C.3       6 GLY6        0.0000 
     49 O          26.5298   15.7675   68.8503 O.2       2 ALA2        0.0000 
     50 OG         25.0800   16.5012   67.4865 O.2       1 SER1        0.0000 
     51 CZ         25.1779   17.8601   64.8137 C.ar      5 PHE5        0.0000 
     52 CZ         25.2268   18.5395   63.4774 C.ar      5 PHE5        0.0000 
     53 CZ         25.2757   19.2190   62.1410 C.ar      5 PHE5        0.0000 
     54 CA         25.3247   19.8984   60.8046 C.3       6 GLY6        0.0000 
     55 OD1        23.5812   16.5553   67.4592 O.3       3 ASP3        0.0000 
     56 CZ         23.6302   17.2348   66.1228 C.ar      5 PHE5        0.0000 
     57 CZ         23.6791   17.9142   64.7864 C.ar      5 PHE5        0.0000 
     58 CZ         23.7280   18.5937   63.4500 C.ar      5 PHE5        0.0000 
     59 CZ         23.7770   19.2732   62.1136 C.ar      5 PHE5        0.0000 
     60 CA         23.8259   19.9526   60.7772 C.3       6 GLY6        0.0000 
     61 CA         23.8748   20.6321   59.4408 C.3       6 GLY6        0.0000 
     62 OG         22.0825   16.6095   67.4318 O.2       1 SER1        0.0000 
     63 N          22.3271   20.0068   60.7499 N.2       2 ALA2        0.0000 
     64 CZ         26.7615   19.8215   64.1854 C.ar      5 PHE5        0.0000 
     65 OG         25.1648   18.5168   66.8308 O.2       1 SER1        0.0000 
     66 OG         25.2138   19.1963   65.4944 O.2       1 SER1        0.0000 
     67 CA         25.2627   19.8757   64.1580 C.3       6 GLY6        0.0000 
     68 CA         25.3116   20.5552   62.8216 C.3       6 GLY6        0.0000 
     69 CZ         23.6660   18.5710   66.8035 C.ar      5 PHE5        0.0000 
     70 CZ         23.7150   19.2504   65.4671 C.ar      5 PHE5        0.0000 
     71 CA         23.7639   19.9299   64.1307 C.3       6 GLY6        0.0000 
@<TRIPOS>BOND
@<TRIPOS>SUBSTRUCTURE
     1 SER1       11 GROUP   
     2 ALA2        1 GROUP   
     3 ASP3       35 GROUP   
     4 LYS4       14 GROUP   
     5 PHE5       12 GROUP   
     6 GLY6        3 GROUP   
@<TRIPOS>SET

