#    Name: 1epv_DCS_1_INTS_M
#    Modification time : Tue Mar 25 00:08:53 2014

@<TRIPOS>MOLECULE
1epv_DCS_1_INTS_M
   60     0     6     0     0
SMALL
NO_CHARGES


@<TRIPOS>ATOM
      1 N          23.5210    9.3770   69.1395 N.am      1 SEC2        0.0000 
      2 N          23.7030   10.7880   68.9690 N.am      5 SEL2        0.0000 
      3 N          23.3390    7.9660   69.3100 N.am      3 SEP2        0.0000 
      4 N          24.0400    9.3590   68.1175 N.am      1 SEC2        0.0000 
      5 N          24.3770    7.9300   67.2660 N.am      3 SEP2        0.0000 
      6 CA         26.6285    8.7390   70.1840 C.3       2 GLC5        0.0000 
      7 CA         26.0700   10.6090   69.6600 C.3       6 GLL5        0.0000 
      8 CA         27.1870    6.8690   70.7080 C.3       4 GLP5        0.0000 
      9 N          27.2430   13.1850   68.9890 N.am      1 SEC2        0.0000 
     10 N          26.0030   13.4220   69.8090 N.am      5 SEL2        0.0000 
     11 N          28.4830   12.9480   68.1690 N.am      3 SEP2        0.0000 
     12 CA         21.4845   13.3475   70.6605 C.3       2 GLC5        0.0000 
     13 CA         22.5280   12.8690   68.7760 C.3       6 GLL5        0.0000 
     14 CA         20.4410   13.8260   72.5450 C.3       4 GLP5        0.0000 
     15 CA         20.9145   11.6320   70.1450 C.3       2 GLC5        0.0000 
     16 CA         22.5720   11.4600   68.6950 C.3       6 GLL5        0.0000 
     17 CA         19.2570   11.8040   71.5950 C.3       4 GLP5        0.0000 
     18 CA         21.8400   11.2770   66.6165 C.3       2 GLC5        0.0000 
     19 CA         21.1080   11.0940   64.5380 C.3       4 GLP5        0.0000 
     20 CA         21.4995    9.9020   69.1950 C.3       2 GLC5        0.0000 
     21 CA         20.4270    8.3440   69.6950 C.3       4 GLP5        0.0000 
     22 CA         20.2460   12.6775   70.0030 C.3       2 GLC5        0.0000 
     23 CA         21.2350   13.5510   68.4110 C.3       6 GLL5        0.0000 
     24 CA         19.2440   13.9770   68.7900 C.3       2 GLC5        0.0000 
     25 CA         17.2530   14.4030   69.1690 C.3       4 GLP5        0.0000 
     26 N          18.3660   15.9960   67.6715 N.am      1 SEC2        0.0000 
     27 N          19.6920   15.7210   67.6740 N.am      5 SEL2        0.0000 
     28 N          17.0400   16.2710   67.6690 N.am      3 SEP2        0.0000 
     29 N          20.5320   16.3100   64.3705 N.am      1 SEC2        0.0000 
     30 N          20.5350   15.1060   64.9610 N.am      5 SEL2        0.0000 
     31 N          20.5290   17.5140   63.7800 N.am      3 SEP2        0.0000 
     32 N          18.2535   12.5455   65.3415 N.am      1 SEC2        0.0000 
     33 N          18.3430   13.6510   66.1750 N.am      5 SEL2        0.0000 
     34 N          18.1640   11.4400   64.5080 N.am      3 SEP2        0.0000 
     35 N          17.6870   13.3635   67.4005 N.am      1 SEC2        0.0000 
     36 N          17.0310   13.0760   68.6260 N.am      3 SEP2        0.0000 
     37 CA         25.9510   16.3895   66.3440 C.3       2 GLC5        0.0000 
     38 CA         25.0560   16.8670   68.1800 C.3       6 GLL5        0.0000 
     39 CA         26.8460   15.9120   64.5080 C.3       4 GLP5        0.0000 
     40 CA         25.3690   18.4235   69.3660 C.3       2 GLC5        0.0000 
     41 CA         25.6820   19.9800   70.5520 C.3       4 GLP5        0.0000 
     42 N          26.9400   16.0665   66.6580 N.am      1 SEC2        0.0000 
     43 N          27.4740   16.9030   67.7030 N.am      5 SEL2        0.0000 
     44 N          26.4060   15.2300   65.6130 N.am      3 SEP2        0.0000 
     45 CA         22.4785   18.2465   66.8870 C.3       2 GLC5        0.0000 
     46 CA         24.0450   17.7670   67.9680 C.3       6 GLL5        0.0000 
     47 CA         20.9120   18.7260   65.8060 C.3       4 GLP5        0.0000 
     48 CA         23.2525   19.0760   69.0190 C.3       2 GLC5        0.0000 
     49 CA         22.4600   20.3850   70.0700 C.3       4 GLP5        0.0000 
     50 CA         24.9215   11.2638   71.2700 C.3       2 GLC5        0.0000 
     51 CA         24.8280   11.4100   69.3680 C.3       6 GLL5        0.0000 
     52 CA         24.3940   11.5180   73.0260 C.3       4 GLP5        0.0000 
     53 CA         26.0355   10.6958   67.5710 C.3       2 GLC5        0.0000 
     54 CA         26.6220   10.3820   65.6280 C.3       4 GLP5        0.0000 
     55 CA         24.3450   12.3588   71.1647 C.3       2 GLC5        0.0000 
     56 CA         23.7300   13.5760   69.1500 C.3       6 GLL5        0.0000 
     57 CA         23.6739   14.5122   70.3029 C.3       2 GLC5        0.0000 
     58 CA         24.8620   12.8230   69.4570 C.3       6 GLL5        0.0000 
     59 CA         24.0980   15.5260   71.6100 C.3       4 GLP5        0.0000 
     60 CA         24.3242   16.4215   69.8420 C.3       2 GLC5        0.0000 
@<TRIPOS>BOND
@<TRIPOS>SUBSTRUCTURE
     1 SEC2        1 GROUP        1 X    SEC  0     ROOT SEC X 2
     2 GLC5        6 GROUP        1 X    GLC  0     **** GLC X 6
     3 SEP2        3 GROUP        1 Y    SEP  0     ROOT SEP Y 9
     4 GLP5        8 GROUP        1 Y    GLP  0     **** GLP Y 13
     5 SEL2        2 GROUP        1 Z    SEL  0     ROOT SEL Z 16
     6 GLL5        7 GROUP        1 Z    GLL  0     **** GLL Z 20
@<TRIPOS>SET

