#    Name: 1epv_DCS_1_ligand
#    Modification time : Tue Mar 25 00:08:53 2014

@<TRIPOS>MOLECULE
1epv_DCS_1_ligand
   35    36     1     0     0
SMALL
NO_CHARGES


@<TRIPOS>ATOM
      1 N1         23.7030   10.7880   68.9690 N.ar      1 DCS1001     0.0000 
      2 C2         24.8280   11.4100   69.3680 C.ar      1 DCS1001     0.0000 
      3 C2A        26.0700   10.6090   69.6600 C.3       1 DCS1001     0.0000 
      4 C3         24.8620   12.8230   69.4570 C.ar      1 DCS1001     0.0000 
      5 O3         26.0030   13.4220   69.8090 O.3       1 DCS1001     0.0000 
      6 C4         23.7300   13.5760   69.1500 C.ar      1 DCS1001     0.0000 
      7 C4A        23.6470   15.0560   69.1280 C.3       1 DCS1001     0.0000 
      8 C5         22.5280   12.8690   68.7760 C.ar      1 DCS1001     0.0000 
      9 C6         22.5720   11.4600   68.6950 C.ar      1 DCS1001     0.0000 
     10 C5A        21.2350   13.5510   68.4110 C.3       1 DCS1001     0.0000 
     11 O4P        20.9360   13.3270   67.0320 O.3       1 DCS1001     0.0000 
     12 P          19.9160   14.4330   66.4760 P.3       1 DCS1001     0.0000 
     13 O1P        19.6920   15.7210   67.6740 O.co2     1 DCS1001     0.0000 
     14 O2P        20.5350   15.1060   64.9610 O.co2     1 DCS1001     0.0000 
     15 O3P        18.3430   13.6510   66.1750 O.co2     1 DCS1001     0.0000 
     16 N          24.9900   15.5980   68.7450 N.4       1 DCS1001     0.0000 
     17 CA         25.0560   16.8670   68.1800 C.3       1 DCS1001     0.0000 
     18 C          26.2460   17.4820   67.7090 C.2       1 DCS1001     0.0000 
     19 O          27.4740   16.9030   67.7030 O.2       1 DCS1001     0.0000 
     20 ND         25.9340   18.6260   67.1640 N.am      1 DCS1001     0.0000 
     21 OG         24.5760   18.8280   67.3180 O.3       1 DCS1001     0.0000 
     22 CB         24.0450   17.7670   67.9680 C.3       1 DCS1001     0.0000 
     23 H          23.3717   15.4298   70.1107 H         1 DCS1001     0.0000 
     24 H          22.9052   15.3783   68.4020 H         1 DCS1001     0.0000 
     25 H          21.7023   10.9636   68.4172 H         1 DCS1001     0.0000 
     26 H          21.3377   14.6234   68.6300 H         1 DCS1001     0.0000 
     27 H          20.4421   13.1568   69.0624 H         1 DCS1001     0.0000 
     28 H          24.8500   16.3475   66.8468 H         1 DCS1001     0.0000 
     29 H          26.5196   19.2564   66.7182 H         1 DCS1001     0.0000 
     30 H          23.5833   18.0730   68.9336 H         1 DCS1001     0.0000 
     31 H          23.2225   17.3016   67.3797 H         1 DCS1001     0.0000 
     32 H          26.3814   10.1007   68.8571 H         1 DCS1001     0.0000 
     33 H          26.8286   11.1925   69.9500 H         1 DCS1001     0.0000 
     34 H          25.9185    9.9414   70.3889 H         1 DCS1001     0.0000 
     35 H          25.7399   14.3543   70.0571 H         1 DCS1001     0.0000 
@<TRIPOS>BOND
     1    2    1 ar   
     2    9    1 ar   
     3    3    2 1    
     4    4    2 ar   
     5   32    3 1    
     6   33    3 1    
     7   34    3 1    
     8    5    4 1    
     9    6    4 ar   
    10   35    5 1    
    11    7    6 1    
    12    8    6 ar   
    13   16    7 1    
    14   23    7 1    
    15   24    7 1    
    16    9    8 ar   
    17   10    8 1    
    18   25    9 1    
    19   11   10 1    
    20   26   10 1    
    21   27   10 1    
    22   12   11 1    
    23   13   12 ar   
    24   14   12 ar   
    25   15   12 ar   
    26   17   16 1    
    27   18   17 1    
    28   22   17 1    
    29   28   17 1    
    30   19   18 2    
    31   20   18 am   
    32   21   20 1    
    33   29   20 1    
    34   22   21 1    
    35   30   22 1    
    36   31   22 1    
@<TRIPOS>SUBSTRUCTURE
     1 DCS1001     1 GROUP   
@<TRIPOS>SET

