#    Name: 4hbx_14X_1_INTS_M
#    Modification time : Tue Mar 25 00:48:53 2014

@<TRIPOS>MOLECULE
4hbx_14X_1_INTS_M
   48     0     9     0     0
SMALL
NO_CHARGES


@<TRIPOS>ATOM
      1 CA         52.5170    5.1935   22.7675 C.3       3 GLC5        0.0000 
      2 CA         50.5800    4.6970   21.9600 C.3       9 GLL5        0.0000 
      3 CA         54.4540    5.6900   23.5750 C.3       6 GLP5        0.0000 
      4 CA         53.9590    0.8895   25.9895 C.3       3 GLC5        0.0000 
      5 CA         53.0150    0.4690   24.3790 C.3       9 GLL5        0.0000 
      6 CA         54.9030    1.3100   27.6000 C.3       6 GLP5        0.0000 
      7 CA         54.4610    2.0765   24.1850 C.3       3 GLC5        0.0000 
      8 CA         55.9070    3.6840   23.9910 C.3       6 GLP5        0.0000 
      9 CA         53.1855    4.4595   21.2185 C.3       3 GLC5        0.0000 
     10 CA         51.3020    4.7550   20.7690 C.3       9 GLL5        0.0000 
     11 CA         55.0690    4.1640   21.6680 C.3       6 GLP5        0.0000 
     12 CA         52.1425   -2.0420   21.7730 C.3       3 GLC5        0.0000 
     13 CA         52.3450   -0.2860   22.2360 C.3       9 GLL5        0.0000 
     14 CA         51.9400   -3.7980   21.3100 C.3       6 GLP5        0.0000 
     15 CA         53.2290   -2.4200   22.5840 C.3       3 GLC5        0.0000 
     16 CA         53.2710   -0.6420   23.3610 C.3       9 GLL5        0.0000 
     17 CA         53.1870   -4.1980   21.8070 C.3       6 GLP5        0.0000 
     18 O          52.1190    7.1015   21.6100 O.2       1 ALC1        0.0000 
     19 O          51.9750    5.9960   20.4340 O.2       7 ALL1        0.0000 
     20 O          52.2630    8.2070   22.7860 O.2       4 ALP1        0.0000 
     21 CA         52.7065    1.2615   19.6315 C.3       3 GLC5        0.0000 
     22 CA         50.9900    2.3900   20.3560 C.3       9 GLL5        0.0000 
     23 CA         54.4230    0.1330   18.9070 C.3       6 GLP5        0.0000 
     24 CA         53.2485    2.0175   18.7515 C.3       3 GLC5        0.0000 
     25 CA         52.0740    3.9020   18.5960 C.3       9 GLL5        0.0000 
     26 CA         51.9295    5.0215   16.9040 C.3       3 GLC5        0.0000 
     27 CA         51.7850    6.1410   15.2120 C.3       6 GLP5        0.0000 
     28 N          53.8625    7.9395   20.4995 N.am      2 SEC2        0.0000 
     29 N          53.5650    7.1410   19.4030 N.am      8 SEL2        0.0000 
     30 N          54.1600    8.7380   21.5960 N.am      5 SEP2        0.0000 
     31 CA         55.9960    4.6125   17.8285 C.3       3 GLC5        0.0000 
     32 CA         54.1920    5.0510   17.6010 C.3       9 GLL5        0.0000 
     33 CA         57.8000    4.1740   18.0560 C.3       6 GLP5        0.0000 
     34 CA         52.9885    5.5960   16.4065 C.3       3 GLC5        0.0000 
     35 CA         54.6305    4.6075   19.6345 C.3       3 GLC5        0.0000 
     36 CA         49.4890    2.6930   19.4405 C.3       3 GLC5        0.0000 
     37 CA         48.3170    3.0440   17.9100 C.3       6 GLP5        0.0000 
     38 CA         49.4230    5.6685   20.3723 C.3       3 GLC5        0.0000 
     39 CA         47.9050    6.6110   19.3800 C.3       6 GLP5        0.0000 
     40 CA         54.9915   -0.2757   23.7335 C.3       3 GLC5        0.0000 
     41 CA         56.8400   -0.4650   23.5970 C.3       6 GLP5        0.0000 
     42 CA         53.8945   -0.6885   21.3027 C.3       3 GLC5        0.0000 
     43 CA         54.9810   -0.9130   19.8070 C.3       6 GLP5        0.0000 
     44 CA         53.9210    1.1445   21.9417 C.3       3 GLC5        0.0000 
     45 CA         55.0340    2.7530   21.0850 C.3       6 GLP5        0.0000 
     46 CA         50.0217    3.5462   18.6943 C.3       3 GLC5        0.0000 
     47 CA         51.4560    3.6350   19.9530 C.3       9 GLL5        0.0000 
     48 CA         53.3413    3.1051   20.2301 C.3       3 GLC5        0.0000 
@<TRIPOS>BOND
@<TRIPOS>SUBSTRUCTURE
     1 ALC1       18 GROUP        1 X    ALC  0     ROOT ALC X 1
     2 SEC2       28 GROUP        1 X    SEC  0     **** SEC X 2
     3 GLC5        1 GROUP        1 X    GLC  0     **** GLC X 6
     4 ALP1       20 GROUP        1 Y    ALP  0     ROOT ALP Y 8
     5 SEP2       30 GROUP        1 Y    SEP  0     **** SEP Y 9
     6 GLP5        3 GROUP        1 Y    GLP  0     **** GLP Y 13
     7 ALL1       19 GROUP        1 Z    ALL  0     ROOT ALL Z 15
     8 SEL2       29 GROUP        1 Z    SEL  0     **** SEL Z 16
     9 GLL5        2 GROUP        1 Z    GLL  0     **** GLL Z 20
@<TRIPOS>SET

