#    Name: 4hbx_14X_1_ligand
#    Modification time : Tue Mar 25 00:48:53 2014

@<TRIPOS>MOLECULE
4hbx_14X_1_ligand
   37    39     1     0     0
SMALL
NO_CHARGES


@<TRIPOS>ATOM
      1 C4         50.3320    2.2940   21.5860 C.ar      1 14X201      0.0000 
      2 C5         50.1300    3.4580   22.3570 C.ar      1 14X201      0.0000 
      3 C6         50.5800    4.6970   21.9600 C.ar      1 14X201      0.0000 
      4 C11        53.0150    0.4690   24.3790 C.3       1 14X201      0.0000 
      5 C7         51.3020    4.7550   20.7690 C.ar      1 14X201      0.0000 
      6 C8         52.8870    6.1330   19.3740 C.2       1 14X201      0.0000 
      7 C9         52.3450   -0.2860   22.2360 C.3       1 14X201      0.0000 
      8 C10        53.2710   -0.6420   23.3610 C.3       1 14X201      0.0000 
      9 C12        51.5260    0.5500   24.3800 C.3       1 14X201      0.0000 
     10 N1         51.9750    5.9960   20.4340 N.am      1 14X201      0.0000 
     11 N2         51.1570    0.2970   22.9530 N.pl3     1 14X201      0.0000 
     12 C3         50.9900    2.3900   20.3560 C.ar      1 14X201      0.0000 
     13 O2         48.8200    1.0770   23.1520 O.2       1 14X201      0.0000 
     14 S          49.8160    0.7520   22.1620 S.o2      1 14X201      0.0000 
     15 O1         49.8120   -0.1010   21.0900 O.2       1 14X201      0.0000 
     16 C2         51.4560    3.6350   19.9530 C.ar      1 14X201      0.0000 
     17 C1         52.0740    3.9020   18.5960 C.3       1 14X201      0.0000 
     18 O          53.5650    7.1410   19.4030 O.2       1 14X201      0.0000 
     19 N          53.0590    5.0500   18.6020 N.am      1 14X201      0.0000 
     20 C          54.1920    5.0510   17.6010 C.3       1 14X201      0.0000 
     21 H          49.6171    3.3610   23.2628 H         1 14X201      0.0000 
     22 H          50.3999    5.5297   22.5004 H         1 14X201      0.0000 
     23 H          53.4410    1.3709   24.0275 H         1 14X201      0.0000 
     24 H          53.3764    0.1665   25.3257 H         1 14X201      0.0000 
     25 H          52.0569   -1.1607   21.7064 H         1 14X201      0.0000 
     26 H          52.7904    0.4496   21.6123 H         1 14X201      0.0000 
     27 H          53.0020   -1.5762   23.7838 H         1 14X201      0.0000 
     28 H          54.2806   -0.6003   23.0402 H         1 14X201      0.0000 
     29 H          51.2091    1.5266   24.6730 H         1 14X201      0.0000 
     30 H          51.1148   -0.2114   25.0055 H         1 14X201      0.0000 
     31 H          51.7559    6.8273   21.0277 H         1 14X201      0.0000 
     32 H          51.1218    1.5676   19.7749 H         1 14X201      0.0000 
     33 H          51.2716    4.1180   17.8713 H         1 14X201      0.0000 
     34 H          52.5848    2.9892   18.2473 H         1 14X201      0.0000 
     35 H          55.0806    5.1624   18.0460 H         1 14X201      0.0000 
     36 H          54.2293    4.1974   17.0815 H         1 14X201      0.0000 
     37 H          54.1010    5.7939   16.9379 H         1 14X201      0.0000 
@<TRIPOS>BOND
     1    2    1 ar   
     2   12    1 ar   
     3   14    1 1    
     4    3    2 ar   
     5   21    2 1    
     6    5    3 ar   
     7   22    3 1    
     8    8    4 1    
     9    9    4 1    
    10   23    4 1    
    11   24    4 1    
    12   10    5 1    
    13   16    5 ar   
    14   10    6 am   
    15   18    6 2    
    16   19    6 am   
    17    8    7 1    
    18   11    7 1    
    19   25    7 1    
    20   26    7 1    
    21   27    8 1    
    22   28    8 1    
    23   11    9 1    
    24   29    9 1    
    25   30    9 1    
    26   31   10 1    
    27   14   11 1    
    28   16   12 ar   
    29   32   12 1    
    30   14   13 2    
    31   15   14 2    
    32   17   16 1    
    33   19   17 1    
    34   33   17 1    
    35   34   17 1    
    36   20   19 1    
    37   35   20 1    
    38   36   20 1    
    39   37   20 1    
@<TRIPOS>SUBSTRUCTURE
     1 14X201      1 GROUP   
@<TRIPOS>SET

