#    Name: 1npv_L27_1_INTS_M
#    Modification time : Mon Mar 24 18:33:06 2014

@<TRIPOS>MOLECULE
1npv_L27_1_INTS_M
   97     0     9     0     0
SMALL
NO_CHARGES


@<TRIPOS>ATOM
      1 O          16.6550   23.4680    5.3280 O.2       1 ALC1        0.0000 
      2 O          15.1310   22.9010    5.2760 O.2       7 ALL1        0.0000 
      3 O          18.1790   24.0350    5.3800 O.2       4 ALP1        0.0000 
      4 N          15.2775   25.8890    3.5190 N.am      2 SEC2        0.0000 
      5 N          14.7890   25.5340    4.6210 N.am      8 SEL2        0.0000 
      6 N          15.7660   26.2440    2.4170 N.am      5 SEP2        0.0000 
      7 O          14.9735   26.5790    5.3745 O.2       1 ALC1        0.0000 
      8 O          14.7890   25.5340    4.6210 O.2       7 ALL1        0.0000 
      9 O          15.1580   27.6240    6.1280 O.2       4 ALP1        0.0000 
     10 CA         12.5450   23.1765    2.1410 C.3       3 GLC5        0.0000 
     11 CA         12.9360   24.2940    3.9960 C.3       9 GLL5        0.0000 
     12 CA         12.1540   22.0590    0.2860 C.3       6 GLP5        0.0000 
     13 CA         11.4475   23.2170    1.4835 C.3       3 GLC5        0.0000 
     14 CA         10.7410   24.3750    2.6810 C.3       9 GLL5        0.0000 
     15 CA         11.3735   28.4950    5.2750 C.3       3 GLC5        0.0000 
     16 CA         10.8990   26.6280    5.2480 C.3       9 GLL5        0.0000 
     17 CA         11.8480   30.3620    5.3020 C.3       6 GLP5        0.0000 
     18 CA         14.7645   20.4930   11.6120 C.3       3 GLC5        0.0000 
     19 CA         15.2840   21.1860    9.6830 C.3       9 GLL5        0.0000 
     20 CA         14.2450   19.8000   13.5410 C.3       6 GLP5        0.0000 
     21 CA         16.1955   20.5000   11.7410 C.3       3 GLC5        0.0000 
     22 CA         16.7190   20.9320    9.6390 C.3       9 GLL5        0.0000 
     23 CA         15.6720   20.0680   13.8430 C.3       6 GLP5        0.0000 
     24 CA         18.3045   24.3865    8.2705 C.3       3 GLC5        0.0000 
     25 CA         17.1320   22.8610    8.1290 C.3       9 GLL5        0.0000 
     26 CA         19.4770   25.9120    8.4120 C.3       6 GLP5        0.0000 
     27 CA         14.6070   18.9065    6.2575 C.3       3 GLC5        0.0000 
     28 CA         15.9810   19.4130    4.5540 C.3       9 GLL5        0.0000 
     29 CA         13.2330   18.4000    7.9610 C.3       6 GLP5        0.0000 
     30 N          19.0120   20.4230    2.9520 N.am      2 SEC2        0.0000 
     31 N          17.8460   19.3150    3.1010 N.am      8 SEL2        0.0000 
     32 N          20.1780   21.5310    2.8030 N.am      5 SEP2        0.0000 
     33 N          19.0335   19.5455    1.8995 N.am      2 SEC2        0.0000 
     34 N          20.2210   19.7760    0.6980 N.am      5 SEP2        0.0000 
     35 CA         18.1440   18.5760    1.0205 C.3       3 GLC5        0.0000 
     36 CA         16.6730   19.5170    2.3240 C.3       9 GLL5        0.0000 
     37 CA         19.6150   17.6350   -0.2830 C.3       6 GLP5        0.0000 
     38 CA         13.5205   18.8055    3.3170 C.3       3 GLC5        0.0000 
     39 CA         15.5590   18.9260    3.1670 C.3       9 GLL5        0.0000 
     40 CA         11.4820   18.6850    3.4670 C.3       6 GLP5        0.0000 
     41 CA         15.0550   16.9975    2.7830 C.3       3 GLC5        0.0000 
     42 CA         14.5510   15.0690    2.3990 C.3       6 GLP5        0.0000 
     43 CA          6.9430   25.5175    8.9150 C.3       3 GLC5        0.0000 
     44 CA          8.4530   24.8610    7.4740 C.3       9 GLL5        0.0000 
     45 CA          5.4330   26.1740   10.3560 C.3       6 GLP5        0.0000 
     46 CA          6.7305   23.6635    7.6185 C.3       3 GLC5        0.0000 
     47 CA          5.0080   22.4660    7.7630 C.3       6 GLP5        0.0000 
     48 CA          8.0305   23.0285    6.4145 C.3       3 GLC5        0.0000 
     49 CA          7.6080   21.1960    5.3550 C.3       6 GLP5        0.0000 
     50 CA          6.9110   26.9195    8.9420 C.3       3 GLC5        0.0000 
     51 CA          8.3890   27.6650    7.5280 C.3       9 GLL5        0.0000 
     52 O           6.7470   24.5160    6.3095 O.2       1 ALC1        0.0000 
     53 O           7.4450   25.6050    6.7910 O.2       7 ALL1        0.0000 
     54 O           6.0490   23.4270    5.8280 O.2       4 ALP1        0.0000 
     55 CA          9.3210   31.5835    9.0205 C.3       3 GLC5        0.0000 
     56 CA          9.0300   29.5690    8.9500 C.3       9 GLL5        0.0000 
     57 CA          9.6120   33.5980    9.0910 C.3       6 GLP5        0.0000 
     58 CA          6.5675   28.3050    9.3255 C.3       3 GLC5        0.0000 
     59 CA          8.0980   28.9930    8.0100 C.3       9 GLL5        0.0000 
     60 CA          5.0370   27.6170   10.6410 C.3       6 GLP5        0.0000 
     61 CA          9.4385   24.5620    0.6275 C.3       3 GLC5        0.0000 
     62 CA          9.3350   24.9370    2.5090 C.3       9 GLL5        0.0000 
     63 CA          8.8390   24.4680   -1.3400 C.3       6 GLP5        0.0000 
     64 CA          9.9285   27.1995    0.6465 C.3       3 GLC5        0.0000 
     65 CA          9.1760   26.1690    1.7420 C.3       9 GLL5        0.0000 
     66 CA         11.3030   27.8630   -0.5000 C.3       6 GLP5        0.0000 
     67 CA          8.6965   25.5020    0.2265 C.3       3 GLC5        0.0000 
     68 CA          7.5972   22.9288    4.3108 C.3       3 GLC5        0.0000 
     69 CA          8.2160   24.3000    3.2220 C.3       9 GLL5        0.0000 
     70 CA          7.0751   23.4014    2.3301 C.3       3 GLC5        0.0000 
     71 CA          6.9570   25.0230    3.3110 C.3       9 GLL5        0.0000 
     72 CA          6.2840   21.9820    1.5720 C.3       6 GLP5        0.0000 
     73 CA         14.9090   24.5975    9.3432 C.3       3 GLC5        0.0000 
     74 CA         14.7630   22.3010    8.9180 C.3       9 GLL5        0.0000 
     75 CA         14.7170   26.2100   10.3870 C.3       6 GLP5        0.0000 
     76 CA         14.1283   20.0717    8.6307 C.3       3 GLC5        0.0000 
     77 CA         13.1738   21.2242    9.7957 C.3       3 GLC5        0.0000 
     78 CA         11.3240   20.7050   10.2910 C.3       6 GLP5        0.0000 
     79 CA         16.8633   22.4820   10.8330 C.3       3 GLC5        0.0000 
     80 CA         17.7250   23.9050   12.0050 C.3       6 GLP5        0.0000 
     81 CA         17.3809   23.1359   10.2558 C.3       3 GLC5        0.0000 
     82 CA         17.6600   21.7480    8.8870 C.3       9 GLL5        0.0000 
     83 CA         16.6490   21.0277    2.2552 C.3       3 GLC5        0.0000 
     84 CA         17.1820   22.8340    1.7650 C.3       6 GLP5        0.0000 
     85 CA         15.3810   18.4647    1.0128 C.3       3 GLC5        0.0000 
     86 CA         14.6460   17.7080   -0.7200 C.3       6 GLP5        0.0000 
     87 CA          9.2005   23.4400    8.2720 C.3       3 GLC5        0.0000 
     88 CA          9.7950   25.6010    7.4060 C.3       9 GLL5        0.0000 
     89 CA          9.2770   21.6490    9.1040 C.3       6 GLP5        0.0000 
     90 CA          8.8754   27.1452   10.2781 C.3       3 GLC5        0.0000 
     91 CA         10.2320   28.8580    9.3500 C.3       9 GLL5        0.0000 
     92 CA          7.6030   26.2360   11.6730 C.3       6 GLP5        0.0000 
     93 CA         11.1405   29.4940    7.8293 C.3       3 GLC5        0.0000 
     94 CA         10.5440   27.5400    8.8800 C.3       9 GLL5        0.0000 
     95 CA         12.5720   30.1040    6.6260 C.3       6 GLP5        0.0000 
     96 CA          9.8830   28.9540   10.7988 C.3       3 GLC5        0.0000 
     97 CA         10.0570   29.0240   12.5650 C.3       6 GLP5        0.0000 
@<TRIPOS>BOND
@<TRIPOS>SUBSTRUCTURE
     1 ALC1        1 GROUP        1 X    ALC  0     ROOT ALC X 1
     2 SEC2        4 GROUP        1 X    SEC  0     **** SEC X 2
     3 GLC5       10 GROUP        1 X    GLC  0     **** GLC X 6
     4 ALP1        3 GROUP        1 Y    ALP  0     ROOT ALP Y 8
     5 SEP2        6 GROUP        1 Y    SEP  0     **** SEP Y 9
     6 GLP5       12 GROUP        1 Y    GLP  0     **** GLP Y 13
     7 ALL1        2 GROUP        1 Z    ALL  0     ROOT ALL Z 15
     8 SEL2        5 GROUP        1 Z    SEL  0     **** SEL Z 16
     9 GLL5       11 GROUP        1 Z    GLL  0     **** GLL Z 20
@<TRIPOS>SET

