#    Name: 1npv_L27_1_ligand
#    Modification time : Mon Mar 24 18:33:06 2014

@<TRIPOS>MOLECULE
1npv_L27_1_ligand
   80    85     1     0     0
SMALL
NO_CHARGES


@<TRIPOS>ATOM
      1 O01        15.9090   20.9070    4.7110 O.3       1 L27479      0.0000 
      2 C02        14.8520   21.5950    5.0890 C.2       1 L27479      0.0000 
      3 O03        13.7730   21.1160    5.2840 O.2       1 L27479      0.0000 
      4 NP4        15.1310   22.9010    5.2760 N.am      1 L27479      0.0000 
      5 C05        14.2970   23.7400    6.0900 C.3       1 L27479      0.0000 
      6 C06        13.7980   24.8410    5.1410 C.3       1 L27479      0.0000 
      7 O07        14.7890   25.5340    4.6210 O.3       1 L27479      0.0000 
      8 C08        12.9360   24.2940    3.9960 C.3       1 L27479      0.0000 
      9 C09        11.4780   24.8040    3.9980 C.3       1 L27479      0.0000 
     10 C10        10.7410   24.3750    2.6810 C.3       1 L27479      0.0000 
     11 C11         9.3350   24.9370    2.5090 C.ar      1 L27479      0.0000 
     12 C12         9.1760   26.1690    1.7420 C.ar      1 L27479      0.0000 
     13 C13         7.9320   26.9030    1.8440 C.ar      1 L27479      0.0000 
     14 C14         6.8660   26.3470    2.6870 C.ar      1 L27479      0.0000 
     15 C15         6.9570   25.0230    3.3110 C.ar      1 L27479      0.0000 
     16 C16         8.2160   24.3000    3.2220 C.ar      1 L27479      0.0000 
     17 C17        10.7280   24.3830    5.2970 C.2       1 L27479      0.0000 
     18 O18        10.4930   23.2800    5.6900 O.2       1 L27479      0.0000 
     19 N29        11.5240   26.2810    4.1000 N.4       1 L27479      0.0000 
     20 C30        10.8990   26.6280    5.2480 C.2       1 L27479      0.0000 
     21 C35        10.4310   25.6090    6.0020 C.2       1 L27479      0.0000 
     22 C36        15.1830   24.2280    7.2390 C.3       1 L27479      0.0000 
     23 C37        15.6950   23.1100    8.1230 C.ar      1 L27479      0.0000 
     24 C38        14.7630   22.3010    8.9180 C.ar      1 L27479      0.0000 
     25 C39        15.2840   21.1860    9.6830 C.ar      1 L27479      0.0000 
     26 C40        16.7190   20.9320    9.6390 C.ar      1 L27479      0.0000 
     27 C41        17.6600   21.7480    8.8870 C.ar      1 L27479      0.0000 
     28 C42        17.1320   22.8610    8.1290 C.ar      1 L27479      0.0000 
     29 C44        15.9810   19.4130    4.5540 C.3       1 L27479      0.0000 
     30 C45        17.4180   18.9090    4.3920 C.3       1 L27479      0.0000 
     31 O46        17.8460   19.3150    3.1010 O.3       1 L27479      0.0000 
     32 C47        16.6730   19.5170    2.3240 C.3       1 L27479      0.0000 
     33 C48        15.5590   18.9260    3.1670 C.3       1 L27479      0.0000 
     34 C49         8.4530   24.8610    7.4740 C.3       1 L27479      0.0000 
     35 C50         9.7950   25.6010    7.4060 C.3       1 L27479      0.0000 
     36 C51         9.5830   26.9620    7.9530 C.ar      1 L27479      0.0000 
     37 C52         8.3890   27.6650    7.5280 C.ar      1 L27479      0.0000 
     38 C53         7.3770   26.8810    6.7750 C.2       1 L27479      0.0000 
     39 N54         7.4450   25.6050    6.7910 N.am      1 L27479      0.0000 
     40 C55        10.5440   27.5400    8.8800 C.ar      1 L27479      0.0000 
     41 C56        10.2320   28.8580    9.3500 C.ar      1 L27479      0.0000 
     42 C57         9.0300   29.5690    8.9500 C.ar      1 L27479      0.0000 
     43 C58         8.0980   28.9930    8.0100 C.ar      1 L27479      0.0000 
     44 O59         6.4930   27.4570    6.1600 O.2       1 L27479      0.0000 
     45 H          15.9613   23.3467    4.8364 H         1 L27479      0.0000 
     46 H          13.4751   23.1926    6.4671 H         1 L27479      0.0000 
     47 H          13.1156   25.4835    5.7436 H         1 L27479      0.0000 
     48 H          12.9232   23.1940    4.0506 H         1 L27479      0.0000 
     49 H          13.4015   24.5653    3.0354 H         1 L27479      0.0000 
     50 H          10.7021   23.2714    2.6612 H         1 L27479      0.0000 
     51 H          11.3693   24.6853    1.8273 H         1 L27479      0.0000 
     52 H           9.9176   26.4963    1.1570 H         1 L27479      0.0000 
     53 H           7.7945   27.7591    1.3611 H         1 L27479      0.0000 
     54 H           6.0247   26.9074    2.8452 H         1 L27479      0.0000 
     55 H           6.1738   24.6336    3.7824 H         1 L27479      0.0000 
     56 H           8.3253   23.4026    3.6277 H         1 L27479      0.0000 
     57 H          10.7882   27.5977    5.5266 H         1 L27479      0.0000 
     58 H          14.6077   24.9415    7.8498 H         1 L27479      0.0000 
     59 H          16.0377   24.7790    6.8161 H         1 L27479      0.0000 
     60 H          13.7909   22.5216    8.9258 H         1 L27479      0.0000 
     61 H          14.6831   20.6080   10.2240 H         1 L27479      0.0000 
     62 H          17.0872   20.1269   10.1723 H         1 L27479      0.0000 
     63 H          18.6311   21.5445    8.8964 H         1 L27479      0.0000 
     64 H          17.7464   23.4614    7.6086 H         1 L27479      0.0000 
     65 H          15.5099   18.8561    5.2673 H         1 L27479      0.0000 
     66 H          17.4058   17.8307    4.5027 H         1 L27479      0.0000 
     67 H          18.0151   19.3495    5.1824 H         1 L27479      0.0000 
     68 H          16.7071   18.9880    1.3872 H         1 L27479      0.0000 
     69 H          16.4621   20.5607    2.1659 H         1 L27479      0.0000 
     70 H          14.6391   19.3545    2.9055 H         1 L27479      0.0000 
     71 H          15.5939   17.8792    3.1330 H         1 L27479      0.0000 
     72 H           8.2074   24.7180    8.5341 H         1 L27479      0.0000 
     73 H           8.5997   23.8683    7.0295 H         1 L27479      0.0000 
     74 H          10.4843   25.0664    8.0857 H         1 L27479      0.0000 
     75 H           6.7254   24.9986    6.2755 H         1 L27479      0.0000 
     76 H          11.3458   27.0537    9.1575 H         1 L27479      0.0000 
     77 H          10.8816   29.3267    9.9980 H         1 L27479      0.0000 
     78 H           8.8450   30.4901    9.3419 H         1 L27479      0.0000 
     79 H           7.2953   29.4877    7.7100 H         1 L27479      0.0000 
     80 H          15.1960   26.0225    5.3928 H         1 L27479      0.0000 
@<TRIPOS>BOND
     1    2    1 1    
     2   29    1 1    
     3    3    2 2    
     4    4    2 am   
     5    5    4 1    
     6   45    4 1    
     7    6    5 1    
     8   22    5 1    
     9   46    5 1    
    10    7    6 1    
    11    8    6 1    
    12   47    6 1    
    13   80    7 1    
    14    9    8 1    
    15   48    8 1    
    16   49    8 1    
    17   10    9 1    
    18   17    9 1    
    19   19    9 1    
    20   11   10 1    
    21   50   10 1    
    22   51   10 1    
    23   12   11 ar   
    24   16   11 ar   
    25   13   12 ar   
    26   52   12 1    
    27   14   13 ar   
    28   53   13 1    
    29   15   14 ar   
    30   54   14 1    
    31   16   15 ar   
    32   55   15 1    
    33   56   16 1    
    34   18   17 2    
    35   21   17 1    
    36   20   19 1    
    37   21   20 2    
    38   57   20 1    
    39   35   21 1    
    40   23   22 1    
    41   58   22 1    
    42   59   22 1    
    43   24   23 ar   
    44   28   23 ar   
    45   25   24 ar   
    46   60   24 1    
    47   26   25 ar   
    48   61   25 1    
    49   27   26 ar   
    50   62   26 1    
    51   28   27 ar   
    52   63   27 1    
    53   64   28 1    
    54   30   29 1    
    55   33   29 1    
    56   65   29 1    
    57   31   30 1    
    58   66   30 1    
    59   67   30 1    
    60   32   31 1    
    61   33   32 1    
    62   68   32 1    
    63   69   32 1    
    64   70   33 1    
    65   71   33 1    
    66   35   34 1    
    67   39   34 1    
    68   72   34 1    
    69   73   34 1    
    70   36   35 1    
    71   74   35 1    
    72   37   36 ar   
    73   40   36 ar   
    74   38   37 1    
    75   43   37 ar   
    76   39   38 am   
    77   44   38 2    
    78   75   39 1    
    79   41   40 ar   
    80   76   40 1    
    81   42   41 ar   
    82   77   41 1    
    83   43   42 ar   
    84   78   42 1    
    85   79   43 1    
@<TRIPOS>SUBSTRUCTURE
     1 L27479      1 GROUP   
@<TRIPOS>SET

