#    Name: 2cf9_348_1_INTS_M
#    Modification time : Mon Mar 24 23:38:13 2014

@<TRIPOS>MOLECULE
2cf9_348_1_INTS_M
   82     0     9     0     0
SMALL
NO_CHARGES


@<TRIPOS>ATOM
      1 O           9.4075  -11.9840   24.9035 O.2       1 ALC1        0.0000 
      2 O          10.5790  -12.1500   24.1350 O.2       7 ALL1        0.0000 
      3 O           8.2360  -11.8180   25.6720 O.2       4 ALP1        0.0000 
      4 O          10.6610  -13.5760   23.9630 O.2       1 ALC1        0.0000 
      5 O          10.7430  -15.0020   23.7910 O.2       4 ALP1        0.0000 
      6 CA         11.4205  -10.1340   25.9390 C.3       3 GLC5        0.0000 
      7 CA         11.3620  -11.0830   23.9360 C.3       9 GLL5        0.0000 
      8 CA         11.4790   -9.1850   27.9420 C.3       6 GLP5        0.0000 
      9 O           9.8090   -9.8070   25.0800 O.2       1 ALC1        0.0000 
     10 O          11.1250   -9.9770   24.6150 O.2       7 ALL1        0.0000 
     11 O           8.4930   -9.6370   25.5450 O.2       4 ALP1        0.0000 
     12 CA         10.8540  -13.3310   21.6030 C.3       3 GLC5        0.0000 
     13 CA         12.7220  -12.3240   22.2230 C.3       9 GLL5        0.0000 
     14 CA          8.9860  -14.3380   20.9830 C.3       6 GLP5        0.0000 
     15 CA         12.9600  -11.9400   17.1930 C.3       3 GLC5        0.0000 
     16 CA         14.6770  -11.7870   17.9140 C.3       9 GLL5        0.0000 
     17 CA         11.2430  -12.0930   16.4720 C.3       6 GLP5        0.0000 
     18 CA         14.8760   -9.6875   18.3745 C.3       3 GLC5        0.0000 
     19 CA         15.0750   -7.5880   18.8350 C.3       6 GLP5        0.0000 
     20 CA         13.8930  -12.6215   15.6130 C.3       3 GLC5        0.0000 
     21 CA         15.4920  -11.7650   16.6130 C.3       9 GLL5        0.0000 
     22 CA         12.2940  -13.4780   14.6130 C.3       6 GLP5        0.0000 
     23 CA         18.1700  -10.2735   17.6455 C.3       3 GLC5        0.0000 
     24 CA         16.9550  -11.8290   17.0430 C.3       9 GLL5        0.0000 
     25 CA         19.3850   -8.7180   18.2480 C.3       6 GLP5        0.0000 
     26 N          15.9280  -12.5420   23.8000 N.am      2 SEC2        0.0000 
     27 N          16.6680  -13.0300   22.5990 N.am      8 SEL2        0.0000 
     28 N          15.1880  -12.0540   25.0010 N.am      5 SEP2        0.0000 
     29 CA         16.8695  -10.8985   22.5445 C.3       3 GLC5        0.0000 
     30 CA         17.1340  -11.6350   20.6620 C.3       9 GLL5        0.0000 
     31 CA         16.6050  -10.1620   24.4270 C.3       6 GLP5        0.0000 
     32 CA         19.0285  -15.4945   19.6790 C.3       3 GLC5        0.0000 
     33 CA         18.7650  -14.8600   21.7930 C.3       9 GLL5        0.0000 
     34 CA         19.2920  -16.1290   17.5650 C.3       6 GLP5        0.0000 
     35 CA         23.4455  -12.1590   27.7730 C.3       3 GLC5        0.0000 
     36 CA         21.6130  -12.5490   27.2220 C.3       9 GLL5        0.0000 
     37 CA         25.2780  -11.7690   28.3240 C.3       6 GLP5        0.0000 
     38 CA         22.3980  -11.0545   26.1980 C.3       3 GLC5        0.0000 
     39 CA         23.1830   -9.5600   25.1740 C.3       6 GLP5        0.0000 
     40 CA         21.6945  -12.9145   29.0445 C.3       3 GLC5        0.0000 
     41 CA         21.7760  -13.2800   30.8670 C.3       6 GLP5        0.0000 
     42 CA         19.9015  -11.9025   27.3250 C.3       3 GLC5        0.0000 
     43 CA         18.1900  -11.2560   27.4280 C.3       6 GLP5        0.0000 
     44 CA         19.8700  -10.7265   19.0910 C.3       3 GLC5        0.0000 
     45 CA         20.3550  -12.7350   19.9340 C.3       9 GLL5        0.0000 
     46 CA         22.3570  -13.5100   20.0345 C.3       3 GLC5        0.0000 
     47 CA         24.3590  -14.2850   20.1350 C.3       6 GLP5        0.0000 
     48 CA         21.4290  -10.4965   18.8185 C.3       3 GLC5        0.0000 
     49 CA         21.0120  -12.4660   18.5790 C.3       9 GLL5        0.0000 
     50 CA         21.8460   -8.5270   19.0580 C.3       6 GLP5        0.0000 
     51 CA         22.5875  -13.2120   18.1660 C.3       3 GLC5        0.0000 
     52 CA         24.1630  -13.9580   17.7530 C.3       6 GLP5        0.0000 
     53 CA         20.2755  -13.9155   17.4930 C.3       3 GLC5        0.0000 
     54 CA         19.5390  -15.3650   16.4070 C.3       6 GLP5        0.0000 
     55 CA         20.4880   -9.9195   19.9670 C.3       3 GLC5        0.0000 
     56 CA         20.6080  -11.5310   20.8420 C.3       9 GLL5        0.0000 
     57 CA         20.3680   -8.3080   19.0920 C.3       6 GLP5        0.0000 
     58 CA         22.6925  -12.2560   20.5680 C.3       3 GLC5        0.0000 
     59 CA         24.7770  -12.9810   20.2940 C.3       6 GLP5        0.0000 
     60 CA         20.9790  -10.5830   22.1650 C.3       3 GLC5        0.0000 
     61 CA         21.3500   -9.6350   23.4880 C.3       6 GLP5        0.0000 
     62 CA         14.7533  -10.3758   23.6270 C.3       3 GLC5        0.0000 
     63 CA         12.4910  -11.1410   22.9380 C.3       9 GLL5        0.0000 
     64 CA         15.5463  -10.4275   22.9325 C.3       3 GLC5        0.0000 
     65 CA         14.3670  -10.1020   21.7950 C.3       9 GLL5        0.0000 
     66 CA         13.3283   -8.1725   21.9817 C.3       3 GLC5        0.0000 
     67 CA         12.8170   -6.2750   21.7080 C.3       6 GLP5        0.0000 
     68 CA         13.5026  -11.8160   24.2790 C.3       3 GLC5        0.0000 
     69 CA         13.3120  -10.0380   22.7160 C.3       9 GLL5        0.0000 
     70 CA         14.1870  -12.7540   25.7850 C.3       6 GLP5        0.0000 
     71 CA         15.0926   -9.3005   19.8000 C.3       3 GLC5        0.0000 
     72 CA         18.2357  -13.7733   17.0630 C.3       3 GLC5        0.0000 
     73 CA         16.9100  -12.5340   18.3950 C.3       9 GLL5        0.0000 
     74 CA         18.4585  -10.2843   19.1475 C.3       3 GLC5        0.0000 
     75 CA         17.9300  -12.0660   19.4320 C.3       9 GLL5        0.0000 
     76 CA         19.4538  -14.5503   18.7272 C.3       3 GLC5        0.0000 
     77 CA         18.8760  -13.2080   19.8450 C.3       9 GLL5        0.0000 
     78 CA         21.4578  -11.7765   24.0057 C.3       3 GLC5        0.0000 
     79 CA         21.8500  -14.0390   23.8980 C.3       9 GLL5        0.0000 
     80 CA         18.7420  -12.3942   24.8182 C.3       3 GLC5        0.0000 
     81 CA         19.8990  -13.9220   25.3160 C.3       9 GLL5        0.0000 
     82 CA         17.9950  -10.6920   24.8570 C.3       6 GLP5        0.0000 
@<TRIPOS>BOND
@<TRIPOS>SUBSTRUCTURE
     1 ALC1        1 GROUP        1 X    ALC  0     ROOT ALC X 1
     2 SEC2       26 GROUP        1 X    SEC  0     **** SEC X 2
     3 GLC5        6 GROUP        1 X    GLC  0     **** GLC X 6
     4 ALP1        3 GROUP        1 Y    ALP  0     ROOT ALP Y 8
     5 SEP2       28 GROUP        1 Y    SEP  0     **** SEP Y 9
     6 GLP5        8 GROUP        1 Y    GLP  0     **** GLP Y 13
     7 ALL1        2 GROUP        1 Z    ALL  0     ROOT ALL Z 15
     8 SEL2       27 GROUP        1 Z    SEL  0     **** SEL Z 16
     9 GLL5        7 GROUP        1 Z    GLL  0     **** GLL Z 20
@<TRIPOS>SET

