#    Name: 2cf9_348_1_ligand
#    Modification time : Mon Mar 24 23:38:13 2014

@<TRIPOS>MOLECULE
2cf9_348_1_ligand
   69    73     1     0     0
SMALL
NO_CHARGES


@<TRIPOS>ATOM
      1 N1         10.5790  -12.1500   24.1350 N.pl3     1 3481247     0.0000 
      2 C3         11.3620  -11.0830   23.9360 C.2       1 3481247     0.0000 
      3 N2         11.1250   -9.9770   24.6150 N.pl3     1 3481247     0.0000 
      4 C4         12.4910  -11.1410   22.9380 C.ar      1 3481247     0.0000 
      5 C9         12.7220  -12.3240   22.2230 C.ar      1 3481247     0.0000 
      6 C8         13.7750  -12.3820   21.3020 C.ar      1 3481247     0.0000 
      7 C7         14.6080  -11.2840   21.0810 C.ar      1 3481247     0.0000 
      8 C6         14.3670  -10.1020   21.7950 C.ar      1 3481247     0.0000 
      9 C5         13.3120  -10.0380   22.7160 C.ar      1 3481247     0.0000 
     10 C10        15.7330  -11.3330   20.0920 C.3       1 3481247     0.0000 
     11 N11        15.5650  -12.3140   18.9750 N.4       1 3481247     0.0000 
     12 C12        14.6770  -11.7870   17.9140 C.3       1 3481247     0.0000 
     13 C13        15.4920  -11.7650   16.6130 C.3       1 3481247     0.0000 
     14 C14        16.9550  -11.8290   17.0430 C.3       1 3481247     0.0000 
     15 C15        16.9100  -12.5340   18.3950 C.3       1 3481247     0.0000 
     16 C16        17.9300  -12.0660   19.4320 C.3       1 3481247     0.0000 
     17 C17        18.8760  -13.2080   19.8450 C.3       1 3481247     0.0000 
     18 N19        18.2860  -13.6200   21.1420 N.am      1 3481247     0.0000 
     19 C20        17.3080  -12.8160   21.5770 C.2       1 3481247     0.0000 
     20 O21        16.6680  -13.0300   22.5990 O.2       1 3481247     0.0000 
     21 C22        17.1340  -11.6350   20.6620 C.3       1 3481247     0.0000 
     22 C23        18.7650  -14.8600   21.7930 C.3       1 3481247     0.0000 
     23 C24        19.6430  -14.5080   22.9820 C.ar      1 3481247     0.0000 
     24 C32        21.0250  -14.3920   22.8230 C.ar      1 3481247     0.0000 
     25 C31        21.8500  -14.0390   23.8980 C.ar      1 3481247     0.0000 
     26 C30        21.2810  -13.7970   25.1490 C.ar      1 3481247     0.0000 
     27 O29        22.0800  -13.4510   26.2110 O.3       1 3481247     0.0000 
     28 C28        21.6130  -12.5490   27.2220 C.3       1 3481247     0.0000 
     29 C26        19.8990  -13.9220   25.3160 C.ar      1 3481247     0.0000 
     30 C25        19.0790  -14.2710   24.2430 C.ar      1 3481247     0.0000 
     31 C18        20.3550  -12.7350   19.9340 C.3       1 3481247     0.0000 
     32 C41        21.0120  -12.4660   18.5790 C.3       1 3481247     0.0000 
     33 C42        20.6080  -11.5310   20.8420 C.3       1 3481247     0.0000 
     34 H          10.8180  -12.9733   23.6202 H         1 3481247     0.0000 
     35 H           9.8252  -12.0283   24.7807 H         1 3481247     0.0000 
     36 H          11.7333   -9.2060   24.4264 H         1 3481247     0.0000 
     37 H          10.3586  -10.0102   25.2565 H         1 3481247     0.0000 
     38 H          12.1246  -13.1398   22.3735 H         1 3481247     0.0000 
     39 H          13.9376  -13.2582   20.7749 H         1 3481247     0.0000 
     40 H          14.9640   -9.2819   21.6433 H         1 3481247     0.0000 
     41 H          13.1450   -9.1613   23.2337 H         1 3481247     0.0000 
     42 H          15.8332  -10.3272   19.6032 H         1 3481247     0.0000 
     43 H          15.1904  -13.2353   19.3582 H         1 3481247     0.0000 
     44 H          14.3622  -10.7812   18.1408 H         1 3481247     0.0000 
     45 H          13.8221  -12.4287   17.7746 H         1 3481247     0.0000 
     46 H          15.3069  -10.8524   16.0926 H         1 3481247     0.0000 
     47 H          15.2490  -12.6222   16.0263 H         1 3481247     0.0000 
     48 H          17.3383  -10.8465   17.1617 H         1 3481247     0.0000 
     49 H          17.5082  -12.4128   16.3506 H         1 3481247     0.0000 
     50 H          17.0356  -13.6017   18.2404 H         1 3481247     0.0000 
     51 H          18.4777  -11.2486   19.0642 H         1 3481247     0.0000 
     52 H          18.7707  -13.9884   19.1317 H         1 3481247     0.0000 
     53 H          17.5883  -10.7705   21.0369 H         1 3481247     0.0000 
     54 H          19.3471  -15.4573   21.0907 H         1 3481247     0.0000 
     55 H          17.9214  -15.4556   22.1430 H         1 3481247     0.0000 
     56 H          21.4483  -14.5693   21.8968 H         1 3481247     0.0000 
     57 H          22.8602  -13.9598   23.7653 H         1 3481247     0.0000 
     58 H          19.4815  -13.7539   26.2446 H         1 3481247     0.0000 
     59 H          18.0660  -14.3547   24.3733 H         1 3481247     0.0000 
     60 H          20.9396  -13.5891   20.3871 H         1 3481247     0.0000 
     61 H          22.3036  -12.3929   27.9282 H         1 3481247     0.0000 
     62 H          21.3757  -11.6552   26.8414 H         1 3481247     0.0000 
     63 H          20.7966  -12.8976   27.6824 H         1 3481247     0.0000 
     64 H          21.9589  -12.1607   18.6795 H         1 3481247     0.0000 
     65 H          21.0273  -13.2845   18.0047 H         1 3481247     0.0000 
     66 H          20.5283  -11.7569   18.0659 H         1 3481247     0.0000 
     67 H          21.5750  -11.2768   20.8609 H         1 3481247     0.0000 
     68 H          20.0988  -10.7249   20.5404 H         1 3481247     0.0000 
     69 H          20.3346  -11.7140   21.7863 H         1 3481247     0.0000 
@<TRIPOS>BOND
     1    2    1 2    
     2   34    1 1    
     3   35    1 1    
     4    3    2 1    
     5    4    2 1    
     6   36    3 1    
     7   37    3 1    
     8    5    4 ar   
     9    9    4 ar   
    10    6    5 ar   
    11   38    5 1    
    12    7    6 ar   
    13   39    6 1    
    14    8    7 ar   
    15   10    7 1    
    16    9    8 ar   
    17   40    8 1    
    18   41    9 1    
    19   11   10 1    
    20   21   10 1    
    21   42   10 1    
    22   12   11 1    
    23   15   11 1    
    24   43   11 1    
    25   13   12 1    
    26   44   12 1    
    27   45   12 1    
    28   14   13 1    
    29   46   13 1    
    30   47   13 1    
    31   15   14 1    
    32   48   14 1    
    33   49   14 1    
    34   16   15 1    
    35   50   15 1    
    36   17   16 1    
    37   21   16 1    
    38   51   16 1    
    39   18   17 1    
    40   31   17 1    
    41   52   17 1    
    42   19   18 am   
    43   22   18 1    
    44   20   19 2    
    45   21   19 1    
    46   53   21 1    
    47   23   22 1    
    48   54   22 1    
    49   55   22 1    
    50   24   23 ar   
    51   30   23 ar   
    52   25   24 ar   
    53   56   24 1    
    54   26   25 ar   
    55   57   25 1    
    56   27   26 1    
    57   29   26 ar   
    58   28   27 1    
    59   61   28 1    
    60   62   28 1    
    61   63   28 1    
    62   30   29 ar   
    63   58   29 1    
    64   59   30 1    
    65   32   31 1    
    66   33   31 1    
    67   60   31 1    
    68   64   32 1    
    69   65   32 1    
    70   66   32 1    
    71   67   33 1    
    72   68   33 1    
    73   69   33 1    
@<TRIPOS>SUBSTRUCTURE
     1 3481247     1 GROUP   
@<TRIPOS>SET

