#    Name: 2xkd_T3M_1_INTS_M
#    Modification time : Tue Mar 25 06:14:37 2014

@<TRIPOS>MOLECULE
2xkd_T3M_1_INTS_M
   66     0    12     0     0
SMALL
NO_CHARGES


@<TRIPOS>ATOM
      1 NZ         23.6320   -7.5875   10.5995 N.4       3 LYC4        0.0000 
      2 NZ         23.5060   -8.1920   11.8360 N.4      11 LYL4        0.0000 
      3 NZ         23.7580   -6.9830    9.3630 N.4       7 LYP4        0.0000 
      4 N          23.6320   -7.5875   10.5995 N.am      2 SEC2        0.0000 
      5 N          23.5060   -8.1920   11.8360 N.am     10 SEL2        0.0000 
      6 N          23.7580   -6.9830    9.3630 N.am      6 SEP2        0.0000 
      7 NZ         22.7895   -6.9255   10.9370 N.4       3 LYC4        0.0000 
      8 NZ         21.8210   -6.8680   12.5110 N.4      11 LYL4        0.0000 
      9 N          20.8160   -6.0015   12.6350 N.am      2 SEC2        0.0000 
     10 N          21.8210   -6.8680   12.5110 N.am     10 SEL2        0.0000 
     11 N          19.8110   -5.1350   12.7590 N.am      6 SEP2        0.0000 
     12 N          20.5305   -7.4500   12.7610 N.am      2 SEC2        0.0000 
     13 N          19.2400   -8.0320   13.0110 N.am      6 SEP2        0.0000 
     14 CA         21.4475   -5.1650   15.9625 C.3       4 GLC5        0.0000 
     15 CA         22.4250   -7.0400   15.2880 C.3      12 GLL5        0.0000 
     16 CA         20.4700   -3.2900   16.6370 C.3       8 GLP5        0.0000 
     17 CA         20.2530   -7.2465   15.1660 C.3       4 GLC5        0.0000 
     18 CA         18.0810   -7.4530   15.0440 C.3       8 GLP5        0.0000 
     19 CA         21.0165   -6.0345   17.1030 C.3       4 GLC5        0.0000 
     20 CA         22.8830   -6.9150   16.5640 C.3      12 GLL5        0.0000 
     21 CA         19.1500   -5.1540   17.6420 C.3       8 GLP5        0.0000 
     22 CA         26.3915   -4.5495   18.9555 C.3       4 GLC5        0.0000 
     23 CA         24.7490   -5.7360   18.9190 C.3      12 GLL5        0.0000 
     24 CA         28.0340   -3.3630   18.9920 C.3       8 GLP5        0.0000 
     25 CA         23.6030   -5.6265   20.7025 C.3       4 GLC5        0.0000 
     26 CA         22.4570   -5.5170   22.4860 C.3       8 GLP5        0.0000 
     27 O          24.0515   -3.3000   18.6480 O.2       1 ALC1        0.0000 
     28 O          24.0810   -4.6270   18.2900 O.2       9 ALL1        0.0000 
     29 O          24.0220   -1.9730   19.0060 O.2       5 ALP1        0.0000 
     30 N          24.7580   -4.7275   21.2470 N.am      2 SEC2        0.0000 
     31 N          25.2400   -5.5590   20.1680 N.am     10 SEL2        0.0000 
     32 N          24.2760   -3.8960   22.3260 N.am      6 SEP2        0.0000 
     33 CA         26.9300   -4.9600   19.8830 C.3       4 GLC5        0.0000 
     34 CA         25.8260   -6.5570   20.7740 C.3      12 GLL5        0.0000 
     35 CA         24.1415   -6.0370   21.6300 C.3       4 GLC5        0.0000 
     36 CA         28.1090   -7.1510   19.9540 C.3       4 GLC5        0.0000 
     37 CA         25.9920   -7.8480   20.0740 C.3      12 GLL5        0.0000 
     38 CA         30.2260   -6.4540   19.8340 C.3       8 GLP5        0.0000 
     39 CA         25.9425  -11.8315   23.6605 C.3       4 GLC5        0.0000 
     40 CA         27.4040  -13.2210   23.4820 C.3      12 GLL5        0.0000 
     41 CA         24.4810  -10.4420   23.8390 C.3       8 GLP5        0.0000 
     42 CA         26.1845  -14.8290   23.8680 C.3       4 GLC5        0.0000 
     43 CA         24.9650  -16.4370   24.2540 C.3       8 GLP5        0.0000 
     44 CA         28.4995   -6.6325   23.8820 C.3       4 GLC5        0.0000 
     45 CA         28.6130   -8.5720   24.5130 C.3      12 GLL5        0.0000 
     46 CA         28.3860   -4.6930   23.2510 C.3       8 GLP5        0.0000 
     47 CA         23.9653   -5.6940   14.5410 C.3       4 GLC5        0.0000 
     48 CA         24.6880   -7.6580   14.5310 C.3      12 GLL5        0.0000 
     49 CA         23.9340   -3.8510   14.6920 C.3       8 GLP5        0.0000 
     50 CA         26.5530   -7.8525   14.4220 C.3       4 GLC5        0.0000 
     51 CA         28.1790   -8.1080   13.6540 C.3       8 GLP5        0.0000 
     52 CA         24.3362   -5.6082   15.5222 C.3       4 GLC5        0.0000 
     53 CA         25.1660   -7.5360   15.8490 C.3      12 GLL5        0.0000 
     54 CA         23.2940   -5.4143   15.3090 C.3       4 GLC5        0.0000 
     55 CA         28.5832   -9.2057   20.7003 C.3       4 GLC5        0.0000 
     56 CA         26.6240   -9.0200   20.8010 C.3      12 GLL5        0.0000 
     57 CA         30.2430   -9.4820   19.9640 C.3       8 GLP5        0.0000 
     58 CA         25.7022   -9.6857   22.6378 C.3       4 GLC5        0.0000 
     59 CA         27.2230   -8.8390   22.0720 C.3      12 GLL5        0.0000 
     60 CA         28.5478  -10.1640   20.2700 C.3       4 GLC5        0.0000 
     61 CA         26.5680  -10.2640   20.2240 C.3      12 GLL5        0.0000 
     62 CA         25.6668  -10.6440   22.2075 C.3       4 GLC5        0.0000 
     63 CA         28.9958  -10.0490   21.2037 C.3       4 GLC5        0.0000 
     64 CA         27.7210  -11.2520   22.1440 C.3      12 GLL5        0.0000 
     65 CA         26.1148  -10.5290   23.1412 C.3       4 GLC5        0.0000 
     66 CA         27.7760   -9.9800   22.7430 C.3      12 GLL5        0.0000 
@<TRIPOS>BOND
@<TRIPOS>SUBSTRUCTURE
     1 ALC1       27 GROUP        1 X    ALC  0     ROOT ALC X 1
     2 SEC2        4 GROUP        1 X    SEC  0     **** SEC X 2
     3 LYC4        1 GROUP        1 X    LYC  0     **** LYC X 4
     4 GLC5       14 GROUP        1 X    GLC  0     **** GLC X 6
     5 ALP1       29 GROUP        1 Y    ALP  0     ROOT ALP Y 8
     6 SEP2        6 GROUP        1 Y    SEP  0     **** SEP Y 9
     7 LYP4        3 GROUP        1 Y    LYP  0     **** LYP Y 11
     8 GLP5       16 GROUP        1 Y    GLP  0     **** GLP Y 13
     9 ALL1       28 GROUP        1 Z    ALL  0     ROOT ALL Z 15
    10 SEL2        5 GROUP        1 Z    SEL  0     **** SEL Z 16
    11 LYL4        2 GROUP        1 Z    LYL  0     **** LYL Z 18
    12 GLL5       15 GROUP        1 Z    GLL  0     **** GLL Z 20
@<TRIPOS>SET

