#    Name: 2xkd_T3M_1_ligand
#    Modification time : Tue Mar 25 06:14:37 2014

@<TRIPOS>MOLECULE
2xkd_T3M_1_ligand
   46    48     1     0     0
SMALL
NO_CHARGES


@<TRIPOS>ATOM
      1 O26        23.5060   -8.1920   11.8360 O.co2     1 T3M1280     0.0000 
      2 C24        22.8010   -7.4720   12.8080 C.2       1 T3M1280     0.0000 
      3 O25        21.8210   -6.8680   12.5110 O.co2     1 T3M1280     0.0000 
      4 C23        23.3050   -7.4160   14.2490 C.ar      1 T3M1280     0.0000 
      5 C22        24.6880   -7.6580   14.5310 C.ar      1 T3M1280     0.0000 
      6 C21        25.1660   -7.5360   15.8490 C.ar      1 T3M1280     0.0000 
      7 C27        22.4250   -7.0400   15.2880 C.ar      1 T3M1280     0.0000 
      8 C28        22.8830   -6.9150   16.5640 C.ar      1 T3M1280     0.0000 
      9 C20        24.3110   -7.1950   16.8560 C.ar      1 T3M1280     0.0000 
     10 C19        24.8530   -7.0130   18.2670 C.ar      1 T3M1280     0.0000 
     11 N14        25.4780   -8.0320   18.8880 N.ar      1 T3M1280     0.0000 
     12 C17        24.7490   -5.7360   18.9190 C.ar      1 T3M1280     0.0000 
     13 N18        24.0810   -4.6270   18.2900 N.pl3     1 T3M1280     0.0000 
     14 N16        25.2400   -5.5590   20.1680 N.ar      1 T3M1280     0.0000 
     15 C15        25.8260   -6.5570   20.7740 C.ar      1 T3M1280     0.0000 
     16 C13        25.9920   -7.8480   20.0740 C.ar      1 T3M1280     0.0000 
     17 C12        26.6240   -9.0200   20.8010 C.ar      1 T3M1280     0.0000 
     18 C4         27.2230   -8.8390   22.0720 C.ar      1 T3M1280     0.0000 
     19 C11        26.5680  -10.2640   20.2240 C.ar      1 T3M1280     0.0000 
     20 C8         27.1370  -11.4280   20.9280 C.ar      1 T3M1280     0.0000 
     21 O9         27.0890  -12.7130   20.3670 O.3       1 T3M1280     0.0000 
     22 C10        26.6140  -12.8850   19.0590 C.3       1 T3M1280     0.0000 
     23 C5         27.7210  -11.2520   22.1440 C.ar      1 T3M1280     0.0000 
     24 O6         28.2690  -12.3530   22.7990 O.3       1 T3M1280     0.0000 
     25 C7         27.4040  -13.2210   23.4820 C.3       1 T3M1280     0.0000 
     26 C3         27.7760   -9.9800   22.7430 C.ar      1 T3M1280     0.0000 
     27 O2         28.3210   -9.8480   24.0230 O.3       1 T3M1280     0.0000 
     28 C1         28.6130   -8.5720   24.5130 C.3       1 T3M1280     0.0000 
     29 H          25.3149   -7.9170   13.7724 H         1 T3M1280     0.0000 
     30 H          26.1647   -7.7081   16.0337 H         1 T3M1280     0.0000 
     31 H          21.4353   -6.8644   15.0558 H         1 T3M1280     0.0000 
     32 H          22.2986   -6.6367   17.3453 H         1 T3M1280     0.0000 
     33 H          24.0736   -3.7690   18.8037 H         1 T3M1280     0.0000 
     34 H          23.6800   -4.8069   17.3918 H         1 T3M1280     0.0000 
     35 H          26.1969   -6.5218   21.7340 H         1 T3M1280     0.0000 
     36 H          27.2639   -7.9293   22.5035 H         1 T3M1280     0.0000 
     37 H          26.1442  -10.4299   19.3136 H         1 T3M1280     0.0000 
     38 H          27.1615  -12.3756   18.3951 H         1 T3M1280     0.0000 
     39 H          26.6336  -13.8451   18.7800 H         1 T3M1280     0.0000 
     40 H          25.6695  -12.5709   18.9626 H         1 T3M1280     0.0000 
     41 H          27.8988  -13.9768   23.9109 H         1 T3M1280     0.0000 
     42 H          26.9020  -12.7501   24.2074 H         1 T3M1280     0.0000 
     43 H          26.7243  -13.6254   22.8701 H         1 T3M1280     0.0000 
     44 H          28.9934   -8.6071   25.4372 H         1 T3M1280     0.0000 
     45 H          29.2805   -8.0976   23.9391 H         1 T3M1280     0.0000 
     46 H          27.7979   -7.9941   24.5533 H         1 T3M1280     0.0000 
@<TRIPOS>BOND
     1    2    1 ar   
     2    3    2 ar   
     3    4    2 1    
     4    5    4 ar   
     5    7    4 ar   
     6    6    5 ar   
     7   29    5 1    
     8    9    6 ar   
     9   30    6 1    
    10    8    7 ar   
    11   31    7 1    
    12    9    8 ar   
    13   32    8 1    
    14   10    9 1    
    15   11   10 ar   
    16   12   10 ar   
    17   16   11 ar   
    18   13   12 1    
    19   14   12 ar   
    20   33   13 1    
    21   34   13 1    
    22   15   14 ar   
    23   16   15 ar   
    24   35   15 1    
    25   17   16 1    
    26   18   17 ar   
    27   19   17 ar   
    28   26   18 ar   
    29   36   18 1    
    30   20   19 ar   
    31   37   19 1    
    32   21   20 1    
    33   23   20 ar   
    34   22   21 1    
    35   38   22 1    
    36   39   22 1    
    37   40   22 1    
    38   24   23 1    
    39   26   23 ar   
    40   25   24 1    
    41   41   25 1    
    42   42   25 1    
    43   43   25 1    
    44   27   26 1    
    45   28   27 1    
    46   44   28 1    
    47   45   28 1    
    48   46   28 1    
@<TRIPOS>SUBSTRUCTURE
     1 T3M1280     1 GROUP   
@<TRIPOS>SET

