#    Name: 4FPY_1_CAVITY_N1_ALL.mol2
#    Modification time : Mon Mar 10 20:43:46 2014

@<TRIPOS>MOLECULE
4FPY_1_CAVITY_N1_ALL.mol2
  122     0     6     0     0
SMALL
NO_CHARGES


@<TRIPOS>ATOM
      1 CA          6.2976   -7.7844   41.0434 C.3       5 GLY6        0.0000 
      2 CA          5.2609   -6.7071   41.1658 C.3       5 GLY6        0.0000 
      3 N           4.2243   -5.6299   41.2882 N.2       2 ALA2        0.0000 
      4 NZ          7.6077   -8.4379   39.5084 N.2       3 LYS4        0.0000 
      5 CA          6.5710   -7.3607   39.6307 C.3       5 GLY6        0.0000 
      6 CA          5.5344   -6.2835   39.7531 C.3       5 GLY6        0.0000 
      7 CA          4.4978   -5.2062   39.8755 C.3       5 GLY6        0.0000 
      8 CA          3.4611   -4.1290   39.9979 C.3       5 GLY6        0.0000 
      9 NZ          7.8812   -8.0143   38.0957 N.2       3 LYS4        0.0000 
     10 DU          6.8445   -6.9370   38.2180 H         6 CUB7        0.0000 
     11 NZ          5.8079   -5.8598   38.3404 N.2       3 LYS4        0.0000 
     12 NZ          4.7713   -4.7826   38.4628 N.2       3 LYS4        0.0000 
     13 NZ          3.7346   -3.7054   38.5852 N.2       3 LYS4        0.0000 
     14 OG          7.1180   -6.5134   36.8053 O.2       1 SER1        0.0000 
     15 NZ          6.0814   -5.4361   36.9277 N.2       3 LYS4        0.0000 
     16 NZ          5.0447   -4.3589   37.0501 N.2       3 LYS4        0.0000 
     17 CA          5.5219   -8.3147   39.1416 C.3       5 GLY6        0.0000 
     18 NZ          5.7954   -7.8910   37.7289 N.2       3 LYS4        0.0000 
     19 DU         11.8290   -0.5595   42.6882 H         6 CUB7        0.0000 
     20 O          14.1757   -2.2903   41.0308 O.2       2 ALA2        0.0000 
     21 OG         13.1391   -1.2131   41.1531 O.2       1 SER1        0.0000 
     22 DU         12.1025   -0.1359   41.2755 H         6 CUB7        0.0000 
     23 OG         15.4858   -2.9439   39.4957 O.2       1 SER1        0.0000 
     24 O          14.4492   -1.8667   39.6181 O.2       2 ALA2        0.0000 
     25 O          13.4126   -0.7894   39.7404 O.2       2 ALA2        0.0000 
     26 O          12.3759    0.2878   39.8628 O.2       2 ALA2        0.0000 
     27 O          15.7593   -2.5202   38.0830 O.2       2 ALA2        0.0000 
     28 O          14.7227   -1.4430   38.2054 O.2       2 ALA2        0.0000 
     29 OG         10.5064   -1.9372   43.6117 O.2       1 SER1        0.0000 
     30 N           9.4698   -0.8600   43.7341 N.2       2 ALA2        0.0000 
     31 OG         10.7799   -1.5135   42.1990 O.2       1 SER1        0.0000 
     32 N           9.7433   -0.4363   42.3214 N.2       2 ALA2        0.0000 
     33 OG         12.0900   -2.1671   40.6640 O.2       1 SER1        0.0000 
     34 OG         11.0534   -1.0899   40.7863 O.2       1 SER1        0.0000 
     35 N          10.0167   -0.0126   40.9087 N.2       2 ALA2        0.0000 
     36 CZ         14.4367   -3.8979   39.0065 C.ar      4 PHE5        0.0000 
     37 CZ         13.4001   -2.8207   39.1289 C.ar      4 PHE5        0.0000 
     38 O          12.3635   -1.7434   39.2513 O.2       2 ALA2        0.0000 
     39 O          11.3268   -0.6662   39.3736 O.2       2 ALA2        0.0000 
     40 O          14.7102   -3.4742   37.5938 O.2       2 ALA2        0.0000 
     41 O          13.6736   -2.3970   37.7162 O.2       2 ALA2        0.0000 
     42 O          12.6370   -1.3198   37.8386 O.2       2 ALA2        0.0000 
     43 O          14.9837   -3.0506   36.1811 O.2       2 ALA2        0.0000 
     44 O          13.9471   -1.9733   36.3035 O.2       2 ALA2        0.0000 
     45 N           9.1838   -3.3148   44.5353 N.2       2 ALA2        0.0000 
     46 N           8.1472   -2.2376   44.6576 N.2       2 ALA2        0.0000 
     47 OG          9.4573   -2.8912   43.1226 O.2       1 SER1        0.0000 
     48 N           8.4207   -1.8139   43.2449 N.2       2 ALA2        0.0000 
     49 OG          9.7308   -2.4675   41.7099 O.2       1 SER1        0.0000 
     50 N           8.6942   -1.3903   41.8322 N.2       2 ALA2        0.0000 
     51 OG         10.0043   -2.0438   40.2972 O.2       1 SER1        0.0000 
     52 N           8.9676   -0.9666   40.4195 N.2       2 ALA2        0.0000 
     53 CZ         11.3144   -2.6974   38.7621 C.ar      4 PHE5        0.0000 
     54 DU         10.2777   -1.6202   38.8845 H         6 CUB7        0.0000 
     55 DU          9.2411   -0.5430   39.0068 H         6 CUB7        0.0000 
     56 CZ         13.6611   -4.4282   37.1046 C.ar      4 PHE5        0.0000 
     57 CZ         12.6245   -3.3510   37.2270 C.ar      4 PHE5        0.0000 
     58 O          11.5879   -2.2738   37.3494 O.2       2 ALA2        0.0000 
     59 O          10.5512   -1.1965   37.4718 O.2       2 ALA2        0.0000 
     60 N          13.9346   -4.0045   35.6919 N.2       2 ALA2        0.0000 
     61 N          12.8980   -2.9273   35.8143 N.2       2 ALA2        0.0000 
     62 O          11.8613   -1.8501   35.9367 O.2       2 ALA2        0.0000 
     63 N          12.1348   -1.4264   34.5240 N.2       2 ALA2        0.0000 
     64 N          11.0982   -0.3492   34.6464 N.2       2 ALA2        0.0000 
     65 O           5.7880   -2.5380   45.7035 O.2       2 ALA2        0.0000 
     66 CA          8.1347   -4.2688   44.0461 C.3       5 GLY6        0.0000 
     67 CA          7.0981   -3.1916   44.1685 C.3       5 GLY6        0.0000 
     68 CA          6.0615   -2.1144   44.2908 C.3       5 GLY6        0.0000 
     69 OG          8.4082   -3.8452   42.6334 O.2       1 SER1        0.0000 
     70 CA          7.3716   -2.7679   42.7558 C.3       5 GLY6        0.0000 
     71 CA          6.3350   -1.6907   42.8781 C.3       5 GLY6        0.0000 
     72 OG          8.6817   -3.4215   41.2207 O.2       1 SER1        0.0000 
     73 DU          7.6451   -2.3443   41.3431 H         6 CUB7        0.0000 
     74 N           6.6084   -1.2670   41.4654 N.2       2 ALA2        0.0000 
     75 OG          8.9552   -2.9978   39.8080 O.2       1 SER1        0.0000 
     76 DU          7.9185   -1.9206   39.9304 H         6 CUB7        0.0000 
     77 N           6.8819   -0.8434   40.0527 N.2       2 ALA2        0.0000 
     78 CZ         10.2653   -3.6514   38.2729 C.ar      4 PHE5        0.0000 
     79 DU          9.2287   -2.5742   38.3953 H         6 CUB7        0.0000 
     80 CZ         11.5754   -4.3050   36.7378 C.ar      4 PHE5        0.0000 
     81 DU         10.5388   -3.2277   36.8602 H         6 CUB7        0.0000 
     82 DU          9.5021   -2.1505   36.9826 H         6 CUB7        0.0000 
     83 CZ         11.8489   -3.8813   35.3251 C.ar      4 PHE5        0.0000 
     84 OG         10.8122   -2.8041   35.4475 O.2       1 SER1        0.0000 
     85 OG         10.0491   -1.3032   34.1572 O.2       1 SER1        0.0000 
     86 CA          5.7755   -4.5692   45.0920 C.3       5 GLY6        0.0000 
     87 CA          4.7389   -3.4920   45.2143 C.3       5 GLY6        0.0000 
     88 O           3.7023   -2.4148   45.3367 O.2       2 ALA2        0.0000 
     89 CA          6.0490   -4.1456   43.6793 C.3       5 GLY6        0.0000 
     90 N           5.0124   -3.0684   43.8016 N.2       2 ALA2        0.0000 
     91 CA          3.9758   -1.9911   43.9240 C.3       5 GLY6        0.0000 
     92 CA          7.3591   -4.7991   42.1442 C.3       5 GLY6        0.0000 
     93 CA          6.3225   -3.7219   42.2666 C.3       5 GLY6        0.0000 
     94 N           5.2859   -2.6447   42.3889 N.2       2 ALA2        0.0000 
     95 CA          4.2492   -1.5675   42.5113 C.3       5 GLY6        0.0000 
     96 OG          7.6326   -4.3755   40.7315 O.2       1 SER1        0.0000 
     97 DU          6.5960   -3.2983   40.8539 H         6 CUB7        0.0000 
     98 DU          5.5593   -2.2210   40.9762 H         6 CUB7        0.0000 
     99 CZ          8.9427   -5.0291   39.1964 C.ar      4 PHE5        0.0000 
    100 DU          7.9061   -3.9518   39.3188 H         6 CUB7        0.0000 
    101 DU          5.8328   -1.7974   39.5635 H         6 CUB7        0.0000 
    102 OG         10.2528   -5.6826   37.6613 O.2       1 SER1        0.0000 
    103 OG          9.2162   -4.6054   37.7837 O.2       1 SER1        0.0000 
    104 DU          8.1796   -3.5282   37.9061 H         6 CUB7        0.0000 
    105 OG          9.4897   -4.1817   36.3710 O.2       1 SER1        0.0000 
    106 OG          8.4530   -3.1045   36.4934 O.2       1 SER1        0.0000 
    107 CA          4.9999   -5.0996   43.1901 C.3       5 GLY6        0.0000 
    108 CA          6.3100   -5.7531   41.6550 C.3       5 GLY6        0.0000 
    109 N           5.2734   -4.6759   41.7774 N.2       2 ALA2        0.0000 
    110 CZ          7.6201   -6.4067   40.1199 C.ar      4 PHE5        0.0000 
    111 CA          6.5835   -5.3295   40.2423 C.3       5 GLY6        0.0000 
    112 DU          5.5469   -4.2523   40.3647 H         6 CUB7        0.0000 
    113 N           4.5102   -3.1750   40.4871 N.2       2 ALA2        0.0000 
    114 CZ          7.8936   -5.9830   38.7072 C.ar      4 PHE5        0.0000 
    115 DU          6.8570   -4.9058   38.8296 H         6 CUB7        0.0000 
    116 DU          5.8204   -3.8286   38.9520 H         6 CUB7        0.0000 
    117 DU          4.7837   -2.7514   39.0744 H         6 CUB7        0.0000 
    118 OG          8.1671   -5.5594   37.2945 O.2       1 SER1        0.0000 
    119 DU          7.1305   -4.4822   37.4169 H         6 CUB7        0.0000 
    120 DU          6.0938   -3.4049   37.5393 H         6 CUB7        0.0000 
    121 OG          8.4406   -5.1357   35.8818 O.2       1 SER1        0.0000 
    122 OG          7.4039   -4.0585   36.0042 O.2       1 SER1        0.0000 
@<TRIPOS>BOND
@<TRIPOS>SUBSTRUCTURE
     1 SER1       14 GROUP   
     2 ALA2        3 GROUP   
     3 LYS4        4 GROUP   
     4 PHE5       36 GROUP   
     5 GLY6        1 GROUP   
     6 CUB7       10 GROUP   
@<TRIPOS>SET

