#    Name: 4FPY_1_CAVITY_N1_6.mol2
#    Modification time : Mon Mar 10 20:43:46 2014

@<TRIPOS>MOLECULE
4FPY_1_CAVITY_N1_6.mol2
   82     0     6     0     0
SMALL
NO_CHARGES


@<TRIPOS>ATOM
      1 CA          6.2976   -7.7844   41.0434 C.3       5 GLY6        0.0000 
      2 CA          5.2609   -6.7071   41.1658 C.3       5 GLY6        0.0000 
      3 N           4.2243   -5.6299   41.2882 N.2       2 ALA2        0.0000 
      4 NZ          7.6077   -8.4379   39.5084 N.2       3 LYS4        0.0000 
      5 CA          6.5710   -7.3607   39.6307 C.3       5 GLY6        0.0000 
      6 CA          5.5344   -6.2835   39.7531 C.3       5 GLY6        0.0000 
      7 CA          4.4978   -5.2062   39.8755 C.3       5 GLY6        0.0000 
      8 CA          3.4611   -4.1290   39.9979 C.3       5 GLY6        0.0000 
      9 NZ          7.8812   -8.0143   38.0957 N.2       3 LYS4        0.0000 
     10 DU          6.8445   -6.9370   38.2180 H         6 CUB7        0.0000 
     11 NZ          5.8079   -5.8598   38.3404 N.2       3 LYS4        0.0000 
     12 NZ          4.7713   -4.7826   38.4628 N.2       3 LYS4        0.0000 
     13 NZ          3.7346   -3.7054   38.5852 N.2       3 LYS4        0.0000 
     14 OG          7.1180   -6.5134   36.8053 O.2       1 SER1        0.0000 
     15 NZ          6.0814   -5.4361   36.9277 N.2       3 LYS4        0.0000 
     16 NZ          5.0447   -4.3589   37.0501 N.2       3 LYS4        0.0000 
     17 CA          5.5219   -8.3147   39.1416 C.3       5 GLY6        0.0000 
     18 NZ          5.7954   -7.8910   37.7289 N.2       3 LYS4        0.0000 
     19 N           9.1838   -3.3148   44.5353 N.2       2 ALA2        0.0000 
     20 N           8.1472   -2.2376   44.6576 N.2       2 ALA2        0.0000 
     21 OG          9.4573   -2.8912   43.1226 O.2       1 SER1        0.0000 
     22 N           8.4207   -1.8139   43.2449 N.2       2 ALA2        0.0000 
     23 OG          9.7308   -2.4675   41.7099 O.2       1 SER1        0.0000 
     24 N           8.6942   -1.3903   41.8322 N.2       2 ALA2        0.0000 
     25 OG         10.0043   -2.0438   40.2972 O.2       1 SER1        0.0000 
     26 N           8.9676   -0.9666   40.4195 N.2       2 ALA2        0.0000 
     27 O           5.7880   -2.5380   45.7035 O.2       2 ALA2        0.0000 
     28 CA          8.1347   -4.2688   44.0461 C.3       5 GLY6        0.0000 
     29 CA          7.0981   -3.1916   44.1685 C.3       5 GLY6        0.0000 
     30 CA          6.0615   -2.1144   44.2908 C.3       5 GLY6        0.0000 
     31 OG          8.4082   -3.8452   42.6334 O.2       1 SER1        0.0000 
     32 CA          7.3716   -2.7679   42.7558 C.3       5 GLY6        0.0000 
     33 CA          6.3350   -1.6907   42.8781 C.3       5 GLY6        0.0000 
     34 OG          8.6817   -3.4215   41.2207 O.2       1 SER1        0.0000 
     35 DU          7.6451   -2.3443   41.3431 H         6 CUB7        0.0000 
     36 N           6.6084   -1.2670   41.4654 N.2       2 ALA2        0.0000 
     37 OG          8.9552   -2.9978   39.8080 O.2       1 SER1        0.0000 
     38 DU          7.9185   -1.9206   39.9304 H         6 CUB7        0.0000 
     39 N           6.8819   -0.8434   40.0527 N.2       2 ALA2        0.0000 
     40 CZ         10.2653   -3.6514   38.2729 C.ar      4 PHE5        0.0000 
     41 DU          9.2287   -2.5742   38.3953 H         6 CUB7        0.0000 
     42 CZ         11.5754   -4.3050   36.7378 C.ar      4 PHE5        0.0000 
     43 DU         10.5388   -3.2277   36.8602 H         6 CUB7        0.0000 
     44 DU          9.5021   -2.1505   36.9826 H         6 CUB7        0.0000 
     45 OG         10.8122   -2.8041   35.4475 O.2       1 SER1        0.0000 
     46 CA          5.7755   -4.5692   45.0920 C.3       5 GLY6        0.0000 
     47 CA          4.7389   -3.4920   45.2143 C.3       5 GLY6        0.0000 
     48 O           3.7023   -2.4148   45.3367 O.2       2 ALA2        0.0000 
     49 CA          6.0490   -4.1456   43.6793 C.3       5 GLY6        0.0000 
     50 N           5.0124   -3.0684   43.8016 N.2       2 ALA2        0.0000 
     51 CA          3.9758   -1.9911   43.9240 C.3       5 GLY6        0.0000 
     52 CA          7.3591   -4.7991   42.1442 C.3       5 GLY6        0.0000 
     53 CA          6.3225   -3.7219   42.2666 C.3       5 GLY6        0.0000 
     54 N           5.2859   -2.6447   42.3889 N.2       2 ALA2        0.0000 
     55 CA          4.2492   -1.5675   42.5113 C.3       5 GLY6        0.0000 
     56 OG          7.6326   -4.3755   40.7315 O.2       1 SER1        0.0000 
     57 DU          6.5960   -3.2983   40.8539 H         6 CUB7        0.0000 
     58 DU          5.5593   -2.2210   40.9762 H         6 CUB7        0.0000 
     59 CZ          8.9427   -5.0291   39.1964 C.ar      4 PHE5        0.0000 
     60 DU          7.9061   -3.9518   39.3188 H         6 CUB7        0.0000 
     61 DU          5.8328   -1.7974   39.5635 H         6 CUB7        0.0000 
     62 OG         10.2528   -5.6826   37.6613 O.2       1 SER1        0.0000 
     63 OG          9.2162   -4.6054   37.7837 O.2       1 SER1        0.0000 
     64 DU          8.1796   -3.5282   37.9061 H         6 CUB7        0.0000 
     65 OG          9.4897   -4.1817   36.3710 O.2       1 SER1        0.0000 
     66 OG          8.4530   -3.1045   36.4934 O.2       1 SER1        0.0000 
     67 CA          4.9999   -5.0996   43.1901 C.3       5 GLY6        0.0000 
     68 CA          6.3100   -5.7531   41.6550 C.3       5 GLY6        0.0000 
     69 N           5.2734   -4.6759   41.7774 N.2       2 ALA2        0.0000 
     70 CZ          7.6201   -6.4067   40.1199 C.ar      4 PHE5        0.0000 
     71 CA          6.5835   -5.3295   40.2423 C.3       5 GLY6        0.0000 
     72 DU          5.5469   -4.2523   40.3647 H         6 CUB7        0.0000 
     73 N           4.5102   -3.1750   40.4871 N.2       2 ALA2        0.0000 
     74 CZ          7.8936   -5.9830   38.7072 C.ar      4 PHE5        0.0000 
     75 DU          6.8570   -4.9058   38.8296 H         6 CUB7        0.0000 
     76 DU          5.8204   -3.8286   38.9520 H         6 CUB7        0.0000 
     77 DU          4.7837   -2.7514   39.0744 H         6 CUB7        0.0000 
     78 OG          8.1671   -5.5594   37.2945 O.2       1 SER1        0.0000 
     79 DU          7.1305   -4.4822   37.4169 H         6 CUB7        0.0000 
     80 DU          6.0938   -3.4049   37.5393 H         6 CUB7        0.0000 
     81 OG          8.4406   -5.1357   35.8818 O.2       1 SER1        0.0000 
     82 OG          7.4039   -4.0585   36.0042 O.2       1 SER1        0.0000 
@<TRIPOS>BOND
@<TRIPOS>SUBSTRUCTURE
     1 SER1       14 GROUP   
     2 ALA2        3 GROUP   
     3 LYS4        4 GROUP   
     4 PHE5       40 GROUP   
     5 GLY6        1 GROUP   
     6 CUB7       10 GROUP   
@<TRIPOS>SET

