#    Name: 4fpy_0V8_1_INTS_M
#    Modification time : Mon Mar 24 20:32:51 2014

@<TRIPOS>MOLECULE
4fpy_0V8_1_INTS_M
   49     0    12     0     0
SMALL
NO_CHARGES


@<TRIPOS>ATOM
      1 CA          3.6690   -6.0225   38.8225 C.3       4 GLC5        0.0000 
      2 CA          5.8340   -6.1080   38.6630 C.3      12 GLL5        0.0000 
      3 CA          1.5040   -5.9370   38.9820 C.3       8 GLP5        0.0000 
      4 CA          3.8700   -7.9965   32.4720 C.3       4 GLC5        0.0000 
      5 CA          3.5310   -6.6690   33.8730 C.3      12 GLL5        0.0000 
      6 CA          4.2090   -9.3240   31.0710 C.3       8 GLP5        0.0000 
      7 OD1         3.9180   -6.3700   36.3875 O.co2     2 ASC3        0.0000 
      8 OD1         5.1130   -6.9620   35.8190 O.co2    10 ASL3        0.0000 
      9 OD1         2.7230   -5.7780   36.9560 O.co2     6 ASP3        0.0000 
     10 NZ          4.9910   -4.6565   30.6345 N.4       3 LYC4        0.0000 
     11 NZ          3.9300   -5.3460   31.5930 N.4      11 LYL4        0.0000 
     12 NZ          6.6520   -5.1110   29.3890 N.4       7 LYP4        0.0000 
     13 NZ          3.5245   -5.3515   30.2560 N.4       3 LYC4        0.0000 
     14 NZ          1.9080   -5.6800   28.4760 N.4       7 LYP4        0.0000 
     15 N           5.0665   -5.7995   30.7555 N.am      1 SEC2        0.0000 
     16 N           3.9300   -5.3460   31.5930 N.am      9 SEL2        0.0000 
     17 N           6.2030   -6.2530   29.9180 N.am      5 SEP2        0.0000 
     18 N           4.9910   -4.6565   30.6345 N.am      1 SEC2        0.0000 
     19 N           6.0520   -3.9670   29.6760 N.am      5 SEP2        0.0000 
     20 N           3.5245   -5.3515   30.2560 N.am      1 SEC2        0.0000 
     21 N           3.1190   -5.3570   28.9190 N.am      5 SEP2        0.0000 
     22 N           4.4425   -6.8380   31.6410 N.am      1 SEC2        0.0000 
     23 N           4.9550   -8.3300   31.6890 N.am      5 SEP2        0.0000 
     24 NZ          1.1275   -7.4730   31.9520 N.4       3 LYC4        0.0000 
     25 NZ          1.6630   -6.0160   32.0560 N.4      11 LYL4        0.0000 
     26 NZ         -0.3690   -8.7560   32.7540 N.4       7 LYP4        0.0000 
     27 NZ          1.3235   -6.0590   30.7000 N.4       3 LYC4        0.0000 
     28 N           0.5900   -6.7975   32.7195 N.am      1 SEC2        0.0000 
     29 N           1.6630   -6.0160   32.0560 N.am      9 SEL2        0.0000 
     30 N          -0.4830   -7.5790   33.3830 N.am      5 SEP2        0.0000 
     31 N           1.1275   -7.4730   31.9520 N.am      1 SEC2        0.0000 
     32 N           0.5920   -8.9300   31.8480 N.am      5 SEP2        0.0000 
     33 N           1.3235   -6.0590   30.7000 N.am      1 SEC2        0.0000 
     34 N           0.9840   -6.1020   29.3440 N.am      5 SEP2        0.0000 
     35 CA          3.1850   -5.5430   40.0945 C.3       4 GLC5        0.0000 
     36 CA          4.8660   -5.1490   41.2070 C.3      12 GLL5        0.0000 
     37 CA          3.7275   -6.2210   42.5310 C.3       4 GLC5        0.0000 
     38 CA          2.5890   -7.2930   43.8550 C.3       8 GLP5        0.0000 
     39 CA          6.1415   -9.2018   40.8460 C.3       4 GLC5        0.0000 
     40 CA          6.6180   -7.3810   40.5530 C.3      12 GLL5        0.0000 
     41 CA          5.3020  -10.5990   41.5670 C.3       8 GLP5        0.0000 
     42 CA          7.2470   -7.3102   41.9395 C.3       4 GLC5        0.0000 
     43 CA          7.5130   -6.8160   43.7540 C.3       8 GLP5        0.0000 
     44 CA          5.0770   -8.3590   38.8473 C.3       4 GLC5        0.0000 
     45 CA          7.3050   -8.0090   38.3240 C.3      12 GLL5        0.0000 
     46 CA          3.2240   -9.2470   39.6240 C.3       8 GLP5        0.0000 
     47 CA          4.5382   -7.7350   39.4878 C.3       4 GLC5        0.0000 
     48 CA          6.4407   -6.2797   42.1887 C.3       4 GLC5        0.0000 
     49 CA          5.8710   -6.3380   40.0400 C.3      12 GLL5        0.0000 
@<TRIPOS>BOND
@<TRIPOS>SUBSTRUCTURE
     1 SEC2       15 GROUP        1 X    SEC  0     ROOT SEC X 2
     2 ASC3        7 GROUP        1 X    ASC  0     **** ASC X 3
     3 LYC4       10 GROUP        1 X    LYC  0     **** LYC X 4
     4 GLC5        1 GROUP        1 X    GLC  0     **** GLC X 6
     5 SEP2       17 GROUP        1 Y    SEP  0     ROOT SEP Y 9
     6 ASP3        9 GROUP        1 Y    ASP  0     **** ASP Y 10
     7 LYP4       12 GROUP        1 Y    LYP  0     **** LYP Y 11
     8 GLP5        3 GROUP        1 Y    GLP  0     **** GLP Y 13
     9 SEL2       16 GROUP        1 Z    SEL  0     ROOT SEL Z 16
    10 ASL3        8 GROUP        1 Z    ASL  0     **** ASL Z 17
    11 LYL4       11 GROUP        1 Z    LYL  0     **** LYL Z 18
    12 GLL5        2 GROUP        1 Z    GLL  0     **** GLL Z 20
@<TRIPOS>SET

