#    Name: 4fpy_0V8_1_ligand
#    Modification time : Mon Mar 24 20:32:51 2014

@<TRIPOS>MOLECULE
4fpy_0V8_1_ligand
   25    25     1     0     0
SMALL
NO_CHARGES


@<TRIPOS>ATOM
      1 CAE         7.3440   -8.2280   39.6970 C.ar      1 0V8701      0.0000 
      2 CAF         6.6180   -7.3810   40.5530 C.ar      1 0V8701      0.0000 
      3 CAG         7.3050   -8.0090   38.3240 C.ar      1 0V8701      0.0000 
      4 CAH         5.8340   -6.1080   38.6630 C.ar      1 0V8701      0.0000 
      5 CAI         4.8270   -6.2440   34.5650 C.3       1 0V8701      0.0000 
      6 CAJ         3.5310   -6.6690   33.8730 C.3       1 0V8701      0.0000 
      7 CAK         6.4610   -6.6640   36.3250 C.3       1 0V8701      0.0000 
      8 CAM         5.8710   -6.3380   40.0400 C.ar      1 0V8701      0.0000 
      9 CAN         6.5550   -6.9330   37.8170 C.ar      1 0V8701      0.0000 
     10 NAL         5.1130   -6.9620   35.8190 N.4       1 0V8701      0.0000 
     11 OAA         2.6590   -4.2790   33.3800 O.co2     1 0V8701      0.0000 
     12 OAB         3.9300   -5.3460   31.5930 O.co2     1 0V8701      0.0000 
     13 OAC         1.6630   -6.0160   32.0560 O.co2     1 0V8701      0.0000 
     14 SAO         2.9070   -5.5260   32.6660 S.o2      1 0V8701      0.0000 
     15 BR          4.8660   -5.1490   41.2070 Br        1 0V8701      0.0000 
     16 H           7.8935   -8.9960   40.0871 H         1 0V8701      0.0000 
     17 H           6.6503   -7.5485   41.5697 H         1 0V8701      0.0000 
     18 H           7.8145   -8.6207   37.6837 H         1 0V8701      0.0000 
     19 H           5.2770   -5.3348   38.2881 H         1 0V8701      0.0000 
     20 H           4.7710   -5.1510   34.7542 H         1 0V8701      0.0000 
     21 H           5.6609   -6.3845   33.8450 H         1 0V8701      0.0000 
     22 H           2.7009   -6.7724   34.5664 H         1 0V8701      0.0000 
     23 H           3.6416   -7.5894   33.3064 H         1 0V8701      0.0000 
     24 H           7.2087   -7.2814   35.8117 H         1 0V8701      0.0000 
     25 H           6.7151   -5.6122   36.1437 H         1 0V8701      0.0000 
@<TRIPOS>BOND
     1    2    1 ar   
     2    3    1 ar   
     3   16    1 1    
     4    8    2 ar   
     5   17    2 1    
     6    9    3 ar   
     7   18    3 1    
     8    8    4 ar   
     9    9    4 ar   
    10   19    4 1    
    11    6    5 1    
    12   10    5 1    
    13   20    5 1    
    14   21    5 1    
    15   14    6 1    
    16   22    6 1    
    17   23    6 1    
    18    9    7 1    
    19   10    7 1    
    20   24    7 1    
    21   25    7 1    
    22   15    8 1    
    23   14   11 ar   
    24   14   12 ar   
    25   14   13 ar   
@<TRIPOS>SUBSTRUCTURE
     1 0V8701      1 GROUP   
@<TRIPOS>SET

