#    Name: 4i0s_1B5_1_INTS_M
#    Modification time : Tue Mar 25 02:09:46 2014

@<TRIPOS>MOLECULE
4i0s_1B5_1_INTS_M
   70     0     9     0     0
SMALL
NO_CHARGES


@<TRIPOS>ATOM
      1 CA          4.2120   -2.0915   14.5270 C.3       3 GLC5        0.0000 
      2 CA          2.5200   -1.6630   15.6980 C.3       9 GLL5        0.0000 
      3 CA          5.9040   -2.5200   13.3560 C.3       6 GLP5        0.0000 
      4 CA          2.9180   -3.3950   15.7250 C.3       3 GLC5        0.0000 
      5 CA          3.3160   -5.1270   15.7520 C.3       6 GLP5        0.0000 
      6 CA          2.9245   -2.2025   17.6670 C.3       3 GLC5        0.0000 
      7 CA          3.3290   -2.7420   19.6360 C.3       6 GLP5        0.0000 
      8 CA          3.0850    0.3315   16.5095 C.3       3 GLC5        0.0000 
      9 CA          3.6500    2.3260   17.3210 C.3       6 GLP5        0.0000 
     10 CA          1.5190    0.8285   16.1155 C.3       3 GLC5        0.0000 
     11 CA          1.8720   -0.6930   14.9270 C.3       9 GLL5        0.0000 
     12 CA          1.1660    2.3500   17.3040 C.3       6 GLP5        0.0000 
     13 CA          4.0375   -0.0740   12.6370 C.3       3 GLC5        0.0000 
     14 CA          3.8390    0.4800   14.7590 C.3       9 GLL5        0.0000 
     15 CA          4.2360   -0.6280   10.5150 C.3       6 GLP5        0.0000 
     16 CA          5.2690   -2.3665   16.4860 C.3       3 GLC5        0.0000 
     17 CA          4.4860   -0.4990   15.5400 C.3       9 GLL5        0.0000 
     18 CA          6.0520   -4.2340   17.4320 C.3       6 GLP5        0.0000 
     19 N           4.0220   -2.3015   17.2660 N.am      2 SEC2        0.0000 
     20 N           3.7990   -1.5470   15.9810 N.am      8 SEL2        0.0000 
     21 N           4.2450   -3.0560   18.5510 N.am      5 SEP2        0.0000 
     22 CA          7.5075    1.3940   16.2955 C.3       3 GLC5        0.0000 
     23 CA          6.0240    1.0490   15.0380 C.3       9 GLL5        0.0000 
     24 CA          8.9910    1.7390   17.5530 C.3       6 GLP5        0.0000 
     25 O           6.6695   -1.0130   16.3050 O.2       1 ALC1        0.0000 
     26 O           5.7950   -0.1200   15.6760 O.2       7 ALL1        0.0000 
     27 O           7.5440   -1.9060   16.9340 O.2       4 ALP1        0.0000 
     28 CA         -0.1940   -0.5490   11.9315 C.3       3 GLC5        0.0000 
     29 CA         -0.2470    1.2660   13.2300 C.3       9 GLL5        0.0000 
     30 CA         -0.1410   -2.3640   10.6330 C.3       6 GLP5        0.0000 
     31 CA         -1.6600   -3.5845   13.4170 C.3       3 GLC5        0.0000 
     32 CA         -2.6950   -2.6770   14.9100 C.3       9 GLL5        0.0000 
     33 CA         -0.6250   -4.4920   11.9240 C.3       6 GLP5        0.0000 
     34 CA         -2.2370   -1.5170   16.5130 C.3       3 GLC5        0.0000 
     35 CA         -1.7790   -0.3570   18.1160 C.3       6 GLP5        0.0000 
     36 CA         -2.6435    1.7465   10.3265 C.3       3 GLC5        0.0000 
     37 CA         -3.9120    2.0410   11.8460 C.3       9 GLL5        0.0000 
     38 CA         -1.3750    1.4520    8.8070 C.3       6 GLP5        0.0000 
     39 CA         -3.2000    2.5950   13.8450 C.3       3 GLC5        0.0000 
     40 CA         -2.4880    3.1490   15.8440 C.3       6 GLP5        0.0000 
     41 CA         -5.2940    2.8925   12.5085 C.3       3 GLC5        0.0000 
     42 CA         -6.6760    3.7440   13.1710 C.3       6 GLP5        0.0000 
     43 CA          1.3625    4.2145    9.4635 C.3       3 GLC5        0.0000 
     44 CA          2.1320    3.9890   11.4150 C.3       9 GLL5        0.0000 
     45 CA          0.5930    4.4400    7.5120 C.3       6 GLP5        0.0000 
     46 CA          2.3535    5.6160   10.2855 C.3       3 GLC5        0.0000 
     47 CA          2.5750    7.2430    9.1560 C.3       6 GLP5        0.0000 
     48 CA          3.8560    6.8710   13.5745 C.3       3 GLC5        0.0000 
     49 CA          2.5110    5.2850   13.4960 C.3       9 GLL5        0.0000 
     50 CA          5.2010    8.4570   13.6530 C.3       6 GLP5        0.0000 
     51 CA          1.9515   -2.3800   13.5587 C.3       3 GLC5        0.0000 
     52 CA          1.7070   -3.5820   11.8050 C.3       6 GLP5        0.0000 
     53 CA          6.8347    1.3537   13.3538 C.3       3 GLC5        0.0000 
     54 CA          8.2220    1.4440   11.9670 C.3       6 GLP5        0.0000 
     55 CA          3.5025    2.9115   10.7782 C.3       3 GLC5        0.0000 
     56 CA          3.1460    4.2830   12.5240 C.3       9 GLL5        0.0000 
     57 CA          4.3660    1.6870    9.5870 C.3       6 GLP5        0.0000 
     58 CA         -1.4312   -0.3060   16.0110 C.3       3 GLC5        0.0000 
     59 CA         -0.4440    0.0440   13.8950 C.3       9 GLL5        0.0000 
     60 CA          0.4103    1.5025   15.4332 C.3       3 GLC5        0.0000 
     61 CA         -1.0364   -1.2252   12.1115 C.3       3 GLC5        0.0000 
     62 CA         -2.2999    0.8492   15.0205 C.3       3 GLC5        0.0000 
     63 CA         -1.7230   -0.5540   13.9170 C.3       9 GLL5        0.0000 
     64 CA         -2.6680    1.7850   16.4510 C.3       6 GLP5        0.0000 
     65 CA         -1.6555    1.5152   10.7135 C.3       3 GLC5        0.0000 
     66 CA         -2.5660    1.2810   12.6320 C.3       9 GLL5        0.0000 
     67 CA         -1.7898    2.2856   14.3845 C.3       3 GLC5        0.0000 
     68 CA         -1.3060    1.8760   12.6080 C.3       9 GLL5        0.0000 
     69 CA          5.3545   -0.9465   14.1505 C.3       3 GLC5        0.0000 
     70 CA          4.2275    1.4765   16.1330 C.3       3 GLC5        0.0000 
@<TRIPOS>BOND
@<TRIPOS>SUBSTRUCTURE
     1 ALC1       25 GROUP        1 X    ALC  0     ROOT ALC X 1
     2 SEC2       19 GROUP        1 X    SEC  0     **** SEC X 2
     3 GLC5        1 GROUP        1 X    GLC  0     **** GLC X 6
     4 ALP1       27 GROUP        1 Y    ALP  0     ROOT ALP Y 8
     5 SEP2       21 GROUP        1 Y    SEP  0     **** SEP Y 9
     6 GLP5        3 GROUP        1 Y    GLP  0     **** GLP Y 13
     7 ALL1       26 GROUP        1 Z    ALL  0     ROOT ALL Z 15
     8 SEL2       20 GROUP        1 Z    SEL  0     **** SEL Z 16
     9 GLL5        2 GROUP        1 Z    GLL  0     **** GLL Z 20
@<TRIPOS>SET

