#    Name: 4i0s_1B5_1_ligand
#    Modification time : Tue Mar 25 02:09:46 2014

@<TRIPOS>MOLECULE
4i0s_1B5_1_ligand
   43    46     1     0     0
SMALL
NO_CHARGES


@<TRIPOS>ATOM
      1 C1          2.5200   -1.6630   15.6980 C.ar      1 1B5701      0.0000 
      2 C2          1.8720   -0.6930   14.9270 C.ar      1 1B5701      0.0000 
      3 N3          2.5460    0.3630   14.4720 N.ar      1 1B5701      0.0000 
      4 C4          3.8390    0.4800   14.7590 C.ar      1 1B5701      0.0000 
      5 C5          4.4860   -0.4990   15.5400 C.ar      1 1B5701      0.0000 
      6 N6          3.7990   -1.5470   15.9810 N.ar      1 1B5701      0.0000 
      7 C7          4.8710    1.4780   14.4430 C.2       1 1B5701      0.0000 
      8 C8          6.0240    1.0490   15.0380 C.2       1 1B5701      0.0000 
      9 N9          5.7950   -0.1200   15.6760 N.pl3     1 1B5701      0.0000 
     10 C10         0.4310   -0.8640   14.6440 C.2       1 1B5701      0.0000 
     11 C11         4.6840    2.7160   13.6830 C.2       1 1B5701      0.0000 
     12 O12         5.6520    3.4280   13.4810 O.2       1 1B5701      0.0000 
     13 N13         3.4380    3.0500   13.2630 N.am      1 1B5701      0.0000 
     14 C14         3.1460    4.2830   12.5240 C.3       1 1B5701      0.0000 
     15 N15        -0.2980   -1.8720   15.0550 N.2       1 1B5701      0.0000 
     16 N16        -1.6170   -1.7210   14.6260 N.pl3     1 1B5701      0.0000 
     17 C17        -1.7230   -0.5540   13.9170 C.ar      1 1B5701      0.0000 
     18 C18        -0.4440    0.0440   13.8950 C.ar      1 1B5701      0.0000 
     19 C19        -2.7800    0.0820   13.2740 C.ar      1 1B5701      0.0000 
     20 C20        -2.5660    1.2810   12.6320 C.ar      1 1B5701      0.0000 
     21 C21        -1.3060    1.8760   12.6080 C.ar      1 1B5701      0.0000 
     22 C22        -0.2470    1.2660   13.2300 C.ar      1 1B5701      0.0000 
     23 C23        -2.6950   -2.6770   14.9100 C.3       1 1B5701      0.0000 
     24 CL2        -3.9120    2.0410   11.8460 Cl        1 1B5701      0.0000 
     25 C25         2.1320    3.9890   11.4150 C.3       1 1B5701      0.0000 
     26 C26         2.5110    5.2850   13.4960 C.3       1 1B5701      0.0000 
     27 H           1.9516   -2.4716   16.0341 H         1 1B5701      0.0000 
     28 H           6.8716    1.5176   15.0028 H         1 1B5701      0.0000 
     29 H           6.4644   -0.6321   16.1693 H         1 1B5701      0.0000 
     30 H           2.6184    2.4309   13.4521 H         1 1B5701      0.0000 
     31 H           4.0157    4.7072   12.1070 H         1 1B5701      0.0000 
     32 H          -3.7148   -0.3468   13.2818 H         1 1B5701      0.0000 
     33 H          -1.1802    2.7755   12.1196 H         1 1B5701      0.0000 
     34 H           0.6888    1.6867   13.2186 H         1 1B5701      0.0000 
     35 H          -2.4939   -3.5841   14.5402 H         1 1B5701      0.0000 
     36 H          -2.8441   -2.7875   15.8926 H         1 1B5701      0.0000 
     37 H          -3.5649   -2.3847   14.5126 H         1 1B5701      0.0000 
     38 H           1.9069    4.8100   10.8904 H         1 1B5701      0.0000 
     39 H           2.4778    3.3118   10.7655 H         1 1B5701      0.0000 
     40 H           1.2734    3.6312   11.7821 H         1 1B5701      0.0000 
     41 H           3.1216    5.5014   14.2578 H         1 1B5701      0.0000 
     42 H           2.2873    6.1491   13.0451 H         1 1B5701      0.0000 
     43 H           1.6628    4.9325   13.8912 H         1 1B5701      0.0000 
@<TRIPOS>BOND
     1    2    1 ar   
     2    6    1 ar   
     3   27    1 1    
     4    3    2 ar   
     5   10    2 1    
     6    4    3 ar   
     7    5    4 ar   
     8    7    4 1    
     9    6    5 ar   
    10    9    5 1    
    11    8    7 2    
    12   11    7 1    
    13    9    8 1    
    14   28    8 1    
    15   29    9 1    
    16   15   10 2    
    17   18   10 1    
    18   12   11 2    
    19   13   11 am   
    20   14   13 1    
    21   30   13 1    
    22   25   14 1    
    23   26   14 1    
    24   31   14 1    
    25   16   15 1    
    26   17   16 1    
    27   23   16 1    
    28   18   17 ar   
    29   19   17 ar   
    30   22   18 ar   
    31   20   19 ar   
    32   32   19 1    
    33   21   20 ar   
    34   24   20 1    
    35   22   21 ar   
    36   33   21 1    
    37   34   22 1    
    38   35   23 1    
    39   36   23 1    
    40   37   23 1    
    41   38   25 1    
    42   39   25 1    
    43   40   25 1    
    44   41   26 1    
    45   42   26 1    
    46   43   26 1    
@<TRIPOS>SUBSTRUCTURE
     1 1B5701      1 GROUP   
@<TRIPOS>SET

