#    Name: 3VRI_1_CAVITY_N1_6.mol2
#    Modification time : Tue Mar 11 12:00:12 2014

@<TRIPOS>MOLECULE
3VRI_1_CAVITY_N1_6.mol2
   69     0     6     0     0
SMALL
NO_CHARGES


@<TRIPOS>ATOM
      1 CA         14.1718   -7.9099   45.5350 C.3       5 GLY6        0.0000 
      2 N          13.0531   -8.8990   45.6773 N.2       2 ALA2        0.0000 
      3 N          11.9345   -9.8881   45.8195 N.2       2 ALA2        0.0000 
      4 CA          8.7004  -10.7772   45.8390 C.3       5 GLY6        0.0000 
      5 CA         15.4839   -5.1348   43.5157 C.3       5 GLY6        0.0000 
      6 CA         16.4806   -6.2239   43.7808 C.3       5 GLY6        0.0000 
      7 CA         14.3652   -6.1239   43.6580 C.3       5 GLY6        0.0000 
      8 CA         15.3620   -7.2130   43.9231 C.3       5 GLY6        0.0000 
      9 CZ         16.3587   -8.3022   44.1883 C.ar      4 PHE5        0.0000 
     10 O          13.2466   -7.1130   43.8003 O.2       2 ALA2        0.0000 
     11 CA         14.2433   -8.2021   44.0654 C.3       5 GLY6        0.0000 
     12 CZ         15.2400   -9.2913   44.3305 C.ar      4 PHE5        0.0000 
     13 CZ         12.1279   -8.1021   43.9426 C.ar      4 PHE5        0.0000 
     14 OG         13.1246   -9.1913   44.2077 O.2       1 SER1        0.0000 
     15 CZ         14.1214  -10.2804   44.4728 C.ar      4 PHE5        0.0000 
     16 CZ         11.0092   -9.0912   44.0849 C.ar      4 PHE5        0.0000 
     17 OG         12.0060  -10.1804   44.3500 O.2       1 SER1        0.0000 
     18 CA         13.0027  -11.2695   44.6151 C.3       5 GLY6        0.0000 
     19 CZ         13.9994  -12.3587   44.8803 C.ar      4 PHE5        0.0000 
     20 CZ          9.8906  -10.0803   44.2272 C.ar      4 PHE5        0.0000 
     21 CA         10.8873  -11.1695   44.4923 C.3       5 GLY6        0.0000 
     22 CA         11.8840  -12.2586   44.7574 C.3       5 GLY6        0.0000 
     23 CA         12.8808  -13.3478   45.0225 C.3       5 GLY6        0.0000 
     24 CZ          8.7719  -11.0694   44.3695 C.ar      4 PHE5        0.0000 
     25 CA          9.7686  -12.1586   44.6346 C.3       5 GLY6        0.0000 
     26 CA         10.7654  -13.2477   44.8997 C.3       5 GLY6        0.0000 
     27 CA         11.7621  -14.3369   45.1648 C.3       5 GLY6        0.0000 
     28 N           7.6532  -12.0586   44.5118 N.2       2 ALA2        0.0000 
     29 CA          8.6500  -13.1477   44.7769 C.3       5 GLY6        0.0000 
     30 CZ          9.9831  -13.0354   40.2261 C.ar      4 PHE5        0.0000 
     31 CZ         11.9766  -15.2137   40.7563 C.ar      4 PHE5        0.0000 
     32 OG         16.5521   -6.5162   42.3113 O.2       1 SER1        0.0000 
     33 CA         14.4367   -6.4162   42.1885 C.3       5 GLY6        0.0000 
     34 CA         15.4335   -7.5053   42.4536 C.3       5 GLY6        0.0000 
     35 OG         16.4302   -8.5944   42.7187 O.2       1 SER1        0.0000 
     36 CZ         13.3181   -7.4053   42.3308 C.ar      4 PHE5        0.0000 
     37 CA         14.3148   -8.4944   42.5959 C.3       5 GLY6        0.0000 
     38 CA         15.3115   -9.5836   42.8610 C.3       5 GLY6        0.0000 
     39 CZ         16.3083  -10.6727   43.1261 C.ar      4 PHE5        0.0000 
     40 OG         13.1961   -9.4835   42.7382 O.2       1 SER1        0.0000 
     41 CA         14.1929  -10.5727   43.0033 C.3       5 GLY6        0.0000 
     42 NZ         15.1896  -11.6618   43.2684 N.2       3 LYS4        0.0000 
     43 OG         13.0742  -11.5618   43.1456 O.2       1 SER1        0.0000 
     44 NZ         14.0709  -12.6509   43.4107 N.2       3 LYS4        0.0000 
     45 OG         10.9588  -11.4617   43.0228 O.2       1 SER1        0.0000 
     46 DU         11.9555  -12.5509   43.2879 H         6 CUB7        0.0000 
     47 NZ         12.9523  -13.6400   43.5530 N.2       3 LYS4        0.0000 
     48 CZ          8.8434  -11.3617   42.9000 C.ar      4 PHE5        0.0000 
     49 DU          9.8401  -12.4509   43.1651 H         6 CUB7        0.0000 
     50 DU         10.8369  -13.5400   43.4302 H         6 CUB7        0.0000 
     51 CA         11.8336  -14.6291   43.6953 C.3       5 GLY6        0.0000 
     52 OG          7.7247  -12.3508   43.0423 O.2       1 SER1        0.0000 
     53 N           8.7215  -13.4400   43.3074 N.2       2 ALA2        0.0000 
     54 CA          9.7182  -14.5291   43.5725 C.3       5 GLY6        0.0000 
     55 CA         10.7149  -15.6183   43.8376 C.3       5 GLY6        0.0000 
     56 N           6.6061  -13.3399   43.1846 N.2       2 ALA2        0.0000 
     57 N           7.6028  -14.4291   43.4497 N.2       2 ALA2        0.0000 
     58 CA         13.1457  -11.8540   41.6761 C.3       5 GLY6        0.0000 
     59 OG         12.0270  -12.8432   41.8184 O.2       1 SER1        0.0000 
     60 NZ         13.0238  -13.9323   42.0835 N.2       3 LYS4        0.0000 
     61 CZ          8.9149  -11.6540   41.4305 C.ar      4 PHE5        0.0000 
     62 CZ          9.9116  -12.7431   41.6956 C.ar      4 PHE5        0.0000 
     63 CZ         10.9084  -13.8323   41.9607 C.ar      4 PHE5        0.0000 
     64 CA         11.9051  -14.9214   42.2258 C.3       5 GLY6        0.0000 
     65 CZ          7.7962  -12.6431   41.5728 C.ar      4 PHE5        0.0000 
     66 CA          8.7930  -13.7322   41.8379 C.3       5 GLY6        0.0000 
     67 CA          9.7897  -14.8214   42.1030 C.3       5 GLY6        0.0000 
     68 CA         10.7864  -15.9105   42.3681 C.3       5 GLY6        0.0000 
     69 CZ         12.0985  -13.1354   40.3489 C.ar      4 PHE5        0.0000 
@<TRIPOS>BOND
@<TRIPOS>SUBSTRUCTURE
     1 SER1       14 GROUP   
     2 ALA2        2 GROUP   
     3 LYS4       42 GROUP   
     4 PHE5        9 GROUP   
     5 GLY6        1 GROUP   
     6 CUB7       46 GROUP   
@<TRIPOS>SET

