#    Name: 3vri_1KX_1_INTS_M
#    Modification time : Tue Mar 25 01:20:35 2014

@<TRIPOS>MOLECULE
3vri_1KX_1_INTS_M
   67     0     9     0     0
SMALL
NO_CHARGES


@<TRIPOS>ATOM
      1 CA         15.3565   -3.9945   42.9745 C.3       3 GLC5        0.0000 
      2 CA         16.7480   -5.3760   43.4210 C.3       9 GLL5        0.0000 
      3 CA         13.9650   -2.6130   42.5280 C.3       6 GLP5        0.0000 
      4 O          10.6980  -10.5885   41.3240 O.2       1 ALC1        0.0000 
      5 O          10.0950  -11.6980   41.8820 O.2       7 ALL1        0.0000 
      6 O          11.3010   -9.4790   40.7660 O.2       4 ALP1        0.0000 
      7 CA         14.4845  -11.0485   41.2705 C.3       3 GLC5        0.0000 
      8 CA         14.6410  -11.0260   43.2320 C.3       9 GLL5        0.0000 
      9 CA         14.3280  -11.0710   39.3090 C.3       6 GLP5        0.0000 
     10 N          15.7825  -12.7860   42.0990 N.am      2 SEC2        0.0000 
     11 N          15.7740  -11.5560   42.8440 N.am      8 SEL2        0.0000 
     12 N          15.7910  -14.0160   41.3540 N.am      5 SEP2        0.0000 
     13 CA         14.1125  -14.8095   43.7885 C.3       3 GLC5        0.0000 
     14 CA         13.0210  -12.9260   43.3650 C.3       9 GLL5        0.0000 
     15 CA         15.2040  -16.6930   44.2120 C.3       6 GLP5        0.0000 
     16 N          17.9015   -8.9980   42.1705 N.am      2 SEC2        0.0000 
     17 N          16.8290   -9.5090   42.8900 N.am      8 SEL2        0.0000 
     18 N          18.9740   -8.4870   41.4510 N.am      5 SEP2        0.0000 
     19 CA         11.4875  -14.8090   45.8415 C.3       3 GLC5        0.0000 
     20 CA         11.9990  -13.3190   44.2570 C.3       9 GLL5        0.0000 
     21 CA         10.9760  -16.2990   47.4260 C.3       6 GLP5        0.0000 
     22 CA         11.1810  -12.9450   46.1860 C.3       3 GLC5        0.0000 
     23 CA         10.3630  -12.5710   48.1150 C.3       6 GLP5        0.0000 
     24 O          17.7140  -12.8650   42.5370 O.2       1 ALC1        0.0000 
     25 O          17.9910  -11.3530   42.3230 O.2       7 ALL1        0.0000 
     26 O          17.4370  -14.3770   42.7510 O.2       4 ALP1        0.0000 
     27 O          18.4825   -9.9200   41.8870 O.2       1 ALC1        0.0000 
     28 O          18.9740   -8.4870   41.4510 O.2       4 ALP1        0.0000 
     29 O          19.4920  -11.1235   42.0795 O.2       1 ALC1        0.0000 
     30 O          20.9930  -10.8940   41.8360 O.2       4 ALP1        0.0000 
     31 CA          9.8015  -14.6235   45.2940 C.3       3 GLC5        0.0000 
     32 CA         10.9510  -13.8030   43.6000 C.3       9 GLL5        0.0000 
     33 CA          8.6520  -15.4440   46.9880 C.3       6 GLP5        0.0000 
     34 CA          9.2160  -12.0890   40.1895 C.3       3 GLC5        0.0000 
     35 CA         10.1750  -13.0060   41.3960 C.3       9 GLL5        0.0000 
     36 CA          8.2570  -11.1720   38.9830 C.3       6 GLP5        0.0000 
     37 CA         13.4225  -12.1765   40.6650 C.3       3 GLC5        0.0000 
     38 CA         12.5170  -13.2820   42.0210 C.3       9 GLL5        0.0000 
     39 CA         12.2235  -13.9205   40.1275 C.3       3 GLC5        0.0000 
     40 CA         11.9300  -14.5590   38.2340 C.3       6 GLP5        0.0000 
     41 CA         16.9315   -8.7890   41.7625 C.3       3 GLC5        0.0000 
     42 CA         15.6980   -8.9610   43.2420 C.3       9 GLL5        0.0000 
     43 CA         18.1650   -8.6170   40.2830 C.3       6 GLP5        0.0000 
     44 CA         15.5995  -10.9370   41.0060 C.3       3 GLC5        0.0000 
     45 CA         16.8710  -10.8030   42.7030 C.3       9 GLL5        0.0000 
     46 CA         17.5180   -9.7100   41.4930 C.3       3 GLC5        0.0000 
     47 CA         18.5180  -10.3060   43.6965 C.3       3 GLC5        0.0000 
     48 CA         20.1650   -9.8090   44.6900 C.3       6 GLP5        0.0000 
     49 CA         15.4715   -7.6800   41.5785 C.3       3 GLC5        0.0000 
     50 CA         16.5020   -6.7480   43.2980 C.3       9 GLL5        0.0000 
     51 CA         14.4410   -8.6120   39.8590 C.3       6 GLP5        0.0000 
     52 CA         16.0600   -6.0760   45.1148 C.3       3 GLC5        0.0000 
     53 CA         15.4950   -6.0900   46.8700 C.3       6 GLP5        0.0000 
     54 CA         14.7953   -8.9723   41.5928 C.3       3 GLC5        0.0000 
     55 CA          9.8712  -15.5322   42.4047 C.3       3 GLC5        0.0000 
     56 CA          8.7030  -17.2490   41.8890 C.3       6 GLP5        0.0000 
     57 CA         10.5978  -13.9420   40.0252 C.3       3 GLC5        0.0000 
     58 CA         11.1280  -13.8280   42.2410 C.3       9 GLL5        0.0000 
     59 CA         10.5440  -14.4670   38.2320 C.3       6 GLP5        0.0000 
     60 CA         12.1258  -15.6547   43.4089 C.3       3 GLC5        0.0000 
     61 CA         12.9500  -17.6150   43.7330 C.3       6 GLP5        0.0000 
     62 CA         15.5777   -5.5900   41.5583 C.3       3 GLC5        0.0000 
     63 CA         14.1800   -4.7320   40.2480 C.3       6 GLP5        0.0000 
     64 CA         17.5703   -7.5325   41.5757 C.3       3 GLC5        0.0000 
     65 CA         17.4490   -6.1480   42.4390 C.3       9 GLL5        0.0000 
     66 CA         18.7120   -6.1245   43.6556 C.3       3 GLC5        0.0000 
     67 CA         20.3870   -6.1440   44.4120 C.3       6 GLP5        0.0000 
@<TRIPOS>BOND
@<TRIPOS>SUBSTRUCTURE
     1 ALC1        4 GROUP        1 X    ALC  0     ROOT ALC X 1
     2 SEC2       10 GROUP        1 X    SEC  0     **** SEC X 2
     3 GLC5        1 GROUP        1 X    GLC  0     **** GLC X 6
     4 ALP1        6 GROUP        1 Y    ALP  0     ROOT ALP Y 8
     5 SEP2       12 GROUP        1 Y    SEP  0     **** SEP Y 9
     6 GLP5        3 GROUP        1 Y    GLP  0     **** GLP Y 13
     7 ALL1        5 GROUP        1 Z    ALL  0     ROOT ALL Z 15
     8 SEL2       11 GROUP        1 Z    SEL  0     **** SEL Z 16
     9 GLL5        2 GROUP        1 Z    GLL  0     **** GLL Z 20
@<TRIPOS>SET

