#    Name: 3vri_1KX_1_ligand
#    Modification time : Tue Mar 25 01:20:35 2014

@<TRIPOS>MOLECULE
3vri_1KX_1_ligand
   39    42     1     0     0
SMALL
NO_CHARGES


@<TRIPOS>ATOM
      1 C          16.7480   -5.3760   43.4210 C.3       1 1KX301      0.0000 
      2 N          15.5640   -7.6700   43.4630 N.pl3     1 1KX301      0.0000 
      3 O          10.0950  -11.6980   41.8820 O.3       1 1KX301      0.0000 
      4 C01        14.6410  -11.0260   43.2320 C.ar      1 1KX301      0.0000 
      5 N01        15.7740  -11.5560   42.8440 N.ar      1 1KX301      0.0000 
      6 C02        14.6010   -9.7040   43.4110 C.ar      1 1KX301      0.0000 
      7 N02        13.3690   -9.3400   43.7830 N.2       1 1KX301      0.0000 
      8 C03        12.6850  -10.4660   43.8000 C.2       1 1KX301      0.0000 
      9 N03        13.4420  -11.5040   43.4590 N.pl3     1 1KX301      0.0000 
     10 C04        13.0210  -12.9260   43.3650 C.3       1 1KX301      0.0000 
     11 N04        16.8290   -9.5090   42.8900 N.ar      1 1KX301      0.0000 
     12 C05        11.9990  -13.3190   44.2570 C.2       1 1KX301      0.0000 
     13 N05        17.9910  -11.3530   42.3230 N.pl3     1 1KX301      0.0000 
     14 C06        10.9510  -13.8030   43.6000 C.2       1 1KX301      0.0000 
     15 C07        11.1280  -13.8280   42.2410 C.3       1 1KX301      0.0000 
     16 C08        10.1750  -13.0060   41.3960 C.3       1 1KX301      0.0000 
     17 C09        12.5170  -13.2820   42.0210 C.3       1 1KX301      0.0000 
     18 C10        15.6980   -8.9610   43.2420 C.ar      1 1KX301      0.0000 
     19 C11        16.8710  -10.8030   42.7030 C.ar      1 1KX301      0.0000 
     20 C12        16.5020   -6.7480   43.2980 C.3       1 1KX301      0.0000 
     21 C13        17.4490   -6.1480   42.4390 C.3       1 1KX301      0.0000 
     22 H          17.3314   -5.1902   44.1725 H         1 1KX301      0.0000 
     23 H          16.0506   -4.8549   42.9947 H         1 1KX301      0.0000 
     24 H          14.5899   -7.3226   43.8154 H         1 1KX301      0.0000 
     25 H          11.7204  -10.5373   44.0379 H         1 1KX301      0.0000 
     26 H          13.9131  -13.5687   43.5389 H         1 1KX301      0.0000 
     27 H          12.0948  -13.2280   45.2239 H         1 1KX301      0.0000 
     28 H          18.1147  -12.3144   42.5689 H         1 1KX301      0.0000 
     29 H          18.6229  -10.7628   41.8208 H         1 1KX301      0.0000 
     30 H          10.1102  -14.1217   44.0312 H         1 1KX301      0.0000 
     31 H          11.1482  -14.8463   41.8426 H         1 1KX301      0.0000 
     32 H          10.5394  -13.0431   40.3543 H         1 1KX301      0.0000 
     33 H           9.1961  -13.5169   41.4084 H         1 1KX301      0.0000 
     34 H          13.1329  -14.0414   41.5744 H         1 1KX301      0.0000 
     35 H          12.4633  -12.4108   41.3935 H         1 1KX301      0.0000 
     36 H          17.4609   -6.9837   44.1763 H         1 1KX301      0.0000 
     37 H          18.3484   -6.3284   42.7427 H         1 1KX301      0.0000 
     38 H          17.0676   -5.9931   41.5649 H         1 1KX301      0.0000 
     39 H          10.6573  -11.1554   41.2581 H         1 1KX301      0.0000 
@<TRIPOS>BOND
     1   20    1 1    
     2   21    1 1    
     3   22    1 1    
     4   23    1 1    
     5   18    2 1    
     6   20    2 1    
     7   24    2 1    
     8   16    3 1    
     9   39    3 1    
    10    5    4 ar   
    11    6    4 ar   
    12    9    4 1    
    13   19    5 ar   
    14    7    6 1    
    15   18    6 ar   
    16    8    7 2    
    17    9    8 1    
    18   25    8 1    
    19   10    9 1    
    20   12   10 1    
    21   17   10 1    
    22   26   10 1    
    23   18   11 ar   
    24   19   11 ar   
    25   14   12 2    
    26   27   12 1    
    27   19   13 1    
    28   28   13 1    
    29   29   13 1    
    30   15   14 1    
    31   30   14 1    
    32   16   15 1    
    33   17   15 1    
    34   31   15 1    
    35   32   16 1    
    36   33   16 1    
    37   34   17 1    
    38   35   17 1    
    39   21   20 1    
    40   36   20 1    
    41   37   21 1    
    42   38   21 1    
@<TRIPOS>SUBSTRUCTURE
     1 1KX301      1 GROUP   
@<TRIPOS>SET

