#    Name: 4bnm_TCU_7_INTS_M
#    Modification time : Tue Mar 25 08:02:57 2014

@<TRIPOS>MOLECULE
4bnm_TCU_7_INTS_M
   79     0     9     0     0
SMALL
NO_CHARGES


@<TRIPOS>ATOM
      1 N           3.8695   27.6285  -13.7785 N.am      2 SEC2        0.0000 
      2 N           3.8900   26.4790  -13.1180 N.am      8 SEL2        0.0000 
      3 N           3.8490   28.7780  -14.4390 N.am      5 SEP2        0.0000 
      4 O           4.4790   26.5785  -11.9845 O.2       1 ALC1        0.0000 
      5 O           3.8900   26.4790  -13.1180 O.2       7 ALL1        0.0000 
      6 O           5.0680   26.6780  -10.8510 O.2       4 ALP1        0.0000 
      7 CA          2.3195   25.7470  -10.9185 C.3       3 GLC5        0.0000 
      8 CA          2.5780   24.5910  -12.5590 C.3       9 GLL5        0.0000 
      9 CA          2.0610   26.9030   -9.2780 C.3       6 GLP5        0.0000 
     10 CA          0.6625   23.2135  -10.0220 C.3       3 GLC5        0.0000 
     11 CA          1.1980   22.6310  -11.8340 C.3       9 GLL5        0.0000 
     12 CA          0.1270   23.7960   -8.2100 C.3       6 GLP5        0.0000 
     13 CA         -0.6435   21.6415  -11.5610 C.3       3 GLC5        0.0000 
     14 CA         -2.4850   20.6520  -11.2880 C.3       6 GLP5        0.0000 
     15 CA          0.3275   24.2640  -12.2010 C.3       3 GLC5        0.0000 
     16 CA         -0.5430   25.8970  -12.5680 C.3       6 GLP5        0.0000 
     17 CA          2.3790   22.5620   -9.5120 C.3       3 GLC5        0.0000 
     18 CA          2.2730   21.7240  -11.2440 C.3       9 GLL5        0.0000 
     19 CA          2.4850   23.4000   -7.7800 C.3       6 GLP5        0.0000 
     20 CA          3.8985   23.0275  -11.0870 C.3       3 GLC5        0.0000 
     21 CA          5.5240   24.3310  -10.9300 C.3       6 GLP5        0.0000 
     22 CA          3.8925   20.5070  -12.0250 C.3       3 GLC5        0.0000 
     23 CA          5.5120   19.2900  -12.8060 C.3       6 GLP5        0.0000 
     24 CA         -0.4415   20.5535  -11.0255 C.3       3 GLC5        0.0000 
     25 CA          1.6020   20.4550  -10.7630 C.3       9 GLL5        0.0000 
     26 CA          2.7910   17.6385  -11.3505 C.3       3 GLC5        0.0000 
     27 CA          3.6410   19.1380   -9.9960 C.3       9 GLL5        0.0000 
     28 CA          1.9410   16.1390  -12.7050 C.3       6 GLP5        0.0000 
     29 CA          2.2765   18.0275   -8.6205 C.3       3 GLC5        0.0000 
     30 CA          0.9120   16.9170   -7.2450 C.3       6 GLP5        0.0000 
     31 CA          4.4400   19.4395   -7.1450 C.3       3 GLC5        0.0000 
     32 CA          4.6050   18.9990   -8.8170 C.3       9 GLL5        0.0000 
     33 CA          4.2750   19.8800   -5.4730 C.3       6 GLP5        0.0000 
     34 CA          6.5330   17.9290   -9.1135 C.3       3 GLC5        0.0000 
     35 CA          8.4610   16.8590   -9.4100 C.3       6 GLP5        0.0000 
     36 CA          5.8915   20.5370   -8.6055 C.3       3 GLC5        0.0000 
     37 CA          7.1780   22.0750   -8.3940 C.3       6 GLP5        0.0000 
     38 CA          1.3845   21.8655  -15.8075 C.3       3 GLC5        0.0000 
     39 CA          1.8840   23.0340  -14.2460 C.3       9 GLL5        0.0000 
     40 CA          0.8850   20.6970  -17.3690 C.3       6 GLP5        0.0000 
     41 CA          2.4520   22.3030  -16.3955 C.3       3 GLC5        0.0000 
     42 CA          2.5030   23.8340  -15.2050 C.3       9 GLL5        0.0000 
     43 CA          2.4010   20.7720  -17.5860 C.3       6 GLP5        0.0000 
     44 CA          4.1860   22.3705  -14.9265 C.3       3 GLC5        0.0000 
     45 CA          5.8690   20.9070  -14.6480 C.3       6 GLP5        0.0000 
     46 CA          6.9085   25.6625  -13.7590 C.3       3 GLC5        0.0000 
     47 CA          5.8740   24.5910  -15.3750 C.3       9 GLL5        0.0000 
     48 CA          7.9430   26.7340  -12.1430 C.3       6 GLP5        0.0000 
     49 CA          9.9100   25.2415  -16.0520 C.3       3 GLC5        0.0000 
     50 CA          7.8310   25.0940  -16.7240 C.3       9 GLL5        0.0000 
     51 CA         11.9890   25.3890  -15.3800 C.3       6 GLP5        0.0000 
     52 CA          4.5600   25.8735  -18.7990 C.3       3 GLC5        0.0000 
     53 CA          4.9500   27.2740  -17.9080 C.3       9 GLL5        0.0000 
     54 CA          4.1700   24.4730  -19.6900 C.3       6 GLP5        0.0000 
     55 CA          3.0018   26.9505  -14.7632 C.3       3 GLC5        0.0000 
     56 CA          3.2220   24.9750  -14.8540 C.3       9 GLL5        0.0000 
     57 CA          2.7770   28.7310  -15.3420 C.3       6 GLP5        0.0000 
     58 CA          1.5770   21.5855   -8.9525 C.3       3 GLC5        0.0000 
     59 CA          1.1480   22.9810   -7.7320 C.3       6 GLP5        0.0000 
     60 CA          1.0669   20.1261  -12.5550 C.3       3 GLC5        0.0000 
     61 CA          0.4650   18.9360  -13.9590 C.3       6 GLP5        0.0000 
     62 CA          0.6310   19.1560   -9.3415 C.3       3 GLC5        0.0000 
     63 CA         -0.7440   18.1220   -8.5100 C.3       6 GLP5        0.0000 
     64 CA          4.8175   19.1792  -11.1062 C.3       3 GLC5        0.0000 
     65 CA          6.2070   22.6917  -15.0927 C.3       3 GLC5        0.0000 
     66 CA          8.7222   23.2300  -16.0400 C.3       3 GLC5        0.0000 
     67 CA          7.2160   24.3620  -15.7000 C.3       9 GLL5        0.0000 
     68 CA          9.9210   21.7320  -15.8680 C.3       6 GLP5        0.0000 
     69 CA          8.3158   26.1540  -15.3790 C.3       3 GLC5        0.0000 
     70 CA          9.1080   27.5800  -14.5460 C.3       6 GLP5        0.0000 
     71 CA          8.7483   26.9903  -17.6755 C.3       3 GLC5        0.0000 
     72 CA         10.0380   28.4080  -18.2720 C.3       6 GLP5        0.0000 
     73 CA          7.7613   26.8652  -15.9120 C.3       3 GLC5        0.0000 
     74 CA          5.7430   26.2500  -17.1220 C.3       9 GLL5        0.0000 
     75 CA          5.2156   25.2220  -18.3550 C.3       3 GLC5        0.0000 
     76 CA          7.0860   26.0510  -17.4340 C.3       9 GLL5        0.0000 
     77 CA          6.1611   28.3766  -16.7740 C.3       3 GLC5        0.0000 
     78 CA          6.6400   30.0410  -15.9550 C.3       6 GLP5        0.0000 
     79 CA          3.9851   27.6568  -16.2995 C.3       3 GLC5        0.0000 
@<TRIPOS>BOND
@<TRIPOS>SUBSTRUCTURE
     1 ALC1        4 GROUP        1 X    ALC  0     ROOT ALC X 1
     2 SEC2        1 GROUP        1 X    SEC  0     **** SEC X 2
     3 GLC5        7 GROUP        1 X    GLC  0     **** GLC X 6
     4 ALP1        6 GROUP        1 Y    ALP  0     ROOT ALP Y 8
     5 SEP2        3 GROUP        1 Y    SEP  0     **** SEP Y 9
     6 GLP5        9 GROUP        1 Y    GLP  0     **** GLP Y 13
     7 ALL1        5 GROUP        1 Z    ALL  0     ROOT ALL Z 15
     8 SEL2        2 GROUP        1 Z    SEL  0     **** SEL Z 16
     9 GLL5        8 GROUP        1 Z    GLL  0     **** GLL Z 20
@<TRIPOS>SET

