#    Name: 4bnm_TCU_7_ligand
#    Modification time : Tue Mar 25 08:02:57 2014

@<TRIPOS>MOLECULE
4bnm_TCU_7_ligand
   45    46     1     0     0
SMALL
NO_CHARGES


@<TRIPOS>ATOM
      1 O17         3.8900   26.4790  -13.1180 O.3       1 TCU1258     0.0000 
      2 C6          3.2310   25.3650  -13.5150 C.ar      1 TCU1258     0.0000 
      3 C1          2.5780   24.5910  -12.5590 C.ar      1 TCU1258     0.0000 
      4 C2          1.8720   23.4490  -12.9190 C.ar      1 TCU1258     0.0000 
      5 C16         1.1980   22.6310  -11.8340 C.3       1 TCU1258     0.0000 
      6 C17         2.2730   21.7240  -11.2440 C.3       1 TCU1258     0.0000 
      7 C18         1.6020   20.4550  -10.7630 C.3       1 TCU1258     0.0000 
      8 C19         2.4100   19.9250   -9.5830 C.3       1 TCU1258     0.0000 
      9 C20         3.6410   19.1380   -9.9960 C.3       1 TCU1258     0.0000 
     10 C21         4.6050   18.9990   -8.8170 C.3       1 TCU1258     0.0000 
     11 C3          1.8840   23.0340  -14.2460 C.ar      1 TCU1258     0.0000 
     12 C4          2.5030   23.8340  -15.2050 C.ar      1 TCU1258     0.0000 
     13 C5          3.2220   24.9750  -14.8540 C.ar      1 TCU1258     0.0000 
     14 O7          3.8150   25.7530  -15.8120 O.3       1 TCU1258     0.0000 
     15 C8          5.1300   25.5320  -16.0900 C.ar      1 TCU1258     0.0000 
     16 C9          5.8740   24.5910  -15.3750 C.ar      1 TCU1258     0.0000 
     17 C10         7.2160   24.3620  -15.7000 C.ar      1 TCU1258     0.0000 
     18 C11         7.8310   25.0940  -16.7240 C.ar      1 TCU1258     0.0000 
     19 C12         7.0860   26.0510  -17.4340 C.ar      1 TCU1258     0.0000 
     20 C13         5.7430   26.2500  -17.1220 C.ar      1 TCU1258     0.0000 
     21 C14         4.9500   27.2740  -17.9080 C.3       1 TCU1258     0.0000 
     22 H           2.6198   24.8721  -11.5628 H         1 TCU1258     0.0000 
     23 H           0.4179   22.0315  -12.2609 H         1 TCU1258     0.0000 
     24 H           0.8185   23.2810  -11.0700 H         1 TCU1258     0.0000 
     25 H           2.7471   22.2243  -10.4141 H         1 TCU1258     0.0000 
     26 H           2.9992   21.4876  -12.0059 H         1 TCU1258     0.0000 
     27 H           1.5979   19.7217  -11.5520 H         1 TCU1258     0.0000 
     28 H           0.5975   20.6720  -10.4401 H         1 TCU1258     0.0000 
     29 H           1.7609   19.2832   -8.9661 H         1 TCU1258     0.0000 
     30 H           2.7187   20.7740   -8.9523 H         1 TCU1258     0.0000 
     31 H           4.1461   19.6528  -10.8104 H         1 TCU1258     0.0000 
     32 H           3.3438   18.1470  -10.3320 H         1 TCU1258     0.0000 
     33 H           1.4438   22.1515  -14.5171 H         1 TCU1258     0.0000 
     34 H           2.4263   23.5726  -16.2080 H         1 TCU1258     0.0000 
     35 H           5.4369   24.0653  -14.6090 H         1 TCU1258     0.0000 
     36 H           7.7534   23.6535  -15.1853 H         1 TCU1258     0.0000 
     37 H           8.8125   24.9350  -16.9541 H         1 TCU1258     0.0000 
     38 H           7.5329   26.5962  -18.1756 H         1 TCU1258     0.0000 
     39 H           5.4254   18.4846   -9.0667 H         1 TCU1258     0.0000 
     40 H           4.9091   19.8896   -8.4789 H         1 TCU1258     0.0000 
     41 H           4.1829   18.5215   -8.0464 H         1 TCU1258     0.0000 
     42 H           5.5068   27.7137  -18.6128 H         1 TCU1258     0.0000 
     43 H           4.1650   26.8611  -18.3698 H         1 TCU1258     0.0000 
     44 H           4.5950   28.0003  -17.3194 H         1 TCU1258     0.0000 
     45 H           3.9609   26.3971  -12.1239 H         1 TCU1258     0.0000 
@<TRIPOS>BOND
     1    2    1 1    
     2   45    1 1    
     3    3    2 ar   
     4   13    2 ar   
     5    4    3 ar   
     6   22    3 1    
     7    5    4 1    
     8   11    4 ar   
     9    6    5 1    
    10   23    5 1    
    11   24    5 1    
    12    7    6 1    
    13   25    6 1    
    14   26    6 1    
    15    8    7 1    
    16   27    7 1    
    17   28    7 1    
    18    9    8 1    
    19   29    8 1    
    20   30    8 1    
    21   10    9 1    
    22   31    9 1    
    23   32    9 1    
    24   39   10 1    
    25   40   10 1    
    26   41   10 1    
    27   12   11 ar   
    28   33   11 1    
    29   13   12 ar   
    30   34   12 1    
    31   14   13 1    
    32   15   14 1    
    33   16   15 ar   
    34   20   15 ar   
    35   17   16 ar   
    36   35   16 1    
    37   18   17 ar   
    38   36   17 1    
    39   19   18 ar   
    40   37   18 1    
    41   20   19 ar   
    42   38   19 1    
    43   21   20 1    
    44   42   21 1    
    45   43   21 1    
    46   44   21 1    
@<TRIPOS>SUBSTRUCTURE
     1 TCU1258     1 GROUP   
@<TRIPOS>SET

