#    Name: 4BUI_2_CAVITY_N1_6.mol2
#    Modification time : Tue Mar 11 20:30:41 2014

@<TRIPOS>MOLECULE
4BUI_2_CAVITY_N1_6.mol2
   84     0     7     0     0
SMALL
NO_CHARGES


@<TRIPOS>ATOM
      1 CA         -9.4174  -42.8115   25.5070 C.3       6 GLY6        0.0000 
      2 N          -8.6284  -44.0865   25.5493 N.2       2 ALA2        0.0000 
      3 CA         -9.6175  -44.7293   24.6228 C.3       6 GLY6        0.0000 
      4 N          -7.9726  -40.3415   19.8227 N.2       2 ALA2        0.0000 
      5 CA         -7.1836  -41.6165   19.8650 C.3       6 GLY6        0.0000 
      6 N          -6.3946  -42.8915   19.9073 N.2       2 ALA2        0.0000 
      7 N          -8.9617  -40.9843   18.8961 N.2       2 ALA2        0.0000 
      8 N          -8.1727  -42.2593   18.9385 N.2       2 ALA2        0.0000 
      9 N          -7.3837  -43.5343   18.9808 N.2       2 ALA2        0.0000 
     10 CZ         -9.1618  -42.9021   18.0119 C.ar      5 PHE5        0.0000 
     11 CA         -8.3727  -44.1772   18.0542 C.3       6 GLY6        0.0000 
     12 CZ        -10.1508  -43.5450   17.0854 C.ar      5 PHE5        0.0000 
     13 OG        -12.1290  -44.8306   15.2322 O.2       1 SER1        0.0000 
     14 OG        -13.9071  -44.1984   14.2634 O.2       1 SER1        0.0000 
     15 NZ        -13.1181  -45.4735   14.3057 N.2       4 LYS4        0.0000 
     16 N          -9.1451  -41.1677   16.7907 N.2       2 ALA2        0.0000 
     17 N          -8.3560  -42.4427   16.8330 N.2       2 ALA2        0.0000 
     18 N          -7.5670  -43.7177   16.8754 N.2       2 ALA2        0.0000 
     19 CA         -9.3451  -43.0855   15.9065 C.3       6 GLY6        0.0000 
     20 CA        -10.3342  -43.7283   14.9799 C.3       6 GLY6        0.0000 
     21 CZ        -12.1123  -43.0962   14.0111 C.ar      5 PHE5        0.0000 
     22 CA        -11.3233  -44.3712   14.0534 C.3       6 GLY6        0.0000 
     23 NZ        -12.3123  -45.0140   13.1268 N.2       4 LYS4        0.0000 
     24 NZ        -11.5233  -46.2890   13.1692 N.2       4 LYS4        0.0000 
     25 CZ         -9.3284  -41.3510   14.6853 C.ar      5 PHE5        0.0000 
     26 N          -8.5394  -42.6260   14.7276 N.2       2 ALA2        0.0000 
     27 CZ        -10.3175  -41.9939   13.7587 C.ar      5 PHE5        0.0000 
     28 N          -9.5285  -43.2689   13.8011 N.2       2 ALA2        0.0000 
     29 CA        -11.3066  -42.6367   12.8322 C.3       6 GLY6        0.0000 
     30 N         -10.5175  -43.9117   12.8745 N.2       2 ALA2        0.0000 
     31 CA         -9.7285  -45.1867   12.9169 C.3       6 GLY6        0.0000 
     32 CA        -11.5066  -44.5545   11.9480 C.3       6 GLY6        0.0000 
     33 CA         -8.2116  -38.5164   26.0966 C.3       6 GLY6        0.0000 
     34 CA         -9.2007  -39.1592   25.1700 C.3       6 GLY6        0.0000 
     35 CZ         -8.4116  -40.4342   25.2124 C.ar      5 PHE5        0.0000 
     36 CZ         -7.6226  -41.7092   25.2547 C.ar      5 PHE5        0.0000 
     37 CZ         -6.8336  -42.9842   25.2970 C.ar      5 PHE5        0.0000 
     38 N          -6.0446  -44.2592   25.3394 N.2       2 ALA2        0.0000 
     39 CA        -10.1897  -39.8020   24.2435 C.3       6 GLY6        0.0000 
     40 CA         -9.4007  -41.0770   24.2858 C.3       6 GLY6        0.0000 
     41 CZ         -8.6117  -42.3520   24.3281 C.ar      5 PHE5        0.0000 
     42 N          -7.8227  -43.6271   24.3705 N.2       2 ALA2        0.0000 
     43 CA        -10.3898  -41.7199   23.3593 C.3       6 GLY6        0.0000 
     44 CA         -9.6008  -42.9949   23.4016 C.3       6 GLY6        0.0000 
     45 N          -8.8118  -44.2699   23.4439 N.2       2 ALA2        0.0000 
     46 CA         -9.8008  -44.9127   22.5174 C.3       6 GLY6        0.0000 
     47 OG        -16.3242  -45.5768   17.7999 O.2       1 SER1        0.0000 
     48 OG        -15.5352  -46.8518   17.8423 O.2       1 SER1        0.0000 
     49 CZ         -7.6059  -39.9747   24.0335 C.ar      5 PHE5        0.0000 
     50 CZ         -6.0279  -42.5248   24.1182 C.ar      5 PHE5        0.0000 
     51 CA         -8.5950  -40.6176   23.1069 C.3       6 GLY6        0.0000 
     52 CZ         -7.8060  -41.8926   23.1493 C.ar      5 PHE5        0.0000 
     53 N          -7.0170  -43.1676   23.1916 N.2       2 ALA2        0.0000 
     54 O         -10.3731  -39.9854   22.1381 O.2       2 ALA2        0.0000 
     55 CA         -9.5841  -41.2604   22.1804 C.3       6 GLY6        0.0000 
     56 CA         -8.7951  -42.5354   22.2227 C.3       6 GLY6        0.0000 
     57 N          -8.0060  -43.8104   22.2651 N.2       2 ALA2        0.0000 
     58 CA        -10.5731  -41.9032   21.2538 C.3       6 GLY6        0.0000 
     59 CA         -9.7841  -43.1782   21.2962 C.3       6 GLY6        0.0000 
     60 CA         -8.9951  -44.4533   21.3385 C.3       6 GLY6        0.0000 
     61 CZ        -10.7732  -43.8211   20.3696 C.ar      5 PHE5        0.0000 
     62 CZ        -14.7295  -46.3924   16.6634 C.ar      5 PHE5        0.0000 
     63 CZ        -13.9405  -47.6674   16.7057 C.ar      5 PHE5        0.0000 
     64 OG        -17.2966  -44.4852   15.6522 O.2       1 SER1        0.0000 
     65 OG        -16.5076  -45.7602   15.6945 O.2       1 SER1        0.0000 
     66 CA        -15.7186  -47.0352   15.7369 C.3       6 GLY6        0.0000 
     67 CA        -14.9296  -48.3102   15.7792 C.3       6 GLY6        0.0000 
     68 OG         -7.0003  -41.4331   21.9704 O.2       1 SER1        0.0000 
     69 N          -6.2112  -42.7081   22.0128 N.2       2 ALA2        0.0000 
     70 CA         -8.7783  -40.8009   21.0015 C.3       6 GLY6        0.0000 
     71 DU         -7.9893  -42.0759   21.0439 H         7 CUB7        0.0000 
     72 N          -7.2003  -43.3510   21.0862 N.2       2 ALA2        0.0000 
     73 CZ         -9.7674  -41.4438   20.0750 C.ar      5 PHE5        0.0000 
     74 CZ         -8.9784  -42.7188   20.1173 C.ar      5 PHE5        0.0000 
     75 CA         -8.1894  -43.9938   20.1596 C.3       6 GLY6        0.0000 
     76 CZ         -9.9675  -43.3616   19.1908 C.ar      5 PHE5        0.0000 
     77 OG        -13.9238  -45.9329   15.4845 O.2       1 SER1        0.0000 
     78 CZ        -13.1348  -47.2079   15.5269 C.ar      5 PHE5        0.0000 
     79 OG        -15.7019  -45.3007   14.5157 O.2       1 SER1        0.0000 
     80 NZ        -14.9129  -46.5757   14.5580 N.2       4 LYS4        0.0000 
     81 NZ        -14.1238  -47.8508   14.6003 N.2       4 LYS4        0.0000 
     82 OD1       -16.6909  -45.9436   13.5891 O.3       3 ASP3        0.0000 
     83 NZ        -15.9019  -47.2186   13.6314 N.2       4 LYS4        0.0000 
     84 CA        -15.1129  -48.4936   13.6738 C.3       6 GLY6        0.0000 
@<TRIPOS>BOND
@<TRIPOS>SUBSTRUCTURE
     1 SER1       13 GROUP   
     2 ALA2        2 GROUP   
     3 ASP3       82 GROUP   
     4 LYS4       15 GROUP   
     5 PHE5       10 GROUP   
     6 GLY6        1 GROUP   
     7 CUB7       71 GROUP   
@<TRIPOS>SET

