#    Name: 4bui_W2E_2_INTS_M
#    Modification time : Tue Mar 25 08:24:19 2014

@<TRIPOS>MOLECULE
4bui_W2E_2_INTS_M
   45     0     9     0     0
SMALL
NO_CHARGES


@<TRIPOS>ATOM
      1 CA         -5.7170  -41.7290   24.5650 C.3       3 GLC5        0.0000 
      2 CA         -6.0610  -43.0240   23.6530 C.3       9 GLL5        0.0000 
      3 CA         -5.3730  -40.4340   25.4770 C.3       6 GLP5        0.0000 
      4 CA         -4.4475  -43.6970   22.9775 C.3       3 GLC5        0.0000 
      5 CA         -2.8340  -44.3700   22.3020 C.3       6 GLP5        0.0000 
      6 CA         -7.6755  -39.9585   21.3845 C.3       3 GLC5        0.0000 
      7 CA         -7.6950  -41.9700   20.5800 C.3       9 GLL5        0.0000 
      8 CA         -7.6560  -37.9470   22.1890 C.3       6 GLP5        0.0000 
      9 CA         -8.2420  -43.7255   12.3780 C.3       3 GLC5        0.0000 
     10 CA         -9.9960  -42.9840   13.1660 C.3       9 GLL5        0.0000 
     11 CA         -6.4880  -44.4670   11.5900 C.3       6 GLP5        0.0000 
     12 CA        -10.1110  -40.7585   12.9670 C.3       3 GLC5        0.0000 
     13 CA        -10.2260  -38.5330   12.7680 C.3       6 GLP5        0.0000 
     14 O          -8.0550  -40.5590   16.8560 O.2       1 ALC1        0.0000 
     15 O          -8.6470  -41.7640   16.3770 O.2       7 ALL1        0.0000 
     16 O          -7.4630  -39.3540   17.3350 O.2       4 ALP1        0.0000 
     17 N          -7.3925  -39.8475   14.5670 N.am      2 SEC2        0.0000 
     18 N          -8.1930  -40.9920   14.2920 N.am      8 SEL2        0.0000 
     19 N          -6.5920  -38.7030   14.8420 N.am      5 SEP2        0.0000 
     20 N          -8.2860  -40.3940   13.0440 N.am      2 SEC2        0.0000 
     21 N          -8.3790  -39.7960   11.7960 N.am      5 SEP2        0.0000 
     22 CA         -6.5953  -40.4503   19.7398 C.3       3 GLC5        0.0000 
     23 CA         -5.3590  -38.9780   19.5780 C.3       6 GLP5        0.0000 
     24 CA         -9.6715  -40.6835   18.3843 C.3       3 GLC5        0.0000 
     25 CA         -7.9680  -41.8750   19.2230 C.3       9 GLL5        0.0000 
     26 CA        -10.8130  -39.1650   17.8110 C.3       6 GLP5        0.0000 
     27 CA         -9.5355  -44.9914   20.2114 C.3       3 GLC5        0.0000 
     28 CA         -9.8640  -43.3270   19.5180 C.3       9 GLL5        0.0000 
     29 CA         -9.6070  -46.7840   20.0910 C.3       6 GLP5        0.0000 
     30 CA        -11.0880  -42.9434   21.5249 C.3       3 GLC5        0.0000 
     31 CA         -9.5980  -43.4120   20.8810 C.3       9 GLL5        0.0000 
     32 CA        -12.7120  -42.6880   22.7180 C.3       6 GLP5        0.0000 
     33 CA         -9.7402  -45.1960   15.2903 C.3       3 GLC5        0.0000 
     34 CA        -10.4920  -43.6500   15.4980 C.3       9 GLL5        0.0000 
     35 CA         -8.5450  -46.2670   15.3120 C.3       6 GLP5        0.0000 
     36 CA         -9.8990  -45.3063   14.2620 C.3       3 GLC5        0.0000 
     37 CA        -11.5970  -44.7350   13.6720 C.3       9 GLL5        0.0000 
     38 CA        -11.8965  -45.1347   11.4420 C.3       3 GLC5        0.0000 
     39 CA        -10.9090  -43.9560   12.7520 C.3       9 GLL5        0.0000 
     40 CA        -12.5400  -45.9240    9.6720 C.3       6 GLP5        0.0000 
     41 CA        -10.1553  -42.7540   11.2740 C.3       3 GLC5        0.0000 
     42 CA         -9.8580  -42.0380    9.5890 C.3       6 GLP5        0.0000 
     43 CA         -9.2075  -44.5840   14.5780 C.3       3 GLC5        0.0000 
     44 CA        -11.9162  -42.7324   12.2260 C.3       3 GLC5        0.0000 
     45 CA        -13.2080  -41.8000   11.2630 C.3       6 GLP5        0.0000 
@<TRIPOS>BOND
@<TRIPOS>SUBSTRUCTURE
     1 ALC1       14 GROUP        1 X    ALC  0     ROOT ALC X 1
     2 SEC2       17 GROUP        1 X    SEC  0     **** SEC X 2
     3 GLC5        1 GROUP        1 X    GLC  0     **** GLC X 6
     4 ALP1       16 GROUP        1 Y    ALP  0     ROOT ALP Y 8
     5 SEP2       19 GROUP        1 Y    SEP  0     **** SEP Y 9
     6 GLP5        3 GROUP        1 Y    GLP  0     **** GLP Y 13
     7 ALL1       15 GROUP        1 Z    ALL  0     ROOT ALL Z 15
     8 SEL2       18 GROUP        1 Z    SEL  0     **** SEL Z 16
     9 GLL5        2 GROUP        1 Z    GLL  0     **** GLL Z 20
@<TRIPOS>SET

