#    Name: 4bui_W2E_2_ligand
#    Modification time : Tue Mar 25 08:24:19 2014

@<TRIPOS>MOLECULE
4bui_W2E_2_ligand
   33    35     1     0     0
SMALL
NO_CHARGES


@<TRIPOS>ATOM
      1 CAA        -6.0610  -43.0240   23.6530 C.3       1 W2E2165     0.0000 
      2 OAB        -7.1640  -42.1470   23.4290 O.3       1 W2E2165     0.0000 
      3 CAC        -8.2510  -42.8780   22.8660 C.2       1 W2E2165     0.0000 
      4 OAD        -8.8020  -43.7050   23.5760 O.2       1 W2E2165     0.0000 
      5 CAE        -8.5300  -42.7290   21.4100 C.ar      1 W2E2165     0.0000 
      6 CAJ        -7.6950  -41.9700   20.5800 C.ar      1 W2E2165     0.0000 
      7 CAI        -7.9680  -41.8750   19.2230 C.ar      1 W2E2165     0.0000 
      8 CAF        -9.5980  -43.4120   20.8810 C.ar      1 W2E2165     0.0000 
      9 CAG        -9.8640  -43.3270   19.5180 C.ar      1 W2E2165     0.0000 
     10 CAH        -9.0920  -42.5290   18.6920 C.ar      1 W2E2165     0.0000 
     11 CAK        -9.3600  -42.5480   17.2390 C.2       1 W2E2165     0.0000 
     12 CAT       -10.4920  -43.6500   15.4980 C.ar      1 W2E2165     0.0000 
     13 CAS       -11.3790  -44.6000   15.0390 C.ar      1 W2E2165     0.0000 
     14 CAR       -11.5970  -44.7350   13.6720 C.ar      1 W2E2165     0.0000 
     15 CAQ       -10.9090  -43.9560   12.7520 C.ar      1 W2E2165     0.0000 
     16 CAP        -9.9960  -42.9840   13.1660 C.ar      1 W2E2165     0.0000 
     17 CAO        -9.7440  -42.8180   14.5220 C.ar      1 W2E2165     0.0000 
     18 CAM        -8.8280  -41.7890   15.0510 C.2       1 W2E2165     0.0000 
     19 N1         -8.6470  -41.7640   16.3770 N.am      1 W2E2165     0.0000 
     20 OAN        -8.1930  -40.9920   14.2920 O.2       1 W2E2165     0.0000 
     21 N         -10.2270  -43.5130   16.8140 N.2       1 W2E2165     0.0000 
     22 H          -6.8829  -41.4865   20.9813 H         1 W2E2165     0.0000 
     23 H          -7.3575  -41.3324   18.6049 H         1 W2E2165     0.0000 
     24 H         -10.2033  -43.9860   21.4834 H         1 W2E2165     0.0000 
     25 H         -10.6509  -43.8694   19.1194 H         1 W2E2165     0.0000 
     26 H         -11.8797  -45.2084   15.6992 H         1 W2E2165     0.0000 
     27 H         -12.2877  -45.4320   13.3345 H         1 W2E2165     0.0000 
     28 H         -11.0734  -44.0956   11.7384 H         1 W2E2165     0.0000 
     29 H          -9.5183  -42.4006   12.4739 H         1 W2E2165     0.0000 
     30 H          -7.9197  -41.1097   16.7884 H         1 W2E2165     0.0000 
     31 H          -5.7445  -43.4470   22.8040 H         1 W2E2165     0.0000 
     32 H          -5.2792  -42.5435   24.0503 H         1 W2E2165     0.0000 
     33 H          -6.2981  -43.7663   24.2797 H         1 W2E2165     0.0000 
@<TRIPOS>BOND
     1    2    1 1    
     2   31    1 1    
     3   32    1 1    
     4   33    1 1    
     5    3    2 1    
     6    4    3 2    
     7    5    3 1    
     8    6    5 ar   
     9    8    5 ar   
    10    7    6 ar   
    11   22    6 1    
    12   10    7 ar   
    13   23    7 1    
    14    9    8 ar   
    15   24    8 1    
    16   10    9 ar   
    17   25    9 1    
    18   11   10 1    
    19   19   11 1    
    20   21   11 2    
    21   13   12 ar   
    22   17   12 ar   
    23   21   12 1    
    24   14   13 ar   
    25   26   13 1    
    26   15   14 ar   
    27   27   14 1    
    28   16   15 ar   
    29   28   15 1    
    30   17   16 ar   
    31   29   16 1    
    32   18   17 1    
    33   19   18 am   
    34   20   18 2    
    35   30   19 1    
@<TRIPOS>SUBSTRUCTURE
     1 W2E2165     1 GROUP   
@<TRIPOS>SET

