#    Name: 4gf9_LP5_1_INTS_M
#    Modification time : Mon Mar 24 22:09:13 2014

@<TRIPOS>MOLECULE
4gf9_LP5_1_INTS_M
   73     0     6     0     0
SMALL
NO_CHARGES


@<TRIPOS>ATOM
      1 N         -23.4015  -30.3495  -18.4280 N.am      1 SEC2        0.0000 
      2 N         -22.4280  -30.2100  -19.7750 N.am      5 SEL2        0.0000 
      3 N         -24.3750  -30.4890  -17.0810 N.am      3 SEP2        0.0000 
      4 N         -24.5430  -30.1085  -18.7515 N.am      1 SEC2        0.0000 
      5 N         -24.7110  -29.7280  -20.4220 N.am      5 SEL2        0.0000 
      6 CA        -26.4725  -28.7830  -15.4175 C.3       2 GLC5        0.0000 
      7 CA        -27.7010  -28.7700  -17.0890 C.3       6 GLL5        0.0000 
      8 CA        -25.2440  -28.7960  -13.7460 C.3       4 GLP5        0.0000 
      9 CA        -26.0500  -27.8735  -17.0340 C.3       2 GLC5        0.0000 
     10 CA        -24.3990  -26.9770  -16.9790 C.3       4 GLP5        0.0000 
     11 CA        -30.1465  -30.5535  -17.8245 C.3       2 GLC5        0.0000 
     12 CA        -29.1220  -29.1230  -16.6840 C.3       6 GLL5        0.0000 
     13 CA        -31.1710  -31.9840  -18.9650 C.3       4 GLP5        0.0000 
     14 CA        -27.2200  -28.7780  -14.4775 C.3       2 GLC5        0.0000 
     15 CA        -29.1960  -28.7600  -15.2090 C.3       6 GLL5        0.0000 
     16 CA        -29.1600  -21.4880  -13.6510 C.3       2 GLC5        0.0000 
     17 CA        -29.2450  -22.6170  -15.2950 C.3       6 GLL5        0.0000 
     18 CA        -29.0750  -20.3590  -12.0070 C.3       4 GLP5        0.0000 
     19 CA        -29.9530  -20.8625  -17.2640 C.3       2 GLC5        0.0000 
     20 CA        -28.7760  -22.6290  -16.7590 C.3       6 GLL5        0.0000 
     21 CA        -31.1300  -19.0960  -17.7690 C.3       4 GLP5        0.0000 
     22 CA        -30.1880  -22.4525  -18.3400 C.3       2 GLC5        0.0000 
     23 CA        -31.6000  -22.2760  -19.9210 C.3       4 GLP5        0.0000 
     24 CA        -26.5435  -19.8200  -17.9155 C.3       2 GLC5        0.0000 
     25 CA        -26.7090  -21.7160  -17.8740 C.3       6 GLL5        0.0000 
     26 CA        -26.3780  -17.9240  -17.9570 C.3       4 GLP5        0.0000 
     27 CA        -29.8090  -30.4650  -21.0240 C.3       2 GLC5        0.0000 
     28 CA        -28.4230  -29.4680  -21.8140 C.3       6 GLL5        0.0000 
     29 CA        -31.1950  -31.4620  -20.2340 C.3       4 GLP5        0.0000 
     30 CA        -27.3175  -32.5000  -20.8550 C.3       2 GLC5        0.0000 
     31 CA        -27.1950  -31.4110  -22.6680 C.3       6 GLL5        0.0000 
     32 CA        -27.4400  -33.5890  -19.0420 C.3       4 GLP5        0.0000 
     33 N         -28.9285  -25.7580  -24.1390 N.am      1 SEC2        0.0000 
     34 N         -29.8810  -26.5470  -23.2500 N.am      5 SEL2        0.0000 
     35 N         -27.9760  -24.9690  -25.0280 N.am      3 SEP2        0.0000 
     36 CA        -32.5885  -26.7820  -24.5795 C.3       2 GLC5        0.0000 
     37 CA        -31.9140  -28.4960  -24.6110 C.3       6 GLL5        0.0000 
     38 CA        -33.2630  -25.0680  -24.5480 C.3       4 GLP5        0.0000 
     39 CA        -32.0920  -31.5080  -24.3385 C.3       2 GLC5        0.0000 
     40 CA        -32.3250  -29.7250  -25.4200 C.3       6 GLL5        0.0000 
     41 CA        -31.8590  -33.2910  -23.2570 C.3       4 GLP5        0.0000 
     42 CA        -36.5200  -27.2805  -27.3065 C.3       2 GLC5        0.0000 
     43 CA        -37.5380  -29.0420  -27.2810 C.3       6 GLL5        0.0000 
     44 CA        -35.5020  -25.5190  -27.3320 C.3       4 GLP5        0.0000 
     45 CA        -37.2245  -26.4125  -27.9250 C.3       2 GLC5        0.0000 
     46 CA        -38.9470  -27.3060  -28.5180 C.3       6 GLL5        0.0000 
     47 CA        -36.9240  -25.8515  -29.5260 C.3       2 GLC5        0.0000 
     48 CA        -37.9530  -27.1580  -30.8480 C.3       6 GLL5        0.0000 
     49 CA        -35.8950  -24.5450  -28.2040 C.3       4 GLP5        0.0000 
     50 CA        -27.9017  -30.4567  -15.6627 C.3       2 GLC5        0.0000 
     51 CA        -27.3920  -31.9670  -14.4390 C.3       4 GLP5        0.0000 
     52 CA        -28.6205  -30.4595  -14.6517 C.3       2 GLC5        0.0000 
     53 CA        -32.2117  -29.8450  -15.2957 C.3       2 GLC5        0.0000 
     54 CA        -30.5020  -29.1440  -14.5200 C.3       6 GLL5        0.0000 
     55 CA        -33.4550  -31.1510  -16.1900 C.3       4 GLP5        0.0000 
     56 CA        -26.6370  -20.8023  -15.7987 C.3       2 GLC5        0.0000 
     57 CA        -27.2110  -22.8190  -16.8570 C.3       6 GLL5        0.0000 
     58 CA        -26.3140  -19.3370  -14.2320 C.3       4 GLP5        0.0000 
     59 CA        -27.9711  -23.4005  -19.0475 C.3       2 GLC5        0.0000 
     60 CA        -28.5910  -24.5810  -20.7540 C.3       4 GLP5        0.0000 
     61 CA        -26.7975  -27.6693  -21.6534 C.3       2 GLC5        0.0000 
     62 CA        -27.2040  -28.9560  -20.9910 C.3       6 GLL5        0.0000 
     63 CA        -26.1110  -25.9200  -21.8280 C.3       4 GLP5        0.0000 
     64 CA        -30.2870  -27.4490  -25.5195 C.3       2 GLC5        0.0000 
     65 CA        -30.4160  -28.5740  -24.3570 C.3       6 GLL5        0.0000 
     66 CA        -29.4090  -26.3630  -26.5550 C.3       4 GLP5        0.0000 
     67 CA        -33.5120  -30.3283  -29.2413 C.3       2 GLC5        0.0000 
     68 CA        -34.1870  -29.2040  -28.1850 C.3       6 GLL5        0.0000 
     69 CA        -32.1620  -31.4890  -29.9400 C.3       4 GLP5        0.0000 
     70 CA        -35.1870  -27.2807  -27.7557 C.3       2 GLC5        0.0000 
     71 CA        -35.5370  -29.1310  -28.9000 C.3       6 GLL5        0.0000 
     72 CA        -39.3060  -25.5718  -28.7663 C.3       2 GLC5        0.0000 
     73 CA        -39.5270  -23.7910  -28.2600 C.3       4 GLP5        0.0000 
@<TRIPOS>BOND
@<TRIPOS>SUBSTRUCTURE
     1 SEC2        1 GROUP        1 X    SEC  0     ROOT SEC X 2
     2 GLC5        6 GROUP        1 X    GLC  0     **** GLC X 6
     3 SEP2        3 GROUP        1 Y    SEP  0     ROOT SEP Y 9
     4 GLP5        8 GROUP        1 Y    GLP  0     **** GLP Y 13
     5 SEL2        2 GROUP        1 Z    SEL  0     ROOT SEL Z 16
     6 GLL5        7 GROUP        1 Z    GLL  0     **** GLL Z 20
@<TRIPOS>SET

