#    Name: 4gf9_LP5_1_ligand
#    Modification time : Mon Mar 24 22:09:13 2014

@<TRIPOS>MOLECULE
4gf9_LP5_1_ligand
  112   112     1     0     0
SMALL
NO_CHARGES


@<TRIPOS>ATOM
      1 O48       -23.2150  -31.6240  -21.6410 O.co2     1 LP5501      0.0000 
      2 P45       -23.2710  -30.2410  -21.0200 P.3       1 LP5501      0.0000 
      3 O46       -22.4280  -30.2100  -19.7750 O.co2     1 LP5501      0.0000 
      4 O47       -22.7770  -29.1530  -21.9490 O.co2     1 LP5501      0.0000 
      5 O1        -24.7110  -29.7280  -20.4220 O.3       1 LP5501      0.0000 
      6 C1        -25.8860  -29.7820  -21.2960 C.3       1 LP5501      0.0000 
      7 C2        -27.2040  -28.9560  -20.9910 C.3       1 LP5501      0.0000 
      8 N2        -27.5570  -28.7020  -19.5620 N.am      1 LP5501      0.0000 
      9 C7        -27.1990  -29.3120  -18.4110 C.2       1 LP5501      0.0000 
     10 C8        -27.7010  -28.7700  -17.0890 C.3       1 LP5501      0.0000 
     11 C16       -29.1220  -29.1230  -16.6840 C.3       1 LP5501      0.0000 
     12 O44       -30.0320  -28.2820  -17.4150 O.3       1 LP5501      0.0000 
     13 C17       -29.1960  -28.7600  -15.2090 C.3       1 LP5501      0.0000 
     14 C18       -30.5020  -29.1440  -14.5200 C.3       1 LP5501      0.0000 
     15 C19       -31.4350  -27.9340  -14.2830 C.3       1 LP5501      0.0000 
     16 C20       -30.6790  -26.6000  -14.3370 C.3       1 LP5501      0.0000 
     17 C21       -31.5970  -25.3800  -14.2780 C.3       1 LP5501      0.0000 
     18 C22       -30.7740  -24.1430  -13.9400 C.3       1 LP5501      0.0000 
     19 C23       -30.6150  -23.2760  -15.1790 C.3       1 LP5501      0.0000 
     20 C24       -29.2450  -22.6170  -15.2950 C.3       1 LP5501      0.0000 
     21 C25       -28.7760  -22.6290  -16.7590 C.3       1 LP5501      0.0000 
     22 C26       -27.2110  -22.8190  -16.8570 C.3       1 LP5501      0.0000 
     23 C27       -26.7090  -21.7160  -17.8740 C.3       1 LP5501      0.0000 
     24 O7        -26.5920  -30.3600  -18.3570 O.2       1 LP5501      0.0000 
     25 C3        -28.4230  -29.4680  -21.8140 C.3       1 LP5501      0.0000 
     26 C4        -27.7640  -30.0670  -23.0920 C.3       1 LP5501      0.0000 
     27 C5        -27.1950  -31.4110  -22.6680 C.3       1 LP5501      0.0000 
     28 O5        -26.1110  -31.1470  -21.7660 O.3       1 LP5501      0.0000 
     29 C6        -26.7180  -32.2640  -23.8270 C.3       1 LP5501      0.0000 
     30 O6        -26.9860  -33.6230  -23.4770 O.3       1 LP5501      0.0000 
     31 O4        -28.5950  -30.2140  -24.2630 O.3       1 LP5501      0.0000 
     32 O3        -29.4990  -28.4670  -21.9180 O.3       1 LP5501      0.0000 
     33 C28       -29.9190  -27.7770  -23.1680 C.2       1 LP5501      0.0000 
     34 O42       -29.8810  -26.5470  -23.2500 O.2       1 LP5501      0.0000 
     35 C29       -30.4160  -28.5740  -24.3570 C.3       1 LP5501      0.0000 
     36 C30       -31.9140  -28.4960  -24.6110 C.3       1 LP5501      0.0000 
     37 O43       -32.6410  -28.4990  -23.3810 O.3       1 LP5501      0.0000 
     38 C31       -32.3250  -29.7250  -25.4200 C.3       1 LP5501      0.0000 
     39 C32       -33.8360  -29.7340  -25.6720 C.3       1 LP5501      0.0000 
     40 C33       -34.2270  -28.7040  -26.7330 C.3       1 LP5501      0.0000 
     41 C34       -34.1870  -29.2040  -28.1850 C.3       1 LP5501      0.0000 
     42 C35       -35.5370  -29.1310  -28.9000 C.3       1 LP5501      0.0000 
     43 C36       -36.6670  -29.9200  -28.2130 C.3       1 LP5501      0.0000 
     44 C37       -37.5380  -29.0420  -27.2810 C.3       1 LP5501      0.0000 
     45 C38       -38.9290  -28.6820  -27.8390 C.3       1 LP5501      0.0000 
     46 C39       -38.9470  -27.3060  -28.5180 C.3       1 LP5501      0.0000 
     47 C40       -39.2230  -27.3990  -30.0270 C.3       1 LP5501      0.0000 
     48 C41       -37.9530  -27.1580  -30.8480 C.3       1 LP5501      0.0000 
     49 H         -25.4975  -29.2392  -22.3105 H         1 LP5501      0.0000 
     50 H         -26.9911  -27.9156  -21.4598 H         1 LP5501      0.0000 
     51 H         -28.2488  -27.8361  -19.4776 H         1 LP5501      0.0000 
     52 H         -27.6020  -27.6543  -17.0988 H         1 LP5501      0.0000 
     53 H         -27.0069  -29.1072  -16.2771 H         1 LP5501      0.0000 
     54 H         -29.2857  -30.1386  -16.8089 H         1 LP5501      0.0000 
     55 H         -29.0432  -27.6690  -15.0993 H         1 LP5501      0.0000 
     56 H         -28.3562  -29.2468  -14.6765 H         1 LP5501      0.0000 
     57 H         -30.2801  -29.6085  -13.5526 H         1 LP5501      0.0000 
     58 H         -31.0340  -29.8803  -15.1330 H         1 LP5501      0.0000 
     59 H         -31.9078  -28.0408  -13.3046 H         1 LP5501      0.0000 
     60 H         -32.2155  -27.9369  -15.0465 H         1 LP5501      0.0000 
     61 H         -30.0908  -26.5627  -15.2647 H         1 LP5501      0.0000 
     62 H         -29.9718  -26.5586  -13.4967 H         1 LP5501      0.0000 
     63 H         -32.3491  -25.5338  -13.5138 H         1 LP5501      0.0000 
     64 H         -32.0752  -25.2442  -15.2404 H         1 LP5501      0.0000 
     65 H         -29.7950  -24.4486  -13.5841 H         1 LP5501      0.0000 
     66 H         -31.2789  -23.5761  -13.1640 H         1 LP5501      0.0000 
     67 H         -31.3893  -22.4912  -15.1712 H         1 LP5501      0.0000 
     68 H         -30.7915  -23.8930  -16.0754 H         1 LP5501      0.0000 
     69 H         -28.5279  -23.1605  -14.6889 H         1 LP5501      0.0000 
     70 H         -29.3056  -21.5899  -14.9509 H         1 LP5501      0.0000 
     71 H         -29.0323  -21.6893  -17.2347 H         1 LP5501      0.0000 
     72 H         -29.2491  -23.4472  -17.2898 H         1 LP5501      0.0000 
     73 H         -27.0008  -23.7753  -17.2522 H         1 LP5501      0.0000 
     74 H         -26.7789  -22.6393  -15.9105 H         1 LP5501      0.0000 
     75 H         -28.7752  -30.3583  -21.2224 H         1 LP5501      0.0000 
     76 H         -26.8845  -29.4307  -23.3085 H         1 LP5501      0.0000 
     77 H         -27.9820  -31.9516  -22.1391 H         1 LP5501      0.0000 
     78 H         -25.6572  -32.0844  -23.9691 H         1 LP5501      0.0000 
     79 H         -27.2583  -31.9616  -24.7183 H         1 LP5501      0.0000 
     80 H         -30.1331  -29.6389  -24.2207 H         1 LP5501      0.0000 
     81 H         -29.8822  -28.2322  -25.2685 H         1 LP5501      0.0000 
     82 H         -32.1212  -27.6271  -25.1989 H         1 LP5501      0.0000 
     83 H         -32.0487  -30.6251  -24.8733 H         1 LP5501      0.0000 
     84 H         -31.8035  -29.7181  -26.3757 H         1 LP5501      0.0000 
     85 H         -34.3551  -29.5057  -24.7413 H         1 LP5501      0.0000 
     86 H         -34.1367  -30.7266  -26.0069 H         1 LP5501      0.0000 
     87 H         -33.5567  -27.8263  -26.6435 H         1 LP5501      0.0000 
     88 H         -35.2490  -28.3359  -26.5146 H         1 LP5501      0.0000 
     89 H         -33.8335  -30.2462  -28.1910 H         1 LP5501      0.0000 
     90 H         -33.4515  -28.6069  -28.7450 H         1 LP5501      0.0000 
     91 H         -35.4193  -29.5094  -29.9297 H         1 LP5501      0.0000 
     92 H         -35.8443  -28.0745  -28.9808 H         1 LP5501      0.0000 
     93 H         -36.2294  -30.7318  -27.6235 H         1 LP5501      0.0000 
     94 H         -37.3099  -30.3647  -28.9791 H         1 LP5501      0.0000 
     95 H         -36.9895  -28.1098  -27.0638 H         1 LP5501      0.0000 
     96 H         -37.6655  -29.5694  -26.3205 H         1 LP5501      0.0000 
     97 H         -39.6515  -28.6868  -27.0188 H         1 LP5501      0.0000 
     98 H         -39.2275  -29.4437  -28.5639 H         1 LP5501      0.0000 
     99 H         -37.9803  -26.8178  -28.3624 H         1 LP5501      0.0000 
    100 H         -39.7201  -26.6875  -28.0522 H         1 LP5501      0.0000 
    101 H         -39.9728  -26.6547  -30.2979 H         1 LP5501      0.0000 
    102 H         -39.6165  -28.3900  -30.2561 H         1 LP5501      0.0000 
    103 H         -25.7180  -21.7530  -18.0026 H         1 LP5501      0.0000 
    104 H         -27.1260  -21.8255  -18.7763 H         1 LP5501      0.0000 
    105 H         -26.9295  -20.7928  -17.5593 H         1 LP5501      0.0000 
    106 H         -37.5623  -26.2546  -30.6712 H         1 LP5501      0.0000 
    107 H         -37.2428  -27.8304  -30.6395 H         1 LP5501      0.0000 
    108 H         -38.1299  -27.2137  -31.8307 H         1 LP5501      0.0000 
    109 H         -29.4747  -27.5169  -17.7376 H         1 LP5501      0.0000 
    110 H         -26.1367  -33.9572  -23.0684 H         1 LP5501      0.0000 
    111 H         -28.4364  -29.3845  -24.7986 H         1 LP5501      0.0000 
    112 H         -31.9414  -28.4725  -22.6669 H         1 LP5501      0.0000 
@<TRIPOS>BOND
     1    2    1 ar   
     2    3    2 ar   
     3    4    2 ar   
     4    5    2 1    
     5    6    5 1    
     6    7    6 1    
     7   28    6 1    
     8   49    6 1    
     9    8    7 1    
    10   25    7 1    
    11   50    7 1    
    12    9    8 am   
    13   51    8 1    
    14   10    9 1    
    15   24    9 2    
    16   11   10 1    
    17   52   10 1    
    18   53   10 1    
    19   12   11 1    
    20   13   11 1    
    21   54   11 1    
    22  109   12 1    
    23   14   13 1    
    24   55   13 1    
    25   56   13 1    
    26   15   14 1    
    27   57   14 1    
    28   58   14 1    
    29   16   15 1    
    30   59   15 1    
    31   60   15 1    
    32   17   16 1    
    33   61   16 1    
    34   62   16 1    
    35   18   17 1    
    36   63   17 1    
    37   64   17 1    
    38   19   18 1    
    39   65   18 1    
    40   66   18 1    
    41   20   19 1    
    42   67   19 1    
    43   68   19 1    
    44   21   20 1    
    45   69   20 1    
    46   70   20 1    
    47   22   21 1    
    48   71   21 1    
    49   72   21 1    
    50   23   22 1    
    51   73   22 1    
    52   74   22 1    
    53  103   23 1    
    54  104   23 1    
    55  105   23 1    
    56   26   25 1    
    57   32   25 1    
    58   75   25 1    
    59   27   26 1    
    60   31   26 1    
    61   76   26 1    
    62   28   27 1    
    63   29   27 1    
    64   77   27 1    
    65   30   29 1    
    66   78   29 1    
    67   79   29 1    
    68  110   30 1    
    69  111   31 1    
    70   33   32 1    
    71   34   33 2    
    72   35   33 1    
    73   36   35 1    
    74   80   35 1    
    75   81   35 1    
    76   37   36 1    
    77   38   36 1    
    78   82   36 1    
    79  112   37 1    
    80   39   38 1    
    81   83   38 1    
    82   84   38 1    
    83   40   39 1    
    84   85   39 1    
    85   86   39 1    
    86   41   40 1    
    87   87   40 1    
    88   88   40 1    
    89   42   41 1    
    90   89   41 1    
    91   90   41 1    
    92   43   42 1    
    93   91   42 1    
    94   92   42 1    
    95   44   43 1    
    96   93   43 1    
    97   94   43 1    
    98   45   44 1    
    99   95   44 1    
   100   96   44 1    
   101   46   45 1    
   102   97   45 1    
   103   98   45 1    
   104   47   46 1    
   105   99   46 1    
   106  100   46 1    
   107   48   47 1    
   108  101   47 1    
   109  102   47 1    
   110  106   48 1    
   111  107   48 1    
   112  108   48 1    
@<TRIPOS>SUBSTRUCTURE
     1 LP5501      1 GROUP   
@<TRIPOS>SET

