#    Name: 3bzu_A21_1_INTS_M
#    Modification time : Mon Mar 24 20:16:32 2014

@<TRIPOS>MOLECULE
3bzu_A21_1_INTS_M
   64     0     9     0     0
SMALL
NO_CHARGES


@<TRIPOS>ATOM
      1 CA          7.8325    5.4785   15.2455 C.3       3 GLC5        0.0000 
      2 CA          8.0820    3.8190   14.3000 C.3       9 GLL5        0.0000 
      3 CA          7.5830    7.1380   16.1910 C.3       6 GLP5        0.0000 
      4 CA          7.8645    3.2045   16.0870 C.3       3 GLC5        0.0000 
      5 CA          7.6470    2.5900   17.8740 C.3       6 GLP5        0.0000 
      6 CA          6.6040    6.3620   12.8780 C.3       3 GLC5        0.0000 
      7 CA          7.4080    4.6310   12.4290 C.3       9 GLL5        0.0000 
      8 CA          5.8000    8.0930   13.3270 C.3       6 GLP5        0.0000 
      9 CA          5.6840    4.9020   11.2795 C.3       3 GLC5        0.0000 
     10 CA          3.9600    5.1730   10.1300 C.3       6 GLP5        0.0000 
     11 CA         10.4050    4.2485   13.5000 C.3       3 GLC5        0.0000 
     12 CA          9.0610    3.2420   12.4640 C.3       9 GLL5        0.0000 
     13 CA         11.7490    5.2550   14.5360 C.3       6 GLP5        0.0000 
     14 N           3.4960    3.6900   13.2895 N.am      2 SEC2        0.0000 
     15 N           4.8550    3.2630   13.4930 N.am      8 SEL2        0.0000 
     16 N           2.1370    4.1170   13.0860 N.am      5 SEP2        0.0000 
     17 O           4.8910    0.5660   15.8810 O.2       1 ALC1        0.0000 
     18 O           5.6950    1.6320   14.7900 O.2       7 ALL1        0.0000 
     19 O           4.0870   -0.5000   16.9720 O.2       4 ALP1        0.0000 
     20 CA          4.4645    1.9860   11.7340 C.3       3 GLC5        0.0000 
     21 CA          6.6850    2.0360   11.4560 C.3       9 GLL5        0.0000 
     22 CA          2.2440    1.9360   12.0120 C.3       6 GLP5        0.0000 
     23 CA          5.1915    2.9730   10.5490 C.3       3 GLC5        0.0000 
     24 CA          3.6980    3.9100    9.6420 C.3       6 GLP5        0.0000 
     25 CA          4.9080   -0.1595   14.8260 C.3       3 GLC5        0.0000 
     26 CA          6.6540    0.7880   14.7950 C.3       9 GLL5        0.0000 
     27 CA          3.1620   -1.1070   14.8570 C.3       6 GLP5        0.0000 
     28 CA          7.1505    1.6890   16.3345 C.3       3 GLC5        0.0000 
     29 O           5.3630   -0.3550   16.3280 O.2       1 ALC1        0.0000 
     30 O           6.6390   -0.2100   15.6840 O.2       7 ALL1        0.0000 
     31 CA          7.9840    0.2800   17.3170 C.3       3 GLC5        0.0000 
     32 CA          7.6400   -1.2460   15.8520 C.3       9 GLL5        0.0000 
     33 CA          8.3280    1.8060   18.7820 C.3       6 GLP5        0.0000 
     34 CA          6.7840   -3.2150   18.3265 C.3       3 GLC5        0.0000 
     35 CA          7.5290   -1.8720   17.2470 C.3       9 GLL5        0.0000 
     36 CA          6.0390   -4.5580   19.4060 C.3       6 GLP5        0.0000 
     37 CA          7.5765   -0.3755   18.5160 C.3       3 GLC5        0.0000 
     38 CA          7.6240    1.1210   19.7850 C.3       6 GLP5        0.0000 
     39 CA         11.4535   -2.1390   15.6645 C.3       3 GLC5        0.0000 
     40 CA          9.9290   -2.2910   14.7160 C.3       9 GLL5        0.0000 
     41 CA         12.9780   -1.9870   16.6130 C.3       6 GLP5        0.0000 
     42 CA          4.2410   -4.1115   13.3960 C.3       3 GLC5        0.0000 
     43 CA          6.3340   -3.7340   13.2780 C.3       9 GLL5        0.0000 
     44 CA          2.1480   -4.4890   13.5140 C.3       6 GLP5        0.0000 
     45 CA          9.4075    4.4343   14.7052 C.3       3 GLC5        0.0000 
     46 CA          7.9040    3.5540   13.0270 C.3       9 GLL5        0.0000 
     47 CA         10.8220    5.1820   15.7470 C.3       6 GLP5        0.0000 
     48 CA          9.2799    4.8732   11.8921 C.3       3 GLC5        0.0000 
     49 CA         10.1790    6.0460   11.0290 C.3       6 GLP5        0.0000 
     50 CA          5.5992   -1.5110   16.3233 C.3       3 GLC5        0.0000 
     51 CA          3.6140   -1.4630   16.0970 C.3       6 GLP5        0.0000 
     52 CA          6.4359   -5.1890   14.2380 C.3       3 GLC5        0.0000 
     53 CA          6.3390   -2.7760   14.2860 C.3       9 GLL5        0.0000 
     54 CA          5.9310   -6.6460   15.2030 C.3       6 GLP5        0.0000 
     55 CA          8.4688   -3.4580   11.1412 C.3       3 GLC5        0.0000 
     56 CA          7.5450   -4.2090   12.7640 C.3       9 GLL5        0.0000 
     57 CA          8.7780   -2.9470    9.2850 C.3       6 GLP5        0.0000 
     58 CA          6.1599   -3.0030   11.7310 C.3       3 GLC5        0.0000 
     59 CA          5.3790   -2.2740   10.1890 C.3       6 GLP5        0.0000 
     60 CA         10.6686   -4.0404   13.6154 C.3       3 GLC5        0.0000 
     61 CA          8.7740   -3.7290   13.2310 C.3       9 GLL5        0.0000 
     62 CA         12.2760   -4.9520   13.3770 C.3       6 GLP5        0.0000 
     63 CA         10.3691   -1.9344   12.8444 C.3       3 GLC5        0.0000 
     64 CA         11.6770   -0.7400   11.8350 C.3       6 GLP5        0.0000 
@<TRIPOS>BOND
@<TRIPOS>SUBSTRUCTURE
     1 ALC1       17 GROUP        1 X    ALC  0     ROOT ALC X 1
     2 SEC2       14 GROUP        1 X    SEC  0     **** SEC X 2
     3 GLC5        1 GROUP        1 X    GLC  0     **** GLC X 6
     4 ALP1       19 GROUP        1 Y    ALP  0     ROOT ALP Y 8
     5 SEP2       16 GROUP        1 Y    SEP  0     **** SEP Y 9
     6 GLP5        3 GROUP        1 Y    GLP  0     **** GLP Y 13
     7 ALL1       18 GROUP        1 Z    ALL  0     ROOT ALL Z 15
     8 SEL2       15 GROUP        1 Z    SEL  0     **** SEL Z 16
     9 GLL5        2 GROUP        1 Z    GLL  0     **** GLL Z 20
@<TRIPOS>SET

