#    Name: 3bzu_A21_1_ligand
#    Modification time : Mon Mar 24 20:16:32 2014

@<TRIPOS>MOLECULE
3bzu_A21_1_ligand
   34    35     1     0     0
SMALL
NO_CHARGES


@<TRIPOS>ATOM
      1 F3          8.0820    3.8190   14.3000 F         1 A21293      0.0000 
      2 C2          7.9040    3.5540   13.0270 C.3       1 A21293      0.0000 
      3 F4          7.4080    4.6310   12.4290 F         1 A21293      0.0000 
      4 F1          9.0610    3.2420   12.4640 F         1 A21293      0.0000 
      5 C8          6.9900    2.3320   12.9230 C.3       1 A21293      0.0000 
      6 C13         5.7200    2.4640   13.7560 C.2       1 A21293      0.0000 
      7 O2          4.8550    3.2630   13.4930 O.2       1 A21293      0.0000 
      8 N2          5.6950    1.6320   14.7900 N.am      1 A21293      0.0000 
      9 C4          6.6850    2.0360   11.4560 C.3       1 A21293      0.0000 
     10 S1          7.8710    0.9660   13.6270 S.3       1 A21293      0.0000 
     11 C11         6.6540    0.7880   14.7950 C.2       1 A21293      0.0000 
     12 N3          6.6390   -0.2100   15.6840 N.pl3     1 A21293      0.0000 
     13 C1          7.6400   -1.2460   15.8520 C.3       1 A21293      0.0000 
     14 C3          7.5290   -1.8720   17.2470 C.3       1 A21293      0.0000 
     15 C6          7.5630   -2.2850   14.7800 C.ar      1 A21293      0.0000 
     16 C18         8.7680   -2.7660   14.2370 C.ar      1 A21293      0.0000 
     17 F2          9.9290   -2.2910   14.7160 F         1 A21293      0.0000 
     18 C22         6.3390   -2.7760   14.2860 C.ar      1 A21293      0.0000 
     19 C21         6.3340   -3.7340   13.2780 C.ar      1 A21293      0.0000 
     20 C9          7.5450   -4.2090   12.7640 C.ar      1 A21293      0.0000 
     21 C19         8.7740   -3.7290   13.2310 C.ar      1 A21293      0.0000 
     22 H           4.9674    1.6832   15.4997 H         1 A21293      0.0000 
     23 H           5.8105   -0.2907   16.3702 H         1 A21293      0.0000 
     24 H           8.6460   -0.7823   15.8014 H         1 A21293      0.0000 
     25 H           5.4589   -2.4234   14.6734 H         1 A21293      0.0000 
     26 H           5.4467   -4.0935   12.9101 H         1 A21293      0.0000 
     27 H           7.5325   -4.9312   12.0221 H         1 A21293      0.0000 
     28 H           9.6455   -4.0760   12.8442 H         1 A21293      0.0000 
     29 H           7.5170    1.8464   10.9346 H         1 A21293      0.0000 
     30 H           6.0876    1.2406   11.3540 H         1 A21293      0.0000 
     31 H           6.2279    2.8051   11.0092 H         1 A21293      0.0000 
     32 H           8.2099   -2.5909   17.3867 H         1 A21293      0.0000 
     33 H           7.6653   -1.1947   17.9699 H         1 A21293      0.0000 
     34 H           6.6311   -2.2854   17.3982 H         1 A21293      0.0000 
@<TRIPOS>BOND
     1    2    1 1    
     2    3    2 1    
     3    4    2 1    
     4    5    2 1    
     5    6    5 1    
     6    9    5 1    
     7   10    5 1    
     8    7    6 2    
     9    8    6 am   
    10   11    8 1    
    11   22    8 1    
    12   29    9 1    
    13   30    9 1    
    14   31    9 1    
    15   11   10 1    
    16   12   11 2    
    17   13   12 1    
    18   23   12 1    
    19   14   13 1    
    20   15   13 1    
    21   24   13 1    
    22   32   14 1    
    23   33   14 1    
    24   34   14 1    
    25   16   15 ar   
    26   18   15 ar   
    27   17   16 1    
    28   21   16 ar   
    29   19   18 ar   
    30   25   18 1    
    31   20   19 ar   
    32   26   19 1    
    33   21   20 ar   
    34   27   20 1    
    35   28   21 1    
@<TRIPOS>SUBSTRUCTURE
     1 A21293      1 GROUP   
@<TRIPOS>SET

