#    Name: 1hw9_SIM_2_INTS_M
#    Modification time : Tue Mar 25 06:21:51 2014

@<TRIPOS>MOLECULE
1hw9_SIM_2_INTS_M
   71     0    12     0     0
SMALL
NO_CHARGES


@<TRIPOS>ATOM
      1 NZ         16.4150    1.6185   17.0975 N.4       3 LYC4        0.0000 
      2 NZ         16.2430    2.6140   16.1130 N.4      11 LYL4        0.0000 
      3 NZ         16.5870    0.6230   18.0820 N.4       7 LYP4        0.0000 
      4 N          16.4150    1.6185   17.0975 N.am      2 SEC2        0.0000 
      5 N          16.2430    2.6140   16.1130 N.am     10 SEL2        0.0000 
      6 N          16.5870    0.6230   18.0820 N.am      6 SEP2        0.0000 
      7 NZ         14.3090    0.5575   15.3105 N.4       3 LYC4        0.0000 
      8 NZ         14.0790    1.9210   16.1390 N.4      11 LYL4        0.0000 
      9 NZ         14.5390   -0.8060   14.4820 N.4       7 LYP4        0.0000 
     10 NZ         15.3330    1.2720   17.1105 N.4       3 LYC4        0.0000 
     11 N          13.9940    1.9995   17.4835 N.am      2 SEC2        0.0000 
     12 N          14.0790    1.9210   16.1390 N.am     10 SEL2        0.0000 
     13 N          13.9090    2.0780   18.8280 N.am      6 SEP2        0.0000 
     14 N          12.8600    4.7370   15.8640 N.am      2 SEC2        0.0000 
     15 N          13.7100    4.8320   14.5650 N.am     10 SEL2        0.0000 
     16 N          12.0100    4.6420   17.1630 N.am      6 SEP2        0.0000 
     17 N          13.0455    5.8540   15.6860 N.am      2 SEC2        0.0000 
     18 N          12.3810    6.8760   16.8070 N.am      6 SEP2        0.0000 
     19 O          12.6460    4.5250   13.6510 O.2       1 ALC1        0.0000 
     20 O          13.7100    4.8320   14.5650 O.2       9 ALL1        0.0000 
     21 O          11.5820    4.2180   12.7370 O.2       5 ALP1        0.0000 
     22 N          14.0710    6.1955    9.9105 N.am      2 SEC2        0.0000 
     23 N          14.9270    6.6840   10.9260 N.am     10 SEL2        0.0000 
     24 N          13.2150    5.7070    8.8950 N.am      6 SEP2        0.0000 
     25 N          15.8000    5.9570   10.0345 N.am      2 SEC2        0.0000 
     26 N          16.6730    5.2300    9.1430 N.am      6 SEP2        0.0000 
     27 O          14.8320    7.9285   10.4155 O.2       1 ALC1        0.0000 
     28 O          14.9270    6.6840   10.9260 O.2       9 ALL1        0.0000 
     29 O          14.7370    9.1730    9.9050 O.2       5 ALP1        0.0000 
     30 CA         12.8685    2.6015   14.0255 C.3       4 GLC5        0.0000 
     31 CA         14.9750    2.8750   14.0880 C.3      12 GLL5        0.0000 
     32 CA         10.7620    2.3280   13.9630 C.3       8 GLP5        0.0000 
     33 CA         16.3810    2.5105   12.5645 C.3       4 GLC5        0.0000 
     34 CA         17.7870    2.1460   11.0410 C.3       8 GLP5        0.0000 
     35 CA         13.9110    4.0615   10.8710 C.3       4 GLC5        0.0000 
     36 CA         14.8500    4.8700   12.4870 C.3      12 GLL5        0.0000 
     37 CA         12.9720    3.2530    9.2550 C.3       8 GLP5        0.0000 
     38 CA         16.3185    3.5080   11.7640 C.3       4 GLC5        0.0000 
     39 CA         17.8355    5.2570   13.5125 C.3       4 GLC5        0.0000 
     40 CA         16.4670    6.8270   12.7520 C.3      12 GLL5        0.0000 
     41 CA         19.2040    3.6870   14.2730 C.3       8 GLP5        0.0000 
     42 CA         19.3500   11.6745   12.1390 C.3       4 GLC5        0.0000 
     43 CA         18.5540   10.2200   13.2570 C.3      12 GLL5        0.0000 
     44 CA         20.1460   13.1290   11.0210 C.3       8 GLP5        0.0000 
     45 CA         19.9720    9.2675    9.1350 C.3       4 GLC5        0.0000 
     46 CA         19.3470    8.6010   10.6550 C.3      12 GLL5        0.0000 
     47 CA         20.5970    9.9340    7.6150 C.3       8 GLP5        0.0000 
     48 CA         21.5000    8.9650   10.8075 C.3       4 GLC5        0.0000 
     49 CA         23.6530    9.3290   10.9600 C.3       8 GLP5        0.0000 
     50 CA         18.3020    6.6950   16.3335 C.3       4 GLC5        0.0000 
     51 CA         16.7130    7.6460   17.1240 C.3      12 GLL5        0.0000 
     52 CA         19.8910    5.7440   15.5430 C.3       8 GLP5        0.0000 
     53 CA         17.5795    6.5295   18.5865 C.3       4 GLC5        0.0000 
     54 CA         18.4460    5.4130   20.0490 C.3       8 GLP5        0.0000 
     55 CA         13.3715    9.9440   19.0050 C.3       4 GLC5        0.0000 
     56 CA         15.4080    9.3380   18.4990 C.3      12 GLL5        0.0000 
     57 CA         11.3350   10.5500   19.5110 C.3       8 GLP5        0.0000 
     58 CA         15.5140    8.2540   20.0860 C.3       4 GLC5        0.0000 
     59 CA         15.6200    7.1700   21.6730 C.3       8 GLP5        0.0000 
     60 CA         17.0708    3.6612   14.1457 C.3       4 GLC5        0.0000 
     61 CA         14.9000    4.3960   13.9490 C.3      12 GLL5        0.0000 
     62 CA         19.3580    7.0612   14.0570 C.3       4 GLC5        0.0000 
     63 CA         18.2620    8.6790   13.0330 C.3      12 GLL5        0.0000 
     64 CA         22.2737    9.1642   12.0162 C.3       4 GLC5        0.0000 
     65 CA         20.7770    8.4490   12.6860 C.3      12 GLL5        0.0000 
     66 CA         20.3927    7.3718   14.3077 C.3       4 GLC5        0.0000 
     67 CA         20.2828   11.9456   12.5564 C.3       4 GLC5        0.0000 
     68 CA         20.3220   11.5290   14.5630 C.3      12 GLL5        0.0000 
     69 CA         19.1600   13.6090   13.2290 C.3       4 GLC5        0.0000 
     70 CA         19.3140   12.6100   14.9960 C.3      12 GLL5        0.0000 
     71 CA         19.7240   14.7160   11.7580 C.3       8 GLP5        0.0000 
@<TRIPOS>BOND
@<TRIPOS>SUBSTRUCTURE
     1 ALC1       19 GROUP        1 X    ALC  0     ROOT ALC X 1
     2 SEC2        4 GROUP        1 X    SEC  0     **** SEC X 2
     3 LYC4        1 GROUP        1 X    LYC  0     **** LYC X 4
     4 GLC5       30 GROUP        1 X    GLC  0     **** GLC X 6
     5 ALP1       21 GROUP        1 Y    ALP  0     ROOT ALP Y 8
     6 SEP2        6 GROUP        1 Y    SEP  0     **** SEP Y 9
     7 LYP4        3 GROUP        1 Y    LYP  0     **** LYP Y 11
     8 GLP5       32 GROUP        1 Y    GLP  0     **** GLP Y 13
     9 ALL1       20 GROUP        1 Z    ALL  0     ROOT ALL Z 15
    10 SEL2        5 GROUP        1 Z    SEL  0     **** SEL Z 16
    11 LYL4        2 GROUP        1 Z    LYL  0     **** LYL Z 18
    12 GLL5       31 GROUP        1 Z    GLL  0     **** GLL Z 20
@<TRIPOS>SET

