#    Name: 1hw9_SIM_2_ligand
#    Modification time : Tue Mar 25 06:21:51 2014

@<TRIPOS>MOLECULE
1hw9_SIM_2_ligand
   70    71     1     0     0
SMALL
NO_CHARGES


@<TRIPOS>ATOM
      1 O1A        16.2430    2.6140   16.1130 O.co2     1 SIM3        0.0000 
      2 O1B        14.0790    1.9210   16.1390 O.co2     1 SIM3        0.0000 
      3 O3         13.7100    4.8320   14.5650 O.3       1 SIM3        0.0000 
      4 O5         14.9270    6.6840   10.9260 O.3       1 SIM3        0.0000 
      5 O14        17.5040   10.1530   15.4480 O.3       1 SIM3        0.0000 
      6 O18        15.2490   10.5020   15.8320 O.2       1 SIM3        0.0000 
      7 C1         15.0250    2.4140   15.5420 C.2       1 SIM3        0.0000 
      8 C2         14.9750    2.8750   14.0880 C.3       1 SIM3        0.0000 
      9 C3         14.9000    4.3960   13.9490 C.3       1 SIM3        0.0000 
     10 C4         14.8500    4.8700   12.4870 C.3       1 SIM3        0.0000 
     11 C5         15.0630    6.3920   12.2970 C.3       1 SIM3        0.0000 
     12 C6         16.4670    6.8270   12.7520 C.3       1 SIM3        0.0000 
     13 C7         16.8180    8.3290   12.5390 C.3       1 SIM3        0.0000 
     14 C8         18.2620    8.6790   13.0330 C.3       1 SIM3        0.0000 
     15 C9         19.3880    8.0780   12.1090 C.3       1 SIM3        0.0000 
     16 C10        20.7770    8.4490   12.6860 C.2       1 SIM3        0.0000 
     17 C11        21.0120    9.5500   13.4590 C.2       1 SIM3        0.0000 
     18 C12        20.0220   10.4410   13.7820 C.2       1 SIM3        0.0000 
     19 C17        20.3220   11.5290   14.5630 C.2       1 SIM3        0.0000 
     20 C16        19.3140   12.6100   14.9960 C.3       1 SIM3        0.0000 
     21 C15        17.8780   12.3940   14.4040 C.3       1 SIM3        0.0000 
     22 C14        17.5170   10.8940   14.1990 C.3       1 SIM3        0.0000 
     23 C13        18.5540   10.2200   13.2570 C.3       1 SIM3        0.0000 
     24 C9A        19.3470    8.6010   10.6550 C.3       1 SIM3        0.0000 
     25 C18        16.3370   10.0200   16.1670 C.2       1 SIM3        0.0000 
     26 C19        16.5690    9.1620   17.4700 C.3       1 SIM3        0.0000 
     27 C20        16.7130    7.6460   17.1240 C.3       1 SIM3        0.0000 
     28 C21        15.4300    6.8240   16.8830 C.3       1 SIM3        0.0000 
     29 C22        15.4080    9.3380   18.4990 C.3       1 SIM3        0.0000 
     30 C23        17.8640    9.5910   18.2080 C.3       1 SIM3        0.0000 
     31 C24        19.2690   12.6390   16.5400 C.3       1 SIM3        0.0000 
     32 H          14.0996    2.4282   13.5993 H         1 SIM3        0.0000 
     33 H          15.8693    2.5123   13.5652 H         1 SIM3        0.0000 
     34 H          15.7610    4.8324   14.4182 H         1 SIM3        0.0000 
     35 H          13.8741    4.5965   12.0553 H         1 SIM3        0.0000 
     36 H          15.6206    4.3340   11.9105 H         1 SIM3        0.0000 
     37 H          14.3360    6.9081   12.8896 H         1 SIM3        0.0000 
     38 H          17.2217    6.2170   12.2189 H         1 SIM3        0.0000 
     39 H          16.5832    6.5945   13.8282 H         1 SIM3        0.0000 
     40 H          16.1045    8.9410   13.0868 H         1 SIM3        0.0000 
     41 H          16.7462    8.5631   11.4789 H         1 SIM3        0.0000 
     42 H          18.4043    8.1939   14.0267 H         1 SIM3        0.0000 
     43 H          19.3058    7.0120   12.1053 H         1 SIM3        0.0000 
     44 H          21.5244    7.7759   12.4288 H         1 SIM3        0.0000 
     45 H          21.9844    9.7218   13.8195 H         1 SIM3        0.0000 
     46 H          21.2894   11.6950   14.9242 H         1 SIM3        0.0000 
     47 H          19.6791   13.5745   14.6607 H         1 SIM3        0.0000 
     48 H          17.8183   12.9082   13.4427 H         1 SIM3        0.0000 
     49 H          17.1515   12.8445   15.0833 H         1 SIM3        0.0000 
     50 H          16.5585   10.8403   13.7074 H         1 SIM3        0.0000 
     51 H          18.4887   10.7056   12.2781 H         1 SIM3        0.0000 
     52 H          17.2965    7.1618   17.9448 H         1 SIM3        0.0000 
     53 H          17.3642    7.5619   16.2199 H         1 SIM3        0.0000 
     54 H          19.4575    9.5940   10.6143 H         1 SIM3        0.0000 
     55 H          20.0740    8.2020   10.0962 H         1 SIM3        0.0000 
     56 H          18.4800    8.3839   10.2065 H         1 SIM3        0.0000 
     57 H          15.6354    5.8688   16.6699 H         1 SIM3        0.0000 
     58 H          14.8331    6.8234   17.6853 H         1 SIM3        0.0000 
     59 H          14.8948    7.1861   16.1198 H         1 SIM3        0.0000 
     60 H          15.5595    8.7967   19.3261 H         1 SIM3        0.0000 
     61 H          15.3077   10.2905   18.7864 H         1 SIM3        0.0000 
     62 H          14.5283    9.0524   18.1188 H         1 SIM3        0.0000 
     63 H          18.6739    9.4793   17.6322 H         1 SIM3        0.0000 
     64 H          17.8322   10.5510   18.4862 H         1 SIM3        0.0000 
     65 H          18.0161    9.0508   19.0357 H         1 SIM3        0.0000 
     66 H          20.1641   12.8483   16.9338 H         1 SIM3        0.0000 
     67 H          18.6305   13.3294   16.8800 H         1 SIM3        0.0000 
     68 H          18.9800   11.7602   16.9197 H         1 SIM3        0.0000 
     69 H          12.9858    4.6176   13.9096 H         1 SIM3        0.0000 
     70 H          14.9020    7.6824   10.8754 H         1 SIM3        0.0000 
@<TRIPOS>BOND
     1    7    1 ar   
     2    7    2 ar   
     3    9    3 1    
     4   69    3 1    
     5   11    4 1    
     6   70    4 1    
     7   22    5 1    
     8   25    5 1    
     9   25    6 2    
    10    8    7 1    
    11    9    8 1    
    12   32    8 1    
    13   33    8 1    
    14   10    9 1    
    15   34    9 1    
    16   11   10 1    
    17   35   10 1    
    18   36   10 1    
    19   12   11 1    
    20   37   11 1    
    21   13   12 1    
    22   38   12 1    
    23   39   12 1    
    24   14   13 1    
    25   40   13 1    
    26   41   13 1    
    27   15   14 1    
    28   23   14 1    
    29   42   14 1    
    30   16   15 1    
    31   24   15 1    
    32   43   15 1    
    33   17   16 2    
    34   44   16 1    
    35   18   17 1    
    36   45   17 1    
    37   19   18 2    
    38   23   18 1    
    39   20   19 1    
    40   46   19 1    
    41   21   20 1    
    42   31   20 1    
    43   47   20 1    
    44   22   21 1    
    45   48   21 1    
    46   49   21 1    
    47   23   22 1    
    48   50   22 1    
    49   51   23 1    
    50   54   24 1    
    51   55   24 1    
    52   56   24 1    
    53   26   25 1    
    54   27   26 1    
    55   29   26 1    
    56   30   26 1    
    57   28   27 1    
    58   52   27 1    
    59   53   27 1    
    60   57   28 1    
    61   58   28 1    
    62   59   28 1    
    63   60   29 1    
    64   61   29 1    
    65   62   29 1    
    66   63   30 1    
    67   64   30 1    
    68   65   30 1    
    69   66   31 1    
    70   67   31 1    
    71   68   31 1    
@<TRIPOS>SUBSTRUCTURE
     1 SIM3        1 GROUP   
@<TRIPOS>SET

