#    Name: 4BUY_1_CAVITY_N1_6.mol2
#    Modification time : Tue Mar 11 20:31:39 2014

@<TRIPOS>MOLECULE
4BUY_1_CAVITY_N1_6.mol2
   77     0     7     0     0
SMALL
NO_CHARGES


@<TRIPOS>ATOM
      1 CA        -42.1975  -13.3567    4.7074 C.3       6 GLY6        0.0000 
      2 N         -42.2765  -12.0710    3.9387 N.2       2 ALA2        0.0000 
      3 CA        -40.3951  -12.7032    5.6152 C.3       6 GLY6        0.0000 
      4 CA        -38.9374  -12.8144    5.2795 C.3       6 GLY6        0.0000 
      5 CA        -37.4797  -12.9256    4.9438 C.3       6 GLY6        0.0000 
      6 N         -40.4740  -11.4175    4.8466 N.2       2 ALA2        0.0000 
      7 CA        -39.0163  -11.5288    4.5109 C.3       6 GLY6        0.0000 
      8 DU        -37.5586  -11.6400    4.1752 H         7 CUB7        0.0000 
      9 CA        -36.1009  -11.7512    3.8395 C.3       6 GLY6        0.0000 
     10 N         -40.5530  -10.1319    4.0779 N.2       2 ALA2        0.0000 
     11 CZ        -39.0953  -10.2431    3.7422 C.ar      5 PHE5        0.0000 
     12 CZ        -37.6376  -10.3543    3.4065 C.ar      5 PHE5        0.0000 
     13 N         -40.6319   -8.8462    3.3093 N.2       2 ALA2        0.0000 
     14 OG        -42.4922  -19.4302   12.1421 O.2       1 SER1        0.0000 
     15 OG        -41.0345  -19.5414   11.8064 O.2       1 SER1        0.0000 
     16 O         -44.0288  -18.0333   11.7092 O.2       2 ALA2        0.0000 
     17 OG        -42.5711  -18.1445   11.3735 O.2       1 SER1        0.0000 
     18 CA        -40.0504  -11.9386    6.8588 C.3       6 GLY6        0.0000 
     19 CA        -38.5927  -12.0498    6.5231 C.3       6 GLY6        0.0000 
     20 O         -37.1350  -12.1610    6.1874 O.2       2 ALA2        0.0000 
     21 N         -40.1293  -10.6529    6.0901 N.2       2 ALA2        0.0000 
     22 DU        -38.6716  -10.7641    5.7544 H         7 CUB7        0.0000 
     23 CA        -37.2139  -10.8753    5.4187 C.3       6 GLY6        0.0000 
     24 N         -40.2083   -9.3672    5.3215 N.2       2 ALA2        0.0000 
     25 CZ        -38.7505   -9.4784    4.9858 C.ar      5 PHE5        0.0000 
     26 DU        -42.0685  -19.9512   14.1544 H         7 CUB7        0.0000 
     27 CA        -43.6052  -18.5543   13.7214 C.3       6 GLY6        0.0000 
     28 OG        -42.1475  -18.6655   13.3857 O.2       1 SER1        0.0000 
     29 CZ        -43.6841  -17.2686   12.9528 C.ar      5 PHE5        0.0000 
     30 OG        -42.2264  -17.3798   12.6171 O.2       1 SER1        0.0000 
     31 CZ        -39.6267  -12.4596    8.8710 C.ar      5 PHE5        0.0000 
     32 CZ        -38.1690  -12.5708    8.5353 C.ar      5 PHE5        0.0000 
     33 CA        -41.1634  -11.0627    8.4381 C.3       6 GLY6        0.0000 
     34 DU        -39.7057  -11.1739    8.1024 H         7 CUB7        0.0000 
     35 DU        -38.2479  -11.2851    7.7667 H         7 CUB7        0.0000 
     36 CA        -36.7902  -11.3963    7.4310 C.3       6 GLY6        0.0000 
     37 N         -39.7846   -9.8882    7.3337 N.2       2 ALA2        0.0000 
     38 OG        -38.3269   -9.9994    6.9980 O.2       1 SER1        0.0000 
     39 N         -39.8635   -8.6026    6.5651 N.2       2 ALA2        0.0000 
     40 CZ        -38.4058   -8.7138    6.2294 C.ar      5 PHE5        0.0000 
     41 OD1       -41.7238  -19.1865   15.3979 O.3       3 ASP3        0.0000 
     42 NZ        -43.2605  -17.7896   14.9650 N.2       4 LYS4        0.0000 
     43 OG        -41.8027  -17.9008   14.6293 O.2       1 SER1        0.0000 
     44 CZ        -43.3394  -16.5040   14.1963 C.ar      5 PHE5        0.0000 
     45 OG        -41.8817  -16.6152   13.8606 O.2       1 SER1        0.0000 
     46 CZ        -41.9606  -15.3295   13.0920 C.ar      5 PHE5        0.0000 
     47 CA        -40.7397  -11.5837   10.4503 C.3       6 GLY6        0.0000 
     48 CZ        -39.2820  -11.6949   10.1146 C.ar      5 PHE5        0.0000 
     49 CZ        -37.8243  -11.8061    9.7789 C.ar      5 PHE5        0.0000 
     50 N         -40.8187  -10.2980    9.6817 N.2       2 ALA2        0.0000 
     51 N         -39.3609  -10.4093    9.3459 N.2       2 ALA2        0.0000 
     52 N         -37.9032  -10.5205    9.0102 N.2       2 ALA2        0.0000 
     53 N         -39.4399   -9.1236    8.5773 N.2       2 ALA2        0.0000 
     54 OG        -37.9822   -9.2348    8.2416 O.2       1 SER1        0.0000 
     55 NZ        -41.5370  -15.8505   15.1042 N.2       4 LYS4        0.0000 
     56 OG        -40.0792  -15.9617   14.7685 O.2       1 SER1        0.0000 
     57 CZ        -41.6159  -14.5649   14.3355 C.ar      5 PHE5        0.0000 
     58 CZ        -40.1582  -14.6761   13.9998 C.ar      5 PHE5        0.0000 
     59 CZ        -40.2371  -13.3904   13.2312 C.ar      5 PHE5        0.0000 
     60 CA        -40.3161  -12.1047   12.4625 C.3       6 GLY6        0.0000 
     61 CZ        -38.8583  -12.2159   12.1268 C.ar      5 PHE5        0.0000 
     62 CA        -40.3950  -10.8191   11.6939 C.3       6 GLY6        0.0000 
     63 N         -38.9373  -10.9303   11.3582 N.2       2 ALA2        0.0000 
     64 N         -40.4739   -9.5334   10.9252 N.2       2 ALA2        0.0000 
     65 N         -39.0162   -9.6446   10.5895 N.2       2 ALA2        0.0000 
     66 CA        -39.7345  -15.1971   16.0121 C.3       6 GLY6        0.0000 
     67 CA        -41.2712  -13.8002   15.5791 C.3       6 GLY6        0.0000 
     68 CZ        -39.8135  -13.9114   15.2434 C.ar      5 PHE5        0.0000 
     69 CZ        -38.3557  -14.0226   14.9077 C.ar      5 PHE5        0.0000 
     70 CA        -39.8924  -12.6257   14.4748 C.3       6 GLY6        0.0000 
     71 CZ        -38.4347  -12.7369   14.1391 C.ar      5 PHE5        0.0000 
     72 N         -39.9713  -11.3401   13.7061 N.2       2 ALA2        0.0000 
     73 N         -38.5136  -11.4513   13.3704 N.2       2 ALA2        0.0000 
     74 N         -38.5926  -10.1656   12.6017 N.2       2 ALA2        0.0000 
     75 CA        -39.4687  -13.1468   16.4870 C.3       6 GLY6        0.0000 
     76 N         -39.5477  -11.8611   15.7183 N.2       2 ALA2        0.0000 
     77 OG        -38.0900  -11.9723   15.3826 O.2       1 SER1        0.0000 
@<TRIPOS>BOND
@<TRIPOS>SUBSTRUCTURE
     1 SER1       14 GROUP   
     2 ALA2        2 GROUP   
     3 ASP3       41 GROUP   
     4 LYS4       42 GROUP   
     5 PHE5       11 GROUP   
     6 GLY6        1 GROUP   
     7 CUB7        8 GROUP   
@<TRIPOS>SET

