#    Name: 4buy_F37_1_INTS_M
#    Modification time : Tue Mar 25 08:27:10 2014

@<TRIPOS>MOLECULE
4buy_F37_1_INTS_M
   50     0     9     0     0
SMALL
NO_CHARGES


@<TRIPOS>ATOM
      1 O         -41.7530  -10.2345    5.8940 O.2       1 ALC1        0.0000 
      2 O         -40.4220  -10.9050    5.6020 O.2       7 ALL1        0.0000 
      3 O         -43.0840   -9.5640    6.1860 O.2       4 ALP1        0.0000 
      4 CA        -38.0035   -8.1755    4.8220 C.3       3 GLC5        0.0000 
      5 CA        -39.1780   -8.8860    6.0140 C.3       9 GLL5        0.0000 
      6 CA        -36.8290   -7.4650    3.6300 C.3       6 GLP5        0.0000 
      7 CA        -40.2580   -7.2030    6.4965 C.3       3 GLC5        0.0000 
      8 CA        -41.3380   -5.5200    6.9790 C.3       6 GLP5        0.0000 
      9 CA        -36.4650   -9.8285    7.7700 C.3       3 GLC5        0.0000 
     10 CA        -38.4820   -9.9780    8.6150 C.3       9 GLL5        0.0000 
     11 CA        -34.4480   -9.6790    6.9250 C.3       6 GLP5        0.0000 
     12 O         -37.1900  -10.3845   12.2625 O.2       1 ALC1        0.0000 
     13 O         -38.3130  -11.0700   12.7960 O.2       7 ALL1        0.0000 
     14 O         -36.0670   -9.6990   11.7290 O.2       4 ALP1        0.0000 
     15 N         -36.4385   -9.7490   14.6305 N.am      2 SEC2        0.0000 
     16 N         -37.5050  -10.6500   14.8970 N.am      8 SEL2        0.0000 
     17 N         -35.3720   -8.8480   14.3640 N.am      5 SEP2        0.0000 
     18 N         -36.9205  -10.6845   16.1695 N.am      2 SEC2        0.0000 
     19 N         -36.3360  -10.7190   17.4420 N.am      5 SEP2        0.0000 
     20 CA        -39.4695  -15.5925   16.2340 C.3       3 GLC5        0.0000 
     21 CA        -40.9340  -14.3660   15.4910 C.3       9 GLL5        0.0000 
     22 CA        -38.0050  -16.8190   16.9770 C.3       6 GLP5        0.0000 
     23 CA        -40.2040  -10.9110   16.8205 C.3       3 GLC5        0.0000 
     24 CA        -39.2950  -12.6180   16.0020 C.3       9 GLL5        0.0000 
     25 CA        -41.1130   -9.2040   17.6390 C.3       6 GLP5        0.0000 
     26 CA        -37.1305  -12.5225   16.2125 C.3       3 GLC5        0.0000 
     27 CA        -34.9660  -12.4270   16.4230 C.3       6 GLP5        0.0000 
     28 CA        -41.5998  -12.2435    8.9880 C.3       3 GLC5        0.0000 
     29 CA        -39.7970  -12.2590    9.5570 C.3       9 GLL5        0.0000 
     30 CA        -43.3980  -12.4050    9.0980 C.3       6 GLP5        0.0000 
     31 CA        -39.4102  -13.6835    7.6255 C.3       3 GLC5        0.0000 
     32 CA        -39.0190  -15.2850    6.3730 C.3       6 GLP5        0.0000 
     33 CA        -37.0583   -8.7585    9.4398 C.3       3 GLC5        0.0000 
     34 CA        -35.6310   -7.3830    9.5830 C.3       6 GLP5        0.0000 
     35 CA        -37.2172  -11.9620   10.8040 C.3       3 GLC5        0.0000 
     36 CA        -38.4890  -10.2900    9.9780 C.3       9 GLL5        0.0000 
     37 CA        -35.6380  -13.0600   11.3820 C.3       6 GLP5        0.0000 
     38 CA        -41.2108  -11.9567   14.0625 C.3       3 GLC5        0.0000 
     39 CA        -40.0440  -13.0480   13.6770 C.3       9 GLL5        0.0000 
     40 CA        -42.7920  -11.2380   13.9570 C.3       6 GLP5        0.0000 
     41 CA        -41.8462  -12.7270   14.3842 C.3       3 GLC5        0.0000 
     42 CA        -40.8670  -14.0660   14.1320 C.3       9 GLL5        0.0000 
     43 CA        -41.3062  -14.6630   17.8173 C.3       3 GLC5        0.0000 
     44 CA        -42.0640  -15.3290   19.6770 C.3       6 GLP5        0.0000 
     45 CA        -41.2605  -12.1805   15.0850 C.3       3 GLC5        0.0000 
     46 CA        -40.1630  -13.6280   16.4240 C.3       9 GLL5        0.0000 
     47 CA        -39.1235  -12.7845   17.9550 C.3       3 GLC5        0.0000 
     48 CA        -38.5180  -12.4460   19.6970 C.3       6 GLP5        0.0000 
     49 CA        -38.8505  -14.4360   17.1310 C.3       3 GLC5        0.0000 
     50 CA        -37.9720  -15.7490   18.0490 C.3       6 GLP5        0.0000 
@<TRIPOS>BOND
@<TRIPOS>SUBSTRUCTURE
     1 ALC1        1 GROUP        1 X    ALC  0     ROOT ALC X 1
     2 SEC2       15 GROUP        1 X    SEC  0     **** SEC X 2
     3 GLC5        4 GROUP        1 X    GLC  0     **** GLC X 6
     4 ALP1        3 GROUP        1 Y    ALP  0     ROOT ALP Y 8
     5 SEP2       17 GROUP        1 Y    SEP  0     **** SEP Y 9
     6 GLP5        6 GROUP        1 Y    GLP  0     **** GLP Y 13
     7 ALL1        2 GROUP        1 Z    ALL  0     ROOT ALL Z 15
     8 SEL2       16 GROUP        1 Z    SEL  0     **** SEL Z 16
     9 GLL5        5 GROUP        1 Z    GLL  0     **** GLL Z 20
@<TRIPOS>SET

