#    Name: 4buy_F37_1_ligand
#    Modification time : Tue Mar 25 08:27:10 2014

@<TRIPOS>MOLECULE
4buy_F37_1_ligand
   39    42     1     0     0
SMALL
NO_CHARGES


@<TRIPOS>ATOM
      1 O         -40.7960  -12.2950    3.8280 O.2       1 F372164     0.0000 
      2 C2        -40.0110  -11.6980    4.6050 C.2       1 F372164     0.0000 
      3 N1        -38.7080  -11.8960    4.4730 N.am      1 F372164     0.0000 
      4 C3        -38.2130  -11.1090    5.4330 C.2       1 F372164     0.0000 
      5 O1        -36.9680  -11.0580    5.6260 O.2       1 F372164     0.0000 
      6 N         -40.4220  -10.9050    5.6020 N.am      1 F372164     0.0000 
      7 C1        -39.2180  -10.3910    6.2420 C.3       1 F372164     0.0000 
      8 C         -39.1780   -8.8860    6.0140 C.3       1 F372164     0.0000 
      9 C4        -39.1720  -10.7480    7.7160 C.ar      1 F372164     0.0000 
     10 C5        -39.8060  -11.9050    8.1990 C.ar      1 F372164     0.0000 
     11 C6        -39.7970  -12.2590    9.5570 C.ar      1 F372164     0.0000 
     12 C9        -38.4820   -9.9780    8.6150 C.ar      1 F372164     0.0000 
     13 C8        -38.4890  -10.2900    9.9780 C.ar      1 F372164     0.0000 
     14 C7        -39.1040  -11.4380   10.4740 C.ar      1 F372164     0.0000 
     15 C10       -39.1040  -11.7630   11.9390 C.2       1 F372164     0.0000 
     16 N3        -38.3130  -11.0700   12.7960 N.am      1 F372164     0.0000 
     17 C17       -38.2900  -11.2720   14.1220 C.2       1 F372164     0.0000 
     18 O2        -37.5050  -10.6500   14.8970 O.2       1 F372164     0.0000 
     19 N2        -39.9560  -12.7330   12.3640 N.2       1 F372164     0.0000 
     20 C11       -40.0440  -13.0480   13.6770 C.ar      1 F372164     0.0000 
     21 C12       -39.2150  -12.3030   14.6590 C.ar      1 F372164     0.0000 
     22 C16       -40.8670  -14.0660   14.1320 C.ar      1 F372164     0.0000 
     23 C15       -40.9340  -14.3660   15.4910 C.ar      1 F372164     0.0000 
     24 C14       -40.1630  -13.6280   16.4240 C.ar      1 F372164     0.0000 
     25 C13       -39.2950  -12.6180   16.0020 C.ar      1 F372164     0.0000 
     26 H         -38.2487  -12.4401    3.8708 H         1 F372164     0.0000 
     27 H         -41.2846  -10.6814    5.8862 H         1 F372164     0.0000 
     28 H         -40.3015  -12.5233    7.5228 H         1 F372164     0.0000 
     29 H         -40.2800  -13.0918    9.8796 H         1 F372164     0.0000 
     30 H         -37.9451   -9.1525    8.2935 H         1 F372164     0.0000 
     31 H         -38.0180   -9.6411   10.6436 H         1 F372164     0.0000 
     32 H         -37.6724  -10.3200   12.3843 H         1 F372164     0.0000 
     33 H         -41.4354  -14.6075   13.4623 H         1 F372164     0.0000 
     34 H         -41.5398  -15.1211   15.8282 H         1 F372164     0.0000 
     35 H         -40.2505  -13.8466   17.4268 H         1 F372164     0.0000 
     36 H         -38.7229  -12.1169   16.6909 H         1 F372164     0.0000 
     37 H         -38.2874   -8.4980    6.2513 H         1 F372164     0.0000 
     38 H         -39.3552   -8.6503    5.0585 H         1 F372164     0.0000 
     39 H         -39.8621   -8.4085    6.5654 H         1 F372164     0.0000 
@<TRIPOS>BOND
     1    2    1 2    
     2    3    2 am   
     3    6    2 am   
     4    4    3 am   
     5   26    3 1    
     6    5    4 2    
     7    7    4 1    
     8    7    6 1    
     9   27    6 1    
    10    8    7 1    
    11    9    7 1    
    12   37    8 1    
    13   38    8 1    
    14   39    8 1    
    15   10    9 ar   
    16   12    9 ar   
    17   11   10 ar   
    18   28   10 1    
    19   14   11 ar   
    20   29   11 1    
    21   13   12 ar   
    22   30   12 1    
    23   14   13 ar   
    24   31   13 1    
    25   15   14 1    
    26   16   15 1    
    27   19   15 2    
    28   17   16 am   
    29   32   16 1    
    30   18   17 2    
    31   21   17 1    
    32   20   19 1    
    33   21   20 ar   
    34   22   20 ar   
    35   25   21 ar   
    36   23   22 ar   
    37   33   22 1    
    38   24   23 ar   
    39   34   23 1    
    40   25   24 ar   
    41   35   24 1    
    42   36   25 1    
@<TRIPOS>SUBSTRUCTURE
     1 F372164     1 GROUP   
@<TRIPOS>SET

