#    Name: 3G0C_2_CAVITY_N1_ALL.mol2
#    Modification time : Mon Mar 10 17:58:43 2014

@<TRIPOS>MOLECULE
3G0C_2_CAVITY_N1_ALL.mol2
   81     0     7     0     0
SMALL
NO_CHARGES


@<TRIPOS>ATOM
      1 NZ         -1.0792    7.7517   24.0043 N.2       4 LYS4        0.0000 
      2 CZ         -2.9287    5.1841   25.1163 C.ar      5 PHE5        0.0000 
      3 NZ         -2.3146    6.0276   24.0386 N.2       4 LYS4        0.0000 
      4 DU         -1.7005    6.8711   22.9610 H         7 CUB7        0.0000 
      5 NZ         -1.0863    7.7146   21.8833 N.2       4 LYS4        0.0000 
      6 O          -0.4722    8.5581   20.8057 O.2       2 ALA2        0.0000 
      7 CZ         -2.9358    5.1469   22.9953 C.ar      5 PHE5        0.0000 
      8 DU         -2.3217    5.9904   21.9176 H         7 CUB7        0.0000 
      9 DU         -1.7076    6.8339   20.8400 H         7 CUB7        0.0000 
     10 CZ         -3.5570    4.2663   21.9520 C.ar      5 PHE5        0.0000 
     11 OG         -2.9429    5.1098   20.8743 O.2       1 SER1        0.0000 
     12 OG          1.3596    6.0048   24.0267 O.2       1 SER1        0.0000 
     13 OG          1.9737    6.8483   22.9491 O.2       1 SER1        0.0000 
     14 N           2.5878    7.6918   21.8714 N.2       2 ALA2        0.0000 
     15 CZ          0.7383    5.1241   22.9834 C.ar      5 PHE5        0.0000 
     16 DU          1.3525    5.9676   21.9057 H         7 CUB7        0.0000 
     17 O           1.9666    6.8112   20.8281 O.2       2 ALA2        0.0000 
     18 OG          2.5807    7.6547   19.7504 O.2       1 SER1        0.0000 
     19 CZ         -0.4970    3.4000   23.0177 C.ar      5 PHE5        0.0000 
     20 OG          0.1171    4.2435   21.9401 O.2       1 SER1        0.0000 
     21 DU          0.7312    5.0870   20.8624 H         7 CUB7        0.0000 
     22 OG          1.3453    5.9305   19.7848 O.2       1 SER1        0.0000 
     23 OG          0.1100    4.2064   19.8191 O.2       1 SER1        0.0000 
     24 DU          0.7241    5.0499   18.7414 H         7 CUB7        0.0000 
     25 OG          1.3382    5.8934   17.6638 O.2       1 SER1        0.0000 
     26 CZ          0.1029    4.1692   17.6981 C.ar      5 PHE5        0.0000 
     27 DU          0.7170    5.0127   16.6204 H         7 CUB7        0.0000 
     28 CA          3.7912    4.2207   21.9282 C.3       6 GLY6        0.0000 
     29 NZ          0.1402    6.8782   24.0155 N.2       4 LYS4        0.0000 
     30 NZ          0.7543    7.7218   22.9379 N.2       4 LYS4        0.0000 
     31 CZ         -1.0952    5.1541   24.0498 C.ar      5 PHE5        0.0000 
     32 DU         -0.4811    5.9976   22.9722 H         7 CUB7        0.0000 
     33 NZ          0.1331    6.8411   21.8945 N.2       4 LYS4        0.0000 
     34 O           0.7472    7.6846   20.8169 O.2       2 ALA2        0.0000 
     35 CZ         -1.7164    4.2734   23.0065 C.ar      5 PHE5        0.0000 
     36 OG         -1.1023    5.1170   21.9289 O.2       1 SER1        0.0000 
     37 DU         -0.4882    5.9605   20.8512 H         7 CUB7        0.0000 
     38 DU          0.1260    6.8040   19.7735 H         7 CUB7        0.0000 
     39 OG         -1.7235    4.2363   20.8855 O.2       1 SER1        0.0000 
     40 OG         -1.1094    5.0798   19.8079 O.2       1 SER1        0.0000 
     41 DU         -0.4953    5.9233   18.7302 H         7 CUB7        0.0000 
     42 OG          3.8072    6.8183   21.8826 O.2       1 SER1        0.0000 
     43 CZ          1.9577    4.2507   22.9946 C.ar      5 PHE5        0.0000 
     44 OG          2.5718    5.0942   21.9169 O.2       1 SER1        0.0000 
     45 CA          3.1860    5.9377   20.8393 C.3       6 GLY6        0.0000 
     46 OG          1.3365    3.3700   21.9513 O.2       1 SER1        0.0000 
     47 CA          1.9506    4.2135   20.8736 C.3       6 GLY6        0.0000 
     48 CA          2.5647    5.0570   19.7960 C.3       6 GLY6        0.0000 
     49 CZ          1.3294    3.3329   19.8303 C.ar      5 PHE5        0.0000 
     50 CA          1.9435    4.1764   18.7526 C.3       6 GLY6        0.0000 
     51 CZ          1.3223    3.2958   17.7093 C.ar      5 PHE5        0.0000 
     52 O           3.1700    3.3401   20.8848 O.2       2 ALA2        0.0000 
     53 NZ         -3.5269    6.9382   26.1484 N.2       4 LYS4        0.0000 
     54 N          -2.9127    7.7817   25.0708 N.2       2 ALA2        0.0000 
     55 N          -2.2986    8.6252   23.9931 N.2       2 ALA2        0.0000 
     56 NZ         -1.6845    9.4687   22.9154 N.2       4 LYS4        0.0000 
     57 CZ         -4.1481    6.0575   25.1051 C.ar      5 PHE5        0.0000 
     58 DU         -3.5340    6.9010   24.0274 H         7 CUB7        0.0000 
     59 DU         -2.9199    7.7445   22.9498 H         7 CUB7        0.0000 
     60 DU         -2.3057    8.5881   21.8721 H         7 CUB7        0.0000 
     61 OD1        -1.6916    9.4316   20.7945 O.3       3 ASP3        0.0000 
     62 CZ         -4.7693    5.1769   24.0617 C.ar      5 PHE5        0.0000 
     63 CZ         -4.1552    6.0204   22.9841 C.ar      5 PHE5        0.0000 
     64 N          -6.5798    7.8416   27.2036 N.2       2 ALA2        0.0000 
     65 OG         -5.9657    8.6851   26.1260 O.2       1 SER1        0.0000 
     66 CA         -7.2010    6.9610   26.1603 C.3       6 GLY6        0.0000 
     67 OG         -6.5869    7.8045   25.0827 O.2       1 SER1        0.0000 
     68 OG         -5.9728    8.6480   24.0050 O.2       1 SER1        0.0000 
     69 CA         -7.8222    6.0803   25.1170 C.3       6 GLY6        0.0000 
     70 N          -5.3604    6.9681   27.2149 N.2       2 ALA2        0.0000 
     71 N          -4.7463    7.8116   26.1372 N.2       2 ALA2        0.0000 
     72 OG         -4.1321    8.6552   25.0595 O.2       1 SER1        0.0000 
     73 N          -3.5180    9.4987   23.9819 N.2       2 ALA2        0.0000 
     74 O          -2.9039   10.3422   22.9042 O.2       2 ALA2        0.0000 
     75 CZ         -5.3675    6.9310   25.0939 C.ar      5 PHE5        0.0000 
     76 OG         -4.7534    7.7745   24.0162 O.2       1 SER1        0.0000 
     77 OG         -4.1392    8.6180   22.9386 O.2       1 SER1        0.0000 
     78 CZ         -5.9887    6.0504   24.0505 C.ar      5 PHE5        0.0000 
     79 DU         -5.3746    6.8939   22.9729 H         7 CUB7        0.0000 
     80 O          -8.4204    7.8344   26.1491 O.2       2 ALA2        0.0000 
     81 OG         -7.8063    8.6779   25.0715 O.2       1 SER1        0.0000 
@<TRIPOS>BOND
@<TRIPOS>SUBSTRUCTURE
     1 SER1       11 GROUP   
     2 ALA2        6 GROUP   
     3 ASP3       61 GROUP   
     4 LYS4        1 GROUP   
     5 PHE5        2 GROUP   
     6 GLY6       28 GROUP   
     7 CUB7        4 GROUP   
@<TRIPOS>SET

