#    Name: 3g0c_RUF_2_INTS_M
#    Modification time : Tue Mar 25 06:55:38 2014

@<TRIPOS>MOLECULE
3g0c_RUF_2_INTS_M
   54     0     9     0     0
SMALL
NO_CHARGES


@<TRIPOS>ATOM
      1 CA         -2.5330    3.5265   18.1310 C.3       3 GLC5        0.0000 
      2 CA         -2.8110    5.7150   18.3790 C.3       9 GLL5        0.0000 
      3 CA         -2.2550    1.3380   17.8830 C.3       6 GLP5        0.0000 
      4 CA         -3.1165    4.0325   24.0440 C.3       3 GLC5        0.0000 
      5 CA         -1.9030    5.6510   23.7300 C.3       9 GLL5        0.0000 
      6 CA         -4.3300    2.4140   24.3580 C.3       6 GLP5        0.0000 
      7 CA         -0.8645    4.1635   24.6000 C.3       3 GLC5        0.0000 
      8 CA          0.1740    2.6760   25.4700 C.3       6 GLP5        0.0000 
      9 OD1         0.1805    9.0835   23.7570 O.co2     2 ASC3        0.0000 
     10 OD1        -0.8130    7.8570   24.0300 O.co2     8 ASL3        0.0000 
     11 OD1         1.1740   10.3100   23.4840 O.co2     5 ASP3        0.0000 
     12 OD1        -0.6325    7.4780   25.5570 O.co2     2 ASC3        0.0000 
     13 OD1        -0.4520    7.0990   27.0840 O.co2     5 ASP3        0.0000 
     14 OD1         0.4690    7.5320   25.5115 O.co2     2 ASC3        0.0000 
     15 OD1         1.7510    7.2070   26.9930 O.co2     5 ASP3        0.0000 
     16 CA          1.0005    9.1375   24.6920 C.3       3 GLC5        0.0000 
     17 CA          0.4980    7.2840   23.6550 C.3       9 GLL5        0.0000 
     18 CA          1.5030   10.9910   25.7290 C.3       6 GLP5        0.0000 
     19 CA          0.4625    4.6560   25.2590 C.3       3 GLC5        0.0000 
     20 CA          0.5500    5.7850   23.9620 C.3       9 GLL5        0.0000 
     21 CA          0.3750    3.5270   26.5560 C.3       6 GLP5        0.0000 
     22 CA          2.6090    1.9270   21.0060 C.3       3 GLC5        0.0000 
     23 CA          1.7650    3.6160   21.8590 C.3       9 GLL5        0.0000 
     24 CA          3.4530    0.2380   20.1530 C.3       6 GLP5        0.0000 
     25 CA          1.4230    2.6360   23.5420 C.3       3 GLC5        0.0000 
     26 CA          1.0810    1.6560   25.2250 C.3       6 GLP5        0.0000 
     27 CA          3.9735    1.6995   21.6340 C.3       3 GLC5        0.0000 
     28 CA          4.4940    3.1610   23.1150 C.3       9 GLL5        0.0000 
     29 CA          6.3760    2.8565   23.2375 C.3       3 GLC5        0.0000 
     30 CA          8.2580    2.5520   23.3600 C.3       6 GLP5        0.0000 
     31 CA          5.1770    1.4605   24.0990 C.3       3 GLC5        0.0000 
     32 CA          5.8600   -0.2400   25.0830 C.3       6 GLP5        0.0000 
     33 CA          4.5895    4.1495   24.7540 C.3       3 GLC5        0.0000 
     34 CA          4.6850    5.1380   26.3930 C.3       6 GLP5        0.0000 
     35 CA          3.3370    2.3165   24.5845 C.3       3 GLC5        0.0000 
     36 CA          2.1800    1.4720   26.0540 C.3       6 GLP5        0.0000 
     37 N           3.4660    2.5320   19.0540 N.am      1 SEC2        0.0000 
     38 N           1.9420    3.1130   18.9230 N.am      7 SEL2        0.0000 
     39 N           4.9900    1.9510   19.1850 N.am      4 SEP2        0.0000 
     40 CA          0.2185    1.7000   16.5380 C.3       3 GLC5        0.0000 
     41 CA          0.9920    3.3340   16.3810 C.3       9 GLL5        0.0000 
     42 CA         -0.5550    0.0660   16.6950 C.3       6 GLP5        0.0000 
     43 CA          3.7162    4.9247   19.9955 C.3       3 GLC5        0.0000 
     44 CA          2.7860    4.7300   21.7390 C.3       9 GLL5        0.0000 
     45 CA          4.8050    4.5260   18.5830 C.3       6 GLP5        0.0000 
     46 CA          4.4062    5.7020   19.9105 C.3       3 GLC5        0.0000 
     47 CA          3.3770    6.9550   20.9600 C.3       9 GLL5        0.0000 
     48 CA          4.7428    7.9550   20.0215 C.3       3 GLC5        0.0000 
     49 CA          5.4780    9.0320   18.8050 C.3       6 GLP5        0.0000 
     50 CA          6.4745    6.3765   22.0025 C.3       3 GLC5        0.0000 
     51 CA          4.6380    6.8010   21.5160 C.3       9 GLL5        0.0000 
     52 CA          8.1440    6.5410   22.1600 C.3       6 GLP5        0.0000 
     53 CA          4.6575    4.8190   20.4057 C.3       3 GLC5        0.0000 
     54 CA          4.9720    5.6230   22.1740 C.3       9 GLL5        0.0000 
@<TRIPOS>BOND
@<TRIPOS>SUBSTRUCTURE
     1 SEC2       37 GROUP        1 X    SEC  0     ROOT SEC X 2
     2 ASC3        9 GROUP        1 X    ASC  0     **** ASC X 3
     3 GLC5        1 GROUP        1 X    GLC  0     **** GLC X 6
     4 SEP2       39 GROUP        1 Y    SEP  0     ROOT SEP Y 9
     5 ASP3       11 GROUP        1 Y    ASP  0     **** ASP Y 10
     6 GLP5        3 GROUP        1 Y    GLP  0     **** GLP Y 13
     7 SEL2       38 GROUP        1 Z    SEL  0     ROOT SEL Z 16
     8 ASL3       10 GROUP        1 Z    ASL  0     **** ASL Z 17
     9 GLL5        2 GROUP        1 Z    GLL  0     **** GLL Z 20
@<TRIPOS>SET

