#    Name: 3g0c_RUF_2_ligand
#    Modification time : Tue Mar 25 06:55:38 2014

@<TRIPOS>MOLECULE
3g0c_RUF_2_ligand
   47    50     1     0     0
SMALL
NO_CHARGES


@<TRIPOS>ATOM
      1 C1         -2.8110    5.7150   18.3790 C.3       1 RUF800      0.0000 
      2 N2         -1.5410    5.0000   18.5370 N.am      1 RUF800      0.0000 
      3 C3         -0.9920    4.8410   19.8080 C.2       1 RUF800      0.0000 
      4 N4         -1.3700    5.2020   21.0370 N.2       1 RUF800      0.0000 
      5 C5         -0.4750    4.8380   21.9490 C.2       1 RUF800      0.0000 
      6 N6         -0.5890    5.0820   23.3240 N.3       1 RUF800      0.0000 
      7 C7         -1.9030    5.6510   23.7300 C.3       1 RUF800      0.0000 
      8 C8         -1.9800    7.1620   23.4460 C.3       1 RUF800      0.0000 
      9 N9         -0.8130    7.8570   24.0300 N.4       1 RUF800      0.0000 
     10 C10         0.4980    7.2840   23.6550 C.3       1 RUF800      0.0000 
     11 C11         0.5500    5.7850   23.9620 C.3       1 RUF800      0.0000 
     12 N12         0.5370    4.1750   21.2970 N.pl3     1 RUF800      0.0000 
     13 C13         1.7650    3.6160   21.8590 C.3       1 RUF800      0.0000 
     14 C14         2.7860    4.7300   21.7390 C.ar      1 RUF800      0.0000 
     15 C15         2.4690    5.9170   21.0770 C.ar      1 RUF800      0.0000 
     16 C16         3.3770    6.9550   20.9600 C.ar      1 RUF800      0.0000 
     17 C17         4.6380    6.8010   21.5160 C.ar      1 RUF800      0.0000 
     18 C18         4.9720    5.6230   22.1740 C.ar      1 RUF800      0.0000 
     19 C19         4.0480    4.6010   22.2830 C.ar      1 RUF800      0.0000 
     20 CL20        4.4940    3.1610   23.1150 Cl        1 RUF800      0.0000 
     21 C21         0.2280    4.1850   19.9400 C.2       1 RUF800      0.0000 
     22 C22         0.8750    3.6890   18.7940 C.2       1 RUF800      0.0000 
     23 O23         1.9420    3.1130   18.9230 O.2       1 RUF800      0.0000 
     24 N24         0.3060    3.8560   17.5750 N.am      1 RUF800      0.0000 
     25 C25         0.9920    3.3340   16.3810 C.3       1 RUF800      0.0000 
     26 C26        -0.8820    4.5120   17.4520 C.2       1 RUF800      0.0000 
     27 O27        -1.3780    4.6640   16.3430 O.2       1 RUF800      0.0000 
     28 H          -2.0705    5.4940   24.8012 H         1 RUF800      0.0000 
     29 H          -2.7155    5.1575   23.1855 H         1 RUF800      0.0000 
     30 H          -2.9091    7.5430   23.8738 H         1 RUF800      0.0000 
     31 H          -2.0120    7.3050   22.3643 H         1 RUF800      0.0000 
     32 H           1.3037    7.7778   24.2078 H         1 RUF800      0.0000 
     33 H           0.6850    7.4240   22.5854 H         1 RUF800      0.0000 
     34 H           1.4984    5.3883   23.5919 H         1 RUF800      0.0000 
     35 H           0.5209    5.6523   25.0461 H         1 RUF800      0.0000 
     36 H           2.1023    2.7698   21.2918 H         1 RUF800      0.0000 
     37 H           1.6400    3.3662   22.8951 H         1 RUF800      0.0000 
     38 H           1.5194    6.0200   20.6602 H         1 RUF800      0.0000 
     39 H           3.1248    7.8167   20.4747 H         1 RUF800      0.0000 
     40 H           5.3299    7.5605   21.4420 H         1 RUF800      0.0000 
     41 H           5.9134    5.5147   22.5810 H         1 RUF800      0.0000 
     42 H          -2.7502    6.6573   18.7083 H         1 RUF800      0.0000 
     43 H          -3.0970    5.7570   17.4217 H         1 RUF800      0.0000 
     44 H          -3.5511    5.2742   18.8869 H         1 RUF800      0.0000 
     45 H           1.8972    3.7426   16.2644 H         1 RUF800      0.0000 
     46 H           1.1216    2.3437   16.4304 H         1 RUF800      0.0000 
     47 H           0.4762    3.5208   15.5449 H         1 RUF800      0.0000 
@<TRIPOS>BOND
     1    2    1 1    
     2   42    1 1    
     3   43    1 1    
     4   44    1 1    
     5    3    2 1    
     6   26    2 am   
     7    4    3 1    
     8   21    3 2    
     9    5    4 2    
    10    6    5 1    
    11   12    5 1    
    12    7    6 1    
    13   11    6 1    
    14    8    7 1    
    15   28    7 1    
    16   29    7 1    
    17    9    8 1    
    18   30    8 1    
    19   31    8 1    
    20   10    9 1    
    21   11   10 1    
    22   32   10 1    
    23   33   10 1    
    24   34   11 1    
    25   35   11 1    
    26   13   12 1    
    27   21   12 1    
    28   14   13 1    
    29   36   13 1    
    30   37   13 1    
    31   15   14 ar   
    32   19   14 ar   
    33   16   15 ar   
    34   38   15 1    
    35   17   16 ar   
    36   39   16 1    
    37   18   17 ar   
    38   40   17 1    
    39   19   18 ar   
    40   41   18 1    
    41   20   19 1    
    42   22   21 1    
    43   23   22 2    
    44   24   22 am   
    45   25   24 1    
    46   26   24 am   
    47   45   25 1    
    48   46   25 1    
    49   47   25 1    
    50   27   26 2    
@<TRIPOS>SUBSTRUCTURE
     1 RUF800      1 GROUP   
@<TRIPOS>SET

