#    Name: 3ads_IMN_1_INTS_M
#    Modification time : Tue Mar 25 11:46:58 2014

@<TRIPOS>MOLECULE
3ads_IMN_1_INTS_M
   51     0     6     0     0
SMALL
NO_CHARGES


@<TRIPOS>ATOM
      1 CA         18.3810   65.7705   12.4045 C.3       2 GLC5        0.0000 
      2 CA         17.8170   65.4330   10.7950 C.3       6 GLL5        0.0000 
      3 CA         18.9450   66.1080   14.0140 C.3       4 GLP5        0.0000 
      4 CA         17.2045   66.3340    7.8570 C.3       2 GLC5        0.0000 
      5 CA         18.5880   67.1380    9.2120 C.3       6 GLL5        0.0000 
      6 CA         15.8210   65.5300    6.5020 C.3       4 GLP5        0.0000 
      7 CA         18.3530   64.5550   12.6420 C.3       2 GLC5        0.0000 
      8 CA         17.7610   63.0020   11.2700 C.3       6 GLL5        0.0000 
      9 CA         16.5875   61.6045   11.4425 C.3       2 GLC5        0.0000 
     10 CA         15.4140   60.2070   11.6150 C.3       4 GLP5        0.0000 
     11 CA         19.2315   62.0490   11.2350 C.3       2 GLC5        0.0000 
     12 CA         20.7020   61.0960   11.2000 C.3       4 GLP5        0.0000 
     13 CA         19.5470   71.2200    8.7530 C.3       2 GLC5        0.0000 
     14 CA         17.5910   71.0680    7.6520 C.3       6 GLL5        0.0000 
     15 CA         21.5030   71.3720    9.8540 C.3       4 GLP5        0.0000 
     16 CA         20.4720   71.2875    7.1635 C.3       2 GLC5        0.0000 
     17 CA         18.3580   71.7700    6.6590 C.3       6 GLL5        0.0000 
     18 CA         22.5860   70.8050    7.6680 C.3       4 GLP5        0.0000 
     19 CA         12.7270   69.5595    6.8565 C.3       2 GLC5        0.0000 
     20 CA         14.3290   69.8080    8.1250 C.3       6 GLL5        0.0000 
     21 CA         11.1250   69.3110    5.5880 C.3       4 GLP5        0.0000 
     22 CA         14.0995   66.9810    8.1035 C.3       2 GLC5        0.0000 
     23 CA         13.5780   67.6100   10.1310 C.3       6 GLL5        0.0000 
     24 CA         14.6210   66.3520    6.0760 C.3       4 GLP5        0.0000 
     25 N          12.7265   66.3990    7.8980 N.am      1 SEC2        0.0000 
     26 N          13.5940   65.4910    9.0300 N.am      5 SEL2        0.0000 
     27 N          11.8590   67.3070    6.7660 N.am      3 SEP2        0.0000 
     28 CA         19.6220   76.2890    8.3215 C.3       2 GLC5        0.0000 
     29 CA         18.1240   75.6110    7.8720 C.3       6 GLL5        0.0000 
     30 CA         21.1200   76.9670    8.7710 C.3       4 GLP5        0.0000 
     31 CA         17.1210   67.5871   11.8219 C.3       2 GLC5        0.0000 
     32 CA         17.2700   67.6780    9.1220 C.3       6 GLL5        0.0000 
     33 CA         17.6200   68.5110   13.5290 C.3       4 GLP5        0.0000 
     34 CA         16.2215   66.0966    8.3084 C.3       2 GLC5        0.0000 
     35 CA         16.5010   65.9500   10.7250 C.3       6 GLL5        0.0000 
     36 CA         20.3025   67.7745    9.4310 C.3       2 GLC5        0.0000 
     37 CA         21.8840   68.9650    9.2370 C.3       4 GLP5        0.0000 
     38 CA         18.8310   67.1755   11.4860 C.3       2 GLC5        0.0000 
     39 CA         18.9410   67.7670   13.3470 C.3       4 GLP5        0.0000 
     40 CA         19.5607   66.9355    8.0262 C.3       2 GLC5        0.0000 
     41 CA         18.8540   66.0300   10.0380 C.3       6 GLL5        0.0000 
     42 CA         20.7300   67.1520    6.4500 C.3       4 GLP5        0.0000 
     43 CA         13.7523   67.7058   11.7675 C.3       2 GLC5        0.0000 
     44 CA         14.9890   67.8430    9.5790 C.3       6 GLL5        0.0000 
     45 CA         13.2210   67.6850   13.6800 C.3       4 GLP5        0.0000 
     46 CA         19.5033   72.4633    4.8827 C.3       2 GLC5        0.0000 
     47 CA         20.5680   72.4590    3.0690 C.3       4 GLP5        0.0000 
     48 CA         17.0527   72.2597   10.4775 C.3       2 GLC5        0.0000 
     49 CA         17.1730   73.2200    8.7780 C.3       6 GLL5        0.0000 
     50 CA         17.0180   71.9990   12.2070 C.3       4 GLP5        0.0000 
     51 CA         14.6822   67.7096    7.3537 C.3       2 GLC5        0.0000 
@<TRIPOS>BOND
@<TRIPOS>SUBSTRUCTURE
     1 SEC2       25 GROUP        1 X    SEC  0     ROOT SEC X 2
     2 GLC5        1 GROUP        1 X    GLC  0     **** GLC X 6
     3 SEP2       27 GROUP        1 Y    SEP  0     ROOT SEP Y 9
     4 GLP5        3 GROUP        1 Y    GLP  0     **** GLP Y 13
     5 SEL2       26 GROUP        1 Z    SEL  0     ROOT SEL Z 16
     6 GLL5        2 GROUP        1 Z    GLL  0     **** GLL Z 20
@<TRIPOS>SET

