#    Name: 3ads_IMN_1_ligand
#    Modification time : Tue Mar 25 11:46:58 2014

@<TRIPOS>MOLECULE
3ads_IMN_1_ligand
   40    42     1     0     0
SMALL
NO_CHARGES


@<TRIPOS>ATOM
      1 C          17.2700   67.6780    9.1220 C.ar      1 IMN1        0.0000 
      2 C1         16.2160   67.0750    9.8870 C.ar      1 IMN1        0.0000 
      3 C2         16.5010   65.9500   10.7250 C.ar      1 IMN1        0.0000 
      4 C3         17.8170   65.4330   10.7950 C.ar      1 IMN1        0.0000 
      5 C4         18.8540   66.0300   10.0380 C.ar      1 IMN1        0.0000 
      6 C5         18.5880   67.1380    9.2120 C.ar      1 IMN1        0.0000 
      7 C6         17.7610   63.0020   11.2700 C.3       1 IMN1        0.0000 
      8 C7         14.9890   67.8430    9.5790 C.2       1 IMN1        0.0000 
      9 C8         15.3270   68.8100    8.6970 C.2       1 IMN1        0.0000 
     10 C9         17.4310   69.5610    7.5250 C.2       1 IMN1        0.0000 
     11 C10        17.5910   71.0680    7.6520 C.ar      1 IMN1        0.0000 
     12 C11        18.3580   71.7700    6.6590 C.ar      1 IMN1        0.0000 
     13 C12        18.5190   73.1650    6.7340 C.ar      1 IMN1        0.0000 
     14 C13        17.9270   73.8900    7.7880 C.ar      1 IMN1        0.0000 
     15 C14        17.1730   73.2200    8.7780 C.ar      1 IMN1        0.0000 
     16 C15        17.0020   71.8210    8.7180 C.ar      1 IMN1        0.0000 
     17 C16        14.3290   69.8080    8.1250 C.3       1 IMN1        0.0000 
     18 C17        13.5780   67.6100   10.1310 C.3       1 IMN1        0.0000 
     19 C18        12.9790   66.2720    9.7200 C.2       1 IMN1        0.0000 
     20 N          16.7090   68.7430    8.3990 N.am      1 IMN1        0.0000 
     21 O          18.0880   64.3570   11.5940 O.3       1 IMN1        0.0000 
     22 O1         17.9750   69.0140    6.5770 O.2       1 IMN1        0.0000 
     23 O2         13.5940   65.4910    9.0300 O.co2     1 IMN1        0.0000 
     24 O3         11.7430   65.9500   10.1310 O.co2     1 IMN1        0.0000 
     25 CL         18.1240   75.6110    7.8720 Cl        1 IMN1        0.0000 
     26 H          15.7519   65.5263   11.2684 H         1 IMN1        0.0000 
     27 H          19.8039   65.6498   10.0945 H         1 IMN1        0.0000 
     28 H          19.3413   67.5669    8.6671 H         1 IMN1        0.0000 
     29 H          18.7844   71.2382    5.8975 H         1 IMN1        0.0000 
     30 H          19.0668   73.6562    6.0227 H         1 IMN1        0.0000 
     31 H          16.7494   73.7535    9.5418 H         1 IMN1        0.0000 
     32 H          16.4588   71.3358    9.4316 H         1 IMN1        0.0000 
     33 H          12.9227   68.4220    9.7818 H         1 IMN1        0.0000 
     34 H          13.6134   67.6682   11.2292 H         1 IMN1        0.0000 
     35 H          18.2087   62.7033   10.4272 H         1 IMN1        0.0000 
     36 H          18.0424   62.3693   11.9915 H         1 IMN1        0.0000 
     37 H          16.7773   62.8785   11.1391 H         1 IMN1        0.0000 
     38 H          14.7635   70.4433    7.4866 H         1 IMN1        0.0000 
     39 H          13.5910   69.3518    7.6278 H         1 IMN1        0.0000 
     40 H          13.9023   70.3591    8.8421 H         1 IMN1        0.0000 
@<TRIPOS>BOND
     1    2    1 ar   
     2    6    1 ar   
     3   20    1 1    
     4    3    2 ar   
     5    8    2 1    
     6    4    3 ar   
     7   26    3 1    
     8    5    4 ar   
     9   21    4 1    
    10    6    5 ar   
    11   27    5 1    
    12   28    6 1    
    13   21    7 1    
    14   35    7 1    
    15   36    7 1    
    16   37    7 1    
    17    9    8 2    
    18   18    8 1    
    19   17    9 1    
    20   20    9 1    
    21   11   10 1    
    22   20   10 am   
    23   22   10 2    
    24   12   11 ar   
    25   16   11 ar   
    26   13   12 ar   
    27   29   12 1    
    28   14   13 ar   
    29   30   13 1    
    30   15   14 ar   
    31   25   14 1    
    32   16   15 ar   
    33   31   15 1    
    34   32   16 1    
    35   38   17 1    
    36   39   17 1    
    37   40   17 1    
    38   19   18 1    
    39   33   18 1    
    40   34   18 1    
    41   23   19 ar   
    42   24   19 ar   
@<TRIPOS>SUBSTRUCTURE
     1 IMN1        1 GROUP   
@<TRIPOS>SET

