#    Name: 4ixe_IXE_1_INTS_M
#    Modification time : Tue Mar 25 04:53:21 2014

@<TRIPOS>MOLECULE
4ixe_IXE_1_INTS_M
   57     0     9     0     0
SMALL
NO_CHARGES


@<TRIPOS>ATOM
      1 CA          9.1030   -0.1805   12.8805 C.3       3 GLC5        0.0000 
      2 CA         11.2420   -0.7760   12.7050 C.3       9 GLL5        0.0000 
      3 CA          6.9640    0.4150   13.0560 C.3       6 GLP5        0.0000 
      4 CA         10.4400   -2.2840   13.8820 C.3       3 GLC5        0.0000 
      5 CA          9.6380   -3.7920   15.0590 C.3       6 GLP5        0.0000 
      6 O           9.7785   -0.6065   14.5210 O.2       1 ALC1        0.0000 
      7 O          10.8720   -0.0630   13.7720 O.2       7 ALL1        0.0000 
      8 O           8.6850   -1.1500   15.2700 O.2       4 ALP1        0.0000 
      9 O          11.3940    0.9720   14.6230 O.2       1 ALC1        0.0000 
     10 O          11.9160    2.0070   15.4740 O.2       4 ALP1        0.0000 
     11 CA          8.8460   -2.2395   11.6315 C.3       3 GLC5        0.0000 
     12 CA         10.7670   -2.6080   11.3240 C.3       9 GLL5        0.0000 
     13 CA          6.9250   -1.8710   11.9390 C.3       6 GLP5        0.0000 
     14 CA         10.2025   -3.2000   13.1915 C.3       3 GLC5        0.0000 
     15 CA         11.8690   -4.2725   11.8255 C.3       3 GLC5        0.0000 
     16 CA         12.9710   -5.9370   12.3270 C.3       6 GLP5        0.0000 
     17 CA         10.4200   -1.5670    9.4115 C.3       3 GLC5        0.0000 
     18 CA         10.0730   -0.5260    7.4990 C.3       6 GLP5        0.0000 
     19 O           9.6545   -4.6985   12.3570 O.2       1 ALC1        0.0000 
     20 O          10.0340   -3.6870   11.0290 O.2       7 ALL1        0.0000 
     21 O           9.2750   -5.7100   13.6850 O.2       4 ALP1        0.0000 
     22 O          10.2380   -4.4300    9.8530 O.2       1 ALC1        0.0000 
     23 O          10.4420   -5.1730    8.6770 O.2       4 ALP1        0.0000 
     24 N          12.0615   -3.1865    9.5175 N.am      2 SEC2        0.0000 
     25 N          11.7650   -2.2670   10.4610 N.am      8 SEL2        0.0000 
     26 N          12.3580   -4.1060    8.5740 N.am      5 SEP2        0.0000 
     27 CA         14.7025   -1.7750   11.0995 C.3       3 GLC5        0.0000 
     28 CA         12.6010   -1.1940   10.7240 C.3       9 GLL5        0.0000 
     29 CA         16.8040   -2.3560   11.4750 C.3       6 GLP5        0.0000 
     30 CA         11.3370   -0.8600    9.1115 C.3       3 GLC5        0.0000 
     31 CA         15.3625    3.7415   14.0670 C.3       3 GLC5        0.0000 
     32 CA         15.2900    2.6910   12.5920 C.3       9 GLL5        0.0000 
     33 CA         15.4350    4.7920   15.5420 C.3       6 GLP5        0.0000 
     34 CA         15.0710    1.8230   14.2925 C.3       3 GLC5        0.0000 
     35 CA         14.8520    0.9550   15.9930 C.3       6 GLP5        0.0000 
     36 CA         18.9735    5.9420    9.7830 C.3       3 GLC5        0.0000 
     37 CA         18.5400    4.4980    8.8730 C.3       9 GLL5        0.0000 
     38 CA         19.4070    7.3860   10.6930 C.3       6 GLP5        0.0000 
     39 CA         19.6890    5.4805    8.4885 C.3       3 GLC5        0.0000 
     40 CA         20.8380    6.4630    8.1040 C.3       6 GLP5        0.0000 
     41 CA         17.0970    6.6595    6.0355 C.3       3 GLC5        0.0000 
     42 CA         16.6780    5.0630    6.8220 C.3       9 GLL5        0.0000 
     43 CA         17.5160    8.2560    5.2490 C.3       6 GLP5        0.0000 
     44 CA         12.4840    3.5430    7.8530 C.3       3 GLC5        0.0000 
     45 CA         14.1310    4.1110    6.9390 C.3       9 GLL5        0.0000 
     46 CA         10.8370    2.9750    8.7670 C.3       6 GLP5        0.0000 
     47 CA         15.5390   -0.8740   11.0385 C.3       3 GLC5        0.0000 
     48 CA         14.1890    1.0320   11.1370 C.3       9 GLL5        0.0000 
     49 CA         17.0290    5.3475   10.5140 C.3       3 GLC5        0.0000 
     50 CA         16.8290    3.2440   10.2000 C.3       9 GLL5        0.0000 
     51 CA         17.0560    7.0920   11.4020 C.3       6 GLP5        0.0000 
     52 CA         17.0188    6.3750    8.2828 C.3       3 GLC5        0.0000 
     53 CA         16.2810    4.2570    8.0050 C.3       9 GLL5        0.0000 
     54 CA         17.5580    8.0900    9.1520 C.3       6 GLP5        0.0000 
     55 CA         14.9082    6.0990    7.7188 C.3       3 GLC5        0.0000 
     56 CA         13.3370    7.5380    8.0240 C.3       6 GLP5        0.0000 
     57 CA         13.9545    5.7545    7.7480 C.3       3 GLC5        0.0000 
@<TRIPOS>BOND
@<TRIPOS>SUBSTRUCTURE
     1 ALC1        6 GROUP        1 X    ALC  0     ROOT ALC X 1
     2 SEC2       24 GROUP        1 X    SEC  0     **** SEC X 2
     3 GLC5        1 GROUP        1 X    GLC  0     **** GLC X 6
     4 ALP1        8 GROUP        1 Y    ALP  0     ROOT ALP Y 8
     5 SEP2       26 GROUP        1 Y    SEP  0     **** SEP Y 9
     6 GLP5        3 GROUP        1 Y    GLP  0     **** GLP Y 13
     7 ALL1        7 GROUP        1 Z    ALL  0     ROOT ALL Z 15
     8 SEL2       25 GROUP        1 Z    SEL  0     **** SEL Z 16
     9 GLL5        2 GROUP        1 Z    GLL  0     **** GLL Z 20
@<TRIPOS>SET

