#    Name: 4ixe_IXE_1_ligand
#    Modification time : Tue Mar 25 04:53:21 2014

@<TRIPOS>MOLECULE
4ixe_IXE_1_ligand
   34    36     1     0     0
SMALL
NO_CHARGES


@<TRIPOS>ATOM
      1 C3         13.1350    0.7750   12.0770 C.ar      1 IXE301      0.0000 
      2 C4         12.3570   -0.3690   11.8690 C.ar      1 IXE301      0.0000 
      3 C8         11.2420   -0.7760   12.7050 C.ar      1 IXE301      0.0000 
      4 N6         10.8720   -0.0630   13.7720 N.pl3     1 IXE301      0.0000 
      5 N5         10.5150   -1.8530   12.4200 N.ar      1 IXE301      0.0000 
      6 C7         10.7670   -2.6080   11.3240 C.ar      1 IXE301      0.0000 
      7 N4         10.0340   -3.6870   11.0290 N.pl3     1 IXE301      0.0000 
      8 N3         11.7650   -2.2670   10.4610 N.ar      1 IXE301      0.0000 
      9 C5         12.6010   -1.1940   10.7240 C.ar      1 IXE301      0.0000 
     10 N2         13.5820   -0.9080    9.8270 N.ar      1 IXE301      0.0000 
     11 C6         14.3590    0.1840   10.0670 C.ar      1 IXE301      0.0000 
     12 C2         14.1890    1.0320   11.1370 C.ar      1 IXE301      0.0000 
     13 N1         14.9950    2.1280   11.2600 N.pl3     1 IXE301      0.0000 
     14 C1         15.2900    2.6910   12.5920 C.3       1 IXE301      0.0000 
     15 C9         15.4780    2.8170   10.1790 C.ar      1 IXE301      0.0000 
     16 C10        16.8290    3.2440   10.2000 C.ar      1 IXE301      0.0000 
     17 C11        17.1750    3.9620    9.0520 C.ar      1 IXE301      0.0000 
     18 F1         18.5400    4.4980    8.8730 F         1 IXE301      0.0000 
     19 C12        16.2810    4.2570    8.0050 C.ar      1 IXE301      0.0000 
     20 F2         16.6780    5.0630    6.8220 F         1 IXE301      0.0000 
     21 C13        15.0130    3.8310    8.0050 C.ar      1 IXE301      0.0000 
     22 F3         14.1310    4.1110    6.9390 F         1 IXE301      0.0000 
     23 C14        14.6080    3.1420    9.1340 C.ar      1 IXE301      0.0000 
     24 H          12.9773    1.3981   12.8428 H         1 IXE301      0.0000 
     25 H          11.4215    0.7485   13.9711 H         1 IXE301      0.0000 
     26 H          10.0787   -0.4047   14.2760 H         1 IXE301      0.0000 
     27 H           9.6243   -4.1662   11.8052 H         1 IXE301      0.0000 
     28 H           9.9614   -3.9178   10.0587 H         1 IXE301      0.0000 
     29 H          15.1491    0.4002    9.3875 H         1 IXE301      0.0000 
     30 H          17.4354    3.0546   10.9316 H         1 IXE301      0.0000 
     31 H          13.6045    2.8475    9.2155 H         1 IXE301      0.0000 
     32 H          15.7435    2.0252   13.1845 H         1 IXE301      0.0000 
     33 H          15.8907    3.4883   12.5335 H         1 IXE301      0.0000 
     34 H          14.4585    2.9845   13.0636 H         1 IXE301      0.0000 
@<TRIPOS>BOND
     1    2    1 ar   
     2   12    1 ar   
     3   24    1 1    
     4    3    2 ar   
     5    9    2 ar   
     6    4    3 1    
     7    5    3 ar   
     8   25    4 1    
     9   26    4 1    
    10    6    5 ar   
    11    7    6 1    
    12    8    6 ar   
    13   27    7 1    
    14   28    7 1    
    15    9    8 ar   
    16   10    9 ar   
    17   11   10 ar   
    18   12   11 ar   
    19   29   11 1    
    20   13   12 1    
    21   14   13 1    
    22   15   13 1    
    23   32   14 1    
    24   33   14 1    
    25   34   14 1    
    26   16   15 ar   
    27   23   15 ar   
    28   17   16 ar   
    29   30   16 1    
    30   18   17 1    
    31   19   17 ar   
    32   20   19 1    
    33   21   19 ar   
    34   22   21 1    
    35   23   21 ar   
    36   31   23 1    
@<TRIPOS>SUBSTRUCTURE
     1 IXE301      1 GROUP   
@<TRIPOS>SET

