#    Name: 1n2e_APC_1_INTS_M
#    Modification time : Mon Apr  7 14:55:17 2014

@<TRIPOS>MOLECULE
1n2e_APC_1_INTS_M
   96     0    12     0     0
SMALL
NO_CHARGES


@<TRIPOS>ATOM
      1 NZ         39.6620   34.1860   41.8845 N.4       3 LYC4        0.0000 
      2 NZ         38.9060   35.1930   42.3040 N.4      11 LYL4        0.0000 
      3 NZ         41.4580   33.4030   40.6680 N.4       7 LYP4        0.0000 
      4 N          39.6620   34.1860   41.8845 N.am      2 SEC2        0.0000 
      5 N          38.9060   35.1930   42.3040 N.am     10 SEL2        0.0000 
      6 N          40.4180   33.1790   41.4650 N.am      6 SEP2        0.0000 
      7 N          38.7095   38.0465   43.6480 N.am      2 SEC2        0.0000 
      8 N          39.9350   37.5220   42.7200 N.am     10 SEL2        0.0000 
      9 N          37.4840   38.5710   44.5760 N.am      6 SEP2        0.0000 
     10 NZ         40.6160   35.6000   40.1760 N.4       3 LYC4        0.0000 
     11 NZ         39.6770   36.6480   40.3470 N.4      11 LYL4        0.0000 
     12 N          40.3245   37.7645   39.6835 N.am      2 SEC2        0.0000 
     13 N          39.6770   36.6480   40.3470 N.am     10 SEL2        0.0000 
     14 N          40.9720   38.8810   39.0200 N.am      6 SEP2        0.0000 
     15 N          40.6160   35.6000   40.1760 N.am      2 SEC2        0.0000 
     16 N          41.5550   34.5520   40.0050 N.am      6 SEP2        0.0000 
     17 NZ         36.3225   36.0495   38.9820 N.4       3 LYC4        0.0000 
     18 NZ         36.1270   37.5560   39.6060 N.4      11 LYL4        0.0000 
     19 NZ         36.5180   34.5430   38.3580 N.4       7 LYP4        0.0000 
     20 N          35.4570   38.2770   38.6805 N.am      2 SEC2        0.0000 
     21 N          36.1270   37.5560   39.6060 N.am     10 SEL2        0.0000 
     22 N          34.7870   38.9980   37.7550 N.am      6 SEP2        0.0000 
     23 N          37.2270   38.2790   39.1060 N.am      2 SEC2        0.0000 
     24 N          38.3270   39.0020   38.6060 N.am      6 SEP2        0.0000 
     25 NZ         36.2600   34.9760   39.5990 N.4       3 LYC4        0.0000 
     26 NZ         36.0020   35.4090   40.8400 N.4      11 LYL4        0.0000 
     27 N          36.2600   34.9760   39.5990 N.am      2 SEC2        0.0000 
     28 N          36.0020   35.4090   40.8400 N.am     10 SEL2        0.0000 
     29 N          36.5180   34.5430   38.3580 N.am      6 SEP2        0.0000 
     30 N          38.1440   38.3665   41.5405 N.am      2 SEC2        0.0000 
     31 N          37.5520   37.3080   41.7280 N.am     10 SEL2        0.0000 
     32 N          38.7360   39.4250   41.3530 N.am      6 SEP2        0.0000 
     33 N          33.2025   38.4535   45.3520 N.am      2 SEC2        0.0000 
     34 N          33.8250   37.9050   44.0220 N.am     10 SEL2        0.0000 
     35 N          32.5800   39.0020   46.6820 N.am      6 SEP2        0.0000 
     36 N          33.1640   38.4200   42.6675 N.am      2 SEC2        0.0000 
     37 N          32.5030   38.9350   41.3130 N.am      6 SEP2        0.0000 
     38 CA         33.0435   38.2115   41.4945 C.3       4 GLC5        0.0000 
     39 CA         34.9500   37.4950   41.8210 C.3      12 GLL5        0.0000 
     40 CA         31.1370   38.9280   41.1680 C.3       8 GLP5        0.0000 
     41 CA         31.1050   37.1985   44.6770 C.3       4 GLC5        0.0000 
     42 CA         31.8880   36.0710   43.1880 C.3      12 GLL5        0.0000 
     43 CA         30.3220   38.3260   46.1660 C.3       8 GLP5        0.0000 
     44 N          29.3615   32.2575   41.2685 N.am      2 SEC2        0.0000 
     45 N          30.0420   33.0080   42.3960 N.am     10 SEL2        0.0000 
     46 N          28.6810   31.5070   40.1410 N.am      6 SEP2        0.0000 
     47 O          29.1030   33.5915   43.1445 O.2       1 ALC1        0.0000 
     48 O          30.0420   33.0080   42.3960 O.2       9 ALL1        0.0000 
     49 O          28.1640   34.1750   43.8930 O.2       5 ALP1        0.0000 
     50 N          30.3370   31.8660   40.3215 N.am      2 SEC2        0.0000 
     51 N          31.9930   32.2250   40.5020 N.am     10 SEL2        0.0000 
     52 N          31.4930   30.8195   41.3215 N.am      2 SEC2        0.0000 
     53 N          30.9930   29.4140   42.1410 N.am      6 SEP2        0.0000 
     54 O          33.3940   32.0245   40.6355 O.2       1 ALC1        0.0000 
     55 O          31.9930   32.2250   40.5020 O.2       9 ALL1        0.0000 
     56 O          34.7950   31.8240   40.7690 O.2       5 ALP1        0.0000 
     57 CA         29.3375   34.8910   40.3625 C.3       4 GLC5        0.0000 
     58 CA         31.1980   34.5370   40.0900 C.3      12 GLL5        0.0000 
     59 CA         27.4770   35.2450   40.6350 C.3       8 GLP5        0.0000 
     60 N          35.1375   35.0305   37.9815 N.am      2 SEC2        0.0000 
     61 N          33.7570   35.5180   37.6050 N.am     10 SEL2        0.0000 
     62 CA         34.3520   34.1280   37.4550 C.3       4 GLC5        0.0000 
     63 CA         32.6850   35.0830   36.8170 C.3      12 GLL5        0.0000 
     64 CA         36.0190   33.1730   38.0930 C.3       8 GLP5        0.0000 
     65 CA         33.2890   33.1265   36.0235 C.3       4 GLC5        0.0000 
     66 CA         32.4910   34.9790   35.4210 C.3      12 GLL5        0.0000 
     67 CA         34.0870   31.2740   36.6260 C.3       8 GLP5        0.0000 
     68 CA         32.8965   33.4295   34.0235 C.3       4 GLC5        0.0000 
     69 CA         33.3020   31.8800   32.6260 C.3       8 GLP5        0.0000 
     70 CA         31.5230   35.7720   33.6785 C.3       4 GLC5        0.0000 
     71 CA         30.5550   36.5650   31.9360 C.3       8 GLP5        0.0000 
     72 O          33.4075   35.3395   33.0620 O.2       1 ALC1        0.0000 
     73 O          33.4240   35.3150   34.5430 O.2       9 ALL1        0.0000 
     74 O          33.3910   35.3640   31.5810 O.2       5 ALP1        0.0000 
     75 O          34.7350   35.6015   34.9745 O.2       1 ALC1        0.0000 
     76 O          36.0460   35.8880   35.4060 O.2       5 ALP1        0.0000 
     77 N          31.1285   34.3025   33.5685 N.am      2 SEC2        0.0000 
     78 N          31.2630   34.4950   34.9650 N.am     10 SEL2        0.0000 
     79 N          30.9940   34.1100   32.1720 N.am      6 SEP2        0.0000 
     80 CA         30.4560   36.1240   35.6045 C.3       4 GLC5        0.0000 
     81 CA         30.2730   34.1290   35.8320 C.3      12 GLL5        0.0000 
     82 CA         30.6390   38.1190   35.3770 C.3       8 GLP5        0.0000 
     83 CA         29.7125   32.7375   37.3085 C.3       4 GLC5        0.0000 
     84 CA         29.1520   31.3460   38.7850 C.3       8 GLP5        0.0000 
     85 CA         30.5530   32.9510   34.3380 C.3       4 GLC5        0.0000 
     86 CA         30.8330   31.7730   32.8440 C.3       8 GLP5        0.0000 
     87 CA         29.7270   35.2600   34.1975 C.3       4 GLC5        0.0000 
     88 CA         29.1810   36.3910   32.5630 C.3       8 GLP5        0.0000 
     89 CA         30.3775   33.0105   38.2030 C.3       4 GLC5        0.0000 
     90 CA         31.6030   34.6750   37.6210 C.3      12 GLL5        0.0000 
     91 CA         32.8450   32.9745   37.1235 C.3       4 GLC5        0.0000 
     92 CA         31.2752   37.2952   41.9570 C.3       4 GLC5        0.0000 
     93 CA         30.9390   35.2540   42.3040 C.3      12 GLL5        0.0000 
     94 CA         29.2900   34.8780   41.4660 C.3       4 GLC5        0.0000 
     95 CA         30.3635   32.7020   39.6600 C.3       4 GLC5        0.0000 
     96 CA         31.3672   36.4860   36.1235 C.3       4 GLC5        0.0000 
@<TRIPOS>BOND
@<TRIPOS>SUBSTRUCTURE
     1 ALC1       47 GROUP        1 X    ALC  0     ROOT ALC X 1
     2 SEC2        4 GROUP        1 X    SEC  0     **** SEC X 2
     3 LYC4        1 GROUP        1 X    LYC  0     **** LYC X 4
     4 GLC5       38 GROUP        1 X    GLC  0     **** GLC X 6
     5 ALP1       49 GROUP        1 Y    ALP  0     ROOT ALP Y 8
     6 SEP2        6 GROUP        1 Y    SEP  0     **** SEP Y 9
     7 LYP4        3 GROUP        1 Y    LYP  0     **** LYP Y 11
     8 GLP5       40 GROUP        1 Y    GLP  0     **** GLP Y 13
     9 ALL1       48 GROUP        1 Z    ALL  0     ROOT ALL Z 15
    10 SEL2        5 GROUP        1 Z    SEL  0     **** SEL Z 16
    11 LYL4        2 GROUP        1 Z    LYL  0     **** LYL Z 18
    12 GLL5       39 GROUP        1 Z    GLL  0     **** GLL Z 20
@<TRIPOS>SET

