#    Name: 1n2e_APC_1_ligand
#    Modification time : Mon Apr  7 14:55:17 2014

@<TRIPOS>MOLECULE
1n2e_APC_1_ligand
   45    47     1     0     0
SMALL
NO_CHARGES


@<TRIPOS>ATOM
      1 PG         39.0400   36.6440   41.7720 P.3       1 APC801      0.0000 
      2 O1G        38.9060   35.1930   42.3040 O.co2     1 APC801      0.0000 
      3 O2G        39.9350   37.5220   42.7200 O.co2     1 APC801      0.0000 
      4 O3G        39.6770   36.6480   40.3470 O.co2     1 APC801      0.0000 
      5 PB         36.1490   36.9170   41.0010 P.3       1 APC801      0.0000 
      6 O1B        36.1270   37.5560   39.6060 O.co2     1 APC801      0.0000 
      7 O2B        36.0020   35.4090   40.8400 O.co2     1 APC801      0.0000 
      8 O3B        37.5520   37.3080   41.7280 O.3       1 APC801      0.0000 
      9 PA         34.4970   36.8340   43.1730 P.3       1 APC801      0.0000 
     10 O1A        33.8250   37.9050   44.0220 O.co2     1 APC801      0.0000 
     11 O2A        35.6550   36.0940   43.7510 O.co2     1 APC801      0.0000 
     12 C3A        34.9500   37.4950   41.8210 C.3       1 APC801      0.0000 
     13 O5'        33.2870   35.7650   42.9290 O.3       1 APC801      0.0000 
     14 C5'        31.8880   36.0710   43.1880 C.3       1 APC801      0.0000 
     15 C4'        30.9390   35.2540   42.3040 C.3       1 APC801      0.0000 
     16 O4'        30.9820   35.6850   40.9060 O.3       1 APC801      0.0000 
     17 C3'        31.2670   33.7680   42.2900 C.3       1 APC801      0.0000 
     18 O3'        30.0420   33.0080   42.3960 O.3       1 APC801      0.0000 
     19 C2'        31.9520   33.5790   40.9800 C.3       1 APC801      0.0000 
     20 O2'        31.9930   32.2250   40.5020 O.3       1 APC801      0.0000 
     21 C1'        31.1980   34.5370   40.0900 C.3       1 APC801      0.0000 
     22 N9         32.0020   34.8450   38.9110 N.pl3     1 APC801      0.0000 
     23 C8         33.2750   35.3460   38.8100 C.2       1 APC801      0.0000 
     24 N7         33.7570   35.5180   37.6050 N.2       1 APC801      0.0000 
     25 C5         32.6850   35.0830   36.8170 C.ar      1 APC801      0.0000 
     26 C6         32.4910   34.9790   35.4210 C.ar      1 APC801      0.0000 
     27 N6         33.4240   35.3150   34.5430 N.pl3     1 APC801      0.0000 
     28 N1         31.2630   34.4950   34.9650 N.ar      1 APC801      0.0000 
     29 C2         30.2730   34.1290   35.8320 C.ar      1 APC801      0.0000 
     30 N3         30.3590   34.1830   37.1970 N.ar      1 APC801      0.0000 
     31 C4         31.6030   34.6750   37.6210 C.ar      1 APC801      0.0000 
     32 H          34.0510   37.5291   41.1415 H         1 APC801      0.0000 
     33 H          35.1659   38.5818   42.0297 H         1 APC801      0.0000 
     34 H          31.6794   37.1395   43.0094 H         1 APC801      0.0000 
     35 H          31.6288   35.8661   44.2406 H         1 APC801      0.0000 
     36 H          29.9250   35.3635   42.6791 H         1 APC801      0.0000 
     37 H          31.9454   33.5770   43.0809 H         1 APC801      0.0000 
     38 H          32.9626   34.0031   41.0907 H         1 APC801      0.0000 
     39 H          30.2734   34.0745   39.8223 H         1 APC801      0.0000 
     40 H          33.8032   35.5674   39.6622 H         1 APC801      0.0000 
     41 H          34.3706   35.2403   34.8566 H         1 APC801      0.0000 
     42 H          33.0973   35.6129   33.6461 H         1 APC801      0.0000 
     43 H          29.3542   33.7704   35.4106 H         1 APC801      0.0000 
     44 H          29.4347   33.5728   42.9547 H         1 APC801      0.0000 
     45 H          32.9579   31.9655   40.5424 H         1 APC801      0.0000 
@<TRIPOS>BOND
     1    2    1 ar   
     2    3    1 ar   
     3    4    1 ar   
     4    8    1 1    
     5    6    5 ar   
     6    7    5 ar   
     7    8    5 1    
     8   12    5 1    
     9   10    9 ar   
    10   11    9 ar   
    11   12    9 1    
    12   13    9 1    
    13   32   12 1    
    14   33   12 1    
    15   14   13 1    
    16   15   14 1    
    17   34   14 1    
    18   35   14 1    
    19   16   15 1    
    20   17   15 1    
    21   36   15 1    
    22   21   16 1    
    23   18   17 1    
    24   19   17 1    
    25   37   17 1    
    26   44   18 1    
    27   20   19 1    
    28   21   19 1    
    29   38   19 1    
    30   45   20 1    
    31   22   21 1    
    32   39   21 1    
    33   23   22 1    
    34   31   22 1    
    35   24   23 2    
    36   40   23 1    
    37   25   24 1    
    38   26   25 ar   
    39   31   25 ar   
    40   27   26 1    
    41   28   26 ar   
    42   41   27 1    
    43   42   27 1    
    44   29   28 ar   
    45   30   29 ar   
    46   43   29 1    
    47   31   30 ar   
@<TRIPOS>SUBSTRUCTURE
     1 APC801      1 GROUP   
@<TRIPOS>SET

