#    Name: 1yi4_ADN_1_INTS_M
#    Modification time : Tue Mar 25 11:04:46 2014

@<TRIPOS>MOLECULE
1yi4_ADN_1_INTS_M
   35     0     6     0     0
SMALL
NO_CHARGES


@<TRIPOS>ATOM
      1 CA        -17.3165   33.8825   -4.4060 C.3       2 GLC5        0.0000 
      2 CA        -17.6190   35.6600   -4.7220 C.3       6 GLL5        0.0000 
      3 CA        -17.0140   32.1050   -4.0900 C.3       4 GLP5        0.0000 
      4 CA        -17.0840   39.9100   -5.0625 C.3       2 GLC5        0.0000 
      5 CA        -18.2230   38.1280   -4.3440 C.3       6 GLL5        0.0000 
      6 CA        -15.9450   41.6920   -5.7810 C.3       4 GLP5        0.0000 
      7 CA        -16.8040   38.2060   -2.7705 C.3       2 GLC5        0.0000 
      8 CA        -15.3850   38.2840   -1.1970 C.3       4 GLP5        0.0000 
      9 CA        -22.1515   36.6635   -3.4565 C.3       2 GLC5        0.0000 
     10 CA        -20.2120   37.5950   -3.1290 C.3       6 GLL5        0.0000 
     11 CA        -24.0910   35.7320   -3.7840 C.3       4 GLP5        0.0000 
     12 CA        -19.4565   39.1475    3.5950 C.3       2 GLC5        0.0000 
     13 CA        -20.4010   38.7410    1.5950 C.3       6 GLL5        0.0000 
     14 CA        -18.5120   39.5540    5.5950 C.3       4 GLP5        0.0000 
     15 O         -21.0835   39.1235    3.7335 O.2       1 ALC1        0.0000 
     16 O         -19.9370   38.4870    2.8300 O.2       5 ALL1        0.0000 
     17 O         -22.2300   39.7600    4.6370 O.2       3 ALP1        0.0000 
     18 CA        -23.1025   38.4370   -0.6840 C.3       2 GLC5        0.0000 
     19 CA        -21.7940   39.9810    0.2510 C.3       6 GLL5        0.0000 
     20 CA        -24.4110   36.8930   -1.6190 C.3       4 GLP5        0.0000 
     21 CA        -23.5030   40.4410    0.8240 C.3       2 GLC5        0.0000 
     22 CA        -25.2120   40.9010    1.3970 C.3       4 GLP5        0.0000 
     23 CA        -21.8370   41.7360    1.4415 C.3       2 GLC5        0.0000 
     24 CA        -21.8800   43.4910    2.6320 C.3       4 GLP5        0.0000 
     25 CA        -20.1910   40.7900    0.0940 C.3       2 GLC5        0.0000 
     26 CA        -18.5880   41.5990   -0.0630 C.3       4 GLP5        0.0000 
     27 CA        -22.4525   37.6360   -1.1755 C.3       2 GLC5        0.0000 
     28 CA        -20.4940   38.3790   -0.7320 C.3       6 GLL5        0.0000 
     29 CA        -17.8760   39.8015   -2.9700 C.3       2 GLC5        0.0000 
     30 CA        -19.4830   38.7660   -3.7960 C.3       6 GLL5        0.0000 
     31 CA        -16.8990   41.1560   -1.8700 C.3       4 GLP5        0.0000 
     32 CA        -21.8000   37.5083    1.9143 C.3       2 GLC5        0.0000 
     33 CA        -19.9490   38.0360    0.5200 C.3       6 GLL5        0.0000 
     34 CA        -23.4250   36.6280    2.7710 C.3       4 GLP5        0.0000 
     35 CA        -19.4612   39.9914    0.0499 C.3       2 GLC5        0.0000 
@<TRIPOS>BOND
@<TRIPOS>SUBSTRUCTURE
     1 ALC1       15 GROUP        1 X    ALC  0     ROOT ALC X 1
     2 GLC5        1 GROUP        1 X    GLC  0     **** GLC X 6
     3 ALP1       17 GROUP        1 Y    ALP  0     ROOT ALP Y 8
     4 GLP5        3 GROUP        1 Y    GLP  0     **** GLP Y 13
     5 ALL1       16 GROUP        1 Z    ALL  0     ROOT ALL Z 15
     6 GLL5        2 GROUP        1 Z    GLL  0     **** GLL Z 20
@<TRIPOS>SET

