#    Name: 1yi4_ADN_1_ligand
#    Modification time : Tue Mar 25 11:04:46 2014

@<TRIPOS>MOLECULE
1yi4_ADN_1_ligand
   32    34     1     0     0
SMALL
NO_CHARGES


@<TRIPOS>ATOM
      1 O5'       -16.3390   36.2190   -4.8660 O.3       1 ADN306      0.0000 
      2 C5'       -17.6190   35.6600   -4.7220 C.3       1 ADN306      0.0000 
      3 C4'       -18.7110   36.7340   -4.7210 C.3       1 ADN306      0.0000 
      4 O4'       -19.7030   36.4240   -3.7590 O.3       1 ADN306      0.0000 
      5 C3'       -18.2230   38.1280   -4.3440 C.3       1 ADN306      0.0000 
      6 O3'       -17.7460   38.8290   -5.5060 O.3       1 ADN306      0.0000 
      7 C2'       -19.4830   38.7660   -3.7960 C.3       1 ADN306      0.0000 
      8 O2'       -20.2350   39.2390   -4.8800 O.3       1 ADN306      0.0000 
      9 C1'       -20.2120   37.5950   -3.1290 C.3       1 ADN306      0.0000 
     10 N9        -19.9130   37.5470   -1.6820 N.pl3     1 ADN306      0.0000 
     11 C8        -19.0640   36.7560   -0.9900 C.2       1 ADN306      0.0000 
     12 N7        -19.0390   37.0030    0.3370 N.2       1 ADN306      0.0000 
     13 C5        -19.9490   38.0360    0.5200 C.ar      1 ADN306      0.0000 
     14 C6        -20.4010   38.7410    1.5950 C.ar      1 ADN306      0.0000 
     15 N6        -19.9370   38.4870    2.8300 N.pl3     1 ADN306      0.0000 
     16 N1        -21.3200   39.7110    1.4790 N.ar      1 ADN306      0.0000 
     17 C2        -21.7940   39.9810    0.2510 C.ar      1 ADN306      0.0000 
     18 N3        -21.4180   39.3530   -0.8670 N.ar      1 ADN306      0.0000 
     19 C4        -20.4940   38.3790   -0.7320 C.ar      1 ADN306      0.0000 
     20 H         -17.7224   35.0908   -3.7778 H         1 ADN306      0.0000 
     21 H         -17.8601   34.9525   -5.5390 H         1 ADN306      0.0000 
     22 H         -19.1524   36.7912   -5.7067 H         1 ADN306      0.0000 
     23 H         -17.5184   38.0394   -3.5713 H         1 ADN306      0.0000 
     24 H         -19.2327   39.4721   -3.0797 H         1 ADN306      0.0000 
     25 H         -21.2532   37.7087   -3.3022 H         1 ADN306      0.0000 
     26 H         -18.5026   36.0486   -1.4239 H         1 ADN306      0.0000 
     27 H         -20.5909   38.6017    3.5779 H         1 ADN306      0.0000 
     28 H         -18.9792   38.2060    2.8910 H         1 ADN306      0.0000 
     29 H         -22.5318   40.7622    0.1645 H         1 ADN306      0.0000 
     30 H         -16.4999   37.1624   -5.1560 H         1 ADN306      0.0000 
     31 H         -17.2569   39.6235   -5.1462 H         1 ADN306      0.0000 
     32 H         -19.5682   39.3964   -5.6083 H         1 ADN306      0.0000 
@<TRIPOS>BOND
     1    2    1 1    
     2   30    1 1    
     3    3    2 1    
     4   20    2 1    
     5   21    2 1    
     6    4    3 1    
     7    5    3 1    
     8   22    3 1    
     9    9    4 1    
    10    6    5 1    
    11    7    5 1    
    12   23    5 1    
    13   31    6 1    
    14    8    7 1    
    15    9    7 1    
    16   24    7 1    
    17   32    8 1    
    18   10    9 1    
    19   25    9 1    
    20   11   10 1    
    21   19   10 1    
    22   12   11 2    
    23   26   11 1    
    24   13   12 1    
    25   14   13 ar   
    26   19   13 ar   
    27   15   14 1    
    28   16   14 ar   
    29   27   15 1    
    30   28   15 1    
    31   17   16 ar   
    32   18   17 ar   
    33   29   17 1    
    34   19   18 ar   
@<TRIPOS>SUBSTRUCTURE
     1 ADN306      1 GROUP   
@<TRIPOS>SET

