#    Name: 3f7b_AG5_2_INTS_M
#    Modification time : Tue Mar 25 03:19:20 2014

@<TRIPOS>MOLECULE
3f7b_AG5_2_INTS_M
   69     0    12     0     0
SMALL
NO_CHARGES


@<TRIPOS>ATOM
      1 N         -41.2050  -35.3995   -0.8065 N.am      2 SEC2        0.0000 
      2 N         -39.6980  -35.4840   -1.1860 N.am     10 SEL2        0.0000 
      3 N         -42.7120  -35.3150   -0.4270 N.am      6 SEP2        0.0000 
      4 O         -36.8375  -34.0095   -2.8490 O.2       1 ALC1        0.0000 
      5 O         -37.6870  -34.7610   -1.9500 O.2       9 ALL1        0.0000 
      6 O         -35.9880  -33.2580   -3.7480 O.2       5 ALP1        0.0000 
      7 CA        -35.8315  -34.2165   -2.2625 C.3       4 GLC5        0.0000 
      8 CA        -36.8810  -35.8020   -1.2840 C.3      12 GLL5        0.0000 
      9 CA        -34.7820  -32.6310   -3.2410 C.3       8 GLP5        0.0000 
     10 CA        -34.5815  -35.1005   -0.2800 C.3       4 GLC5        0.0000 
     11 CA        -36.6750  -35.5640    0.2420 C.3      12 GLL5        0.0000 
     12 CA        -32.4880  -34.6370   -0.8020 C.3       8 GLP5        0.0000 
     13 CA        -34.9750  -35.8675    1.3695 C.3       4 GLC5        0.0000 
     14 CA        -33.2750  -36.1710    2.4970 C.3       8 GLP5        0.0000 
     15 CA        -39.6325  -32.1755    1.6740 C.3       4 GLC5        0.0000 
     16 CA        -38.0990  -33.6390    0.9800 C.3      12 GLL5        0.0000 
     17 CA        -41.1660  -30.7120    2.3680 C.3       8 GLP5        0.0000 
     18 CA        -37.3095  -32.0330   -2.3660 C.3       4 GLC5        0.0000 
     19 CA        -39.3950  -32.3420   -2.6160 C.3      12 GLL5        0.0000 
     20 CA        -35.2240  -31.7240   -2.1160 C.3       8 GLP5        0.0000 
     21 CA        -43.0575  -33.5295   -3.5120 C.3       4 GLC5        0.0000 
     22 CA        -40.9190  -34.1720   -3.2850 C.3      12 GLL5        0.0000 
     23 CA        -45.1960  -32.8870   -3.7390 C.3       8 GLP5        0.0000 
     24 CA        -40.6060  -33.4270   -5.2565 C.3       4 GLC5        0.0000 
     25 CA        -40.2930  -32.6820   -7.2280 C.3       8 GLP5        0.0000 
     26 CA        -42.7680  -30.4420   -4.6860 C.3       4 GLC5        0.0000 
     27 CA        -41.3560  -32.0200   -4.0210 C.3      12 GLL5        0.0000 
     28 CA        -44.1800  -28.8640   -5.3510 C.3       8 GLP5        0.0000 
     29 N         -38.2850  -29.4305   -5.4070 N.am      2 SEC2        0.0000 
     30 N         -39.6010  -29.5160   -4.8580 N.am     10 SEL2        0.0000 
     31 N         -36.9690  -29.3450   -5.9560 N.am      6 SEP2        0.0000 
     32 O         -37.7465  -28.6355   -2.8695 O.2       1 ALC1        0.0000 
     33 O         -38.8050  -29.3890   -2.3610 O.2       9 ALL1        0.0000 
     34 O         -36.6880  -27.8820   -3.3780 O.2       5 ALP1        0.0000 
     35 Zn        -39.1585  -28.9070   -1.5795 Zn        3 ZIC7        0.0000 
     36 Zn        -38.8050  -29.3890   -2.3610 Zn       11 ZIL7        0.0000 
     37 Zn        -39.5120  -28.4250   -0.7980 Zn        7 ZIP7        0.0000 
     38 CA        -41.3975  -34.3130   -6.4060 C.3       4 GLC5        0.0000 
     39 CA        -42.5020  -35.9440   -5.5840 C.3      12 GLL5        0.0000 
     40 CA        -46.7960  -36.6740   -3.9905 C.3       4 GLC5        0.0000 
     41 CA        -44.9710  -36.6860   -4.5080 C.3      12 GLL5        0.0000 
     42 CA        -48.6210  -36.6620   -3.4730 C.3       8 GLP5        0.0000 
     43 CA        -45.9980  -36.3330   -2.8680 C.3       4 GLC5        0.0000 
     44 CA        -43.9160  -36.5350   -3.6140 C.3      12 GLL5        0.0000 
     45 CA        -48.0800  -36.1310   -2.1220 C.3       8 GLP5        0.0000 
     46 CA        -44.4350  -35.6085   -1.6630 C.3       4 GLC5        0.0000 
     47 CA        -44.9540  -34.6820    0.2880 C.3       8 GLP5        0.0000 
     48 CA        -35.7640  -32.7490   -0.6043 C.3       4 GLC5        0.0000 
     49 CA        -35.7510  -33.3870    1.0530 C.3      12 GLL5        0.0000 
     50 CA        -39.0392  -30.8220    1.7060 C.3       4 GLC5        0.0000 
     51 CA        -37.1150  -31.5420    1.6800 C.3      12 GLL5        0.0000 
     52 CA        -40.4080  -29.6970    1.8470 C.3       8 GLP5        0.0000 
     53 CA        -35.8525  -31.7660   -0.2613 C.3       4 GLC5        0.0000 
     54 CA        -34.8063  -33.3540    2.3511 C.3       4 GLC5        0.0000 
     55 CA        -35.8470  -32.0740    1.5070 C.3      12 GLL5        0.0000 
     56 CA        -33.5370  -33.7840    3.4950 C.3       8 GLP5        0.0000 
     57 CA        -37.0364  -31.8012    3.3235 C.3       4 GLC5        0.0000 
     58 CA        -37.3140  -31.5920    5.1110 C.3       8 GLP5        0.0000 
     59 CA        -42.5385  -31.5648   -2.8602 C.3       4 GLC5        0.0000 
     60 CA        -40.2300  -31.5210   -3.3620 C.3      12 GLL5        0.0000 
     61 CA        -44.2840  -31.3590   -2.0290 C.3       8 GLP5        0.0000 
     62 CA        -40.5430  -32.2263   -5.4597 C.3       4 GLC5        0.0000 
     63 CA        -43.8945  -34.4608   -4.3210 C.3       4 GLC5        0.0000 
     64 CA        -44.6990  -34.5830   -4.9488 C.3       4 GLC5        0.0000 
     65 CA        -43.5950  -36.1070   -6.4280 C.3      12 GLL5        0.0000 
     66 CA        -43.7019  -35.2021   -7.5617 C.3       4 GLC5        0.0000 
     67 CA        -44.8090  -36.4510   -5.8890 C.3      12 GLL5        0.0000 
     68 CA        -43.4750  -34.1660   -9.1760 C.3       8 GLP5        0.0000 
     69 CA        -44.8197  -34.7488   -3.9000 C.3       4 GLC5        0.0000 
@<TRIPOS>BOND
@<TRIPOS>SUBSTRUCTURE
     1 ALC1        4 GROUP        1 X    ALC  0     ROOT ALC X 1
     2 SEC2        1 GROUP        1 X    SEC  0     **** SEC X 2
     3 ZIC7       35 GROUP        1 X    ZIC  0     **** ZIC X 5
     4 GLC5        7 GROUP        1 X    GLC  0     **** GLC X 6
     5 ALP1        6 GROUP        1 Y    ALP  0     ROOT ALP Y 8
     6 SEP2        3 GROUP        1 Y    SEP  0     **** SEP Y 9
     7 ZIP7       37 GROUP        1 Y    ZIP  0     **** ZIP Y 12
     8 GLP5        9 GROUP        1 Y    GLP  0     **** GLP Y 13
     9 ALL1        5 GROUP        1 Z    ALL  0     ROOT ALL Z 15
    10 SEL2        2 GROUP        1 Z    SEL  0     **** SEL Z 16
    11 ZIL7       36 GROUP        1 Z    ZIL  0     **** ZIL Z 19
    12 GLL5        8 GROUP        1 Z    GLL  0     **** GLL Z 20
@<TRIPOS>SET

