#    Name: 3f7b_AG5_2_ligand
#    Modification time : Tue Mar 25 03:19:20 2014

@<TRIPOS>MOLECULE
3f7b_AG5_2_ligand
   46    48     1     0     0
SMALL
NO_CHARGES


@<TRIPOS>ATOM
      1 O14       -39.6980  -35.4840   -1.1860 O.2       1 AG5303      0.0000 
      2 C1        -39.0260  -34.7200   -1.8660 C.2       1 AG5303      0.0000 
      3 N15       -37.6870  -34.7610   -1.9500 N.am      1 AG5303      0.0000 
      4 C16       -36.8810  -35.8020   -1.2840 C.3       1 AG5303      0.0000 
      5 C17       -36.6750  -35.5640    0.2420 C.3       1 AG5303      0.0000 
      6 C18       -36.8570  -34.1610    0.7620 C.ar      1 AG5303      0.0000 
      7 C24       -38.0990  -33.6390    0.9800 C.ar      1 AG5303      0.0000 
      8 C25       -38.2260  -32.3520    1.4500 C.ar      1 AG5303      0.0000 
      9 C26       -37.1150  -31.5420    1.6800 C.ar      1 AG5303      0.0000 
     10 C27       -35.8470  -32.0740    1.5070 C.ar      1 AG5303      0.0000 
     11 C28       -35.7510  -33.3870    1.0530 C.ar      1 AG5303      0.0000 
     12 C6        -39.7670  -33.6990   -2.5830 C.ar      1 AG5303      0.0000 
     13 C7        -39.3950  -32.3420   -2.6160 C.ar      1 AG5303      0.0000 
     14 C5        -40.9190  -34.1720   -3.2850 C.ar      1 AG5303      0.0000 
     15 N4        -41.6460  -33.3120   -3.9680 N.ar      1 AG5303      0.0000 
     16 C3        -41.3560  -32.0200   -4.0210 C.ar      1 AG5303      0.0000 
     17 C2        -40.2300  -31.5210   -3.3620 C.ar      1 AG5303      0.0000 
     18 S8        -39.9990  -29.7980   -3.4860 S.o2      1 AG5303      0.0000 
     19 O11       -39.6010  -29.5160   -4.8580 O.2       1 AG5303      0.0000 
     20 O12       -41.2180  -29.2030   -2.9970 O.2       1 AG5303      0.0000 
     21 N9        -38.8050  -29.3890   -2.3610 N.pl3     1 AG5303      0.0000 
     22 S10       -41.2890  -35.9450   -3.2080 S.3       1 AG5303      0.0000 
     23 C13       -42.6840  -36.1250   -4.2220 C.ar      1 AG5303      0.0000 
     24 C19       -42.5020  -35.9440   -5.5840 C.ar      1 AG5303      0.0000 
     25 C20       -43.5950  -36.1070   -6.4280 C.ar      1 AG5303      0.0000 
     26 C21       -44.8090  -36.4510   -5.8890 C.ar      1 AG5303      0.0000 
     27 C22       -44.9710  -36.6860   -4.5080 C.ar      1 AG5303      0.0000 
     28 C23       -43.9160  -36.5350   -3.6140 C.ar      1 AG5303      0.0000 
     29 H         -37.1442  -34.0561   -2.4928 H         1 AG5303      0.0000 
     30 H         -35.8788  -35.8727   -1.7450 H         1 AG5303      0.0000 
     31 H         -37.3528  -36.7947   -1.4022 H         1 AG5303      0.0000 
     32 H         -35.6494  -35.9261    0.5019 H         1 AG5303      0.0000 
     33 H         -37.3676  -36.2539    0.7850 H         1 AG5303      0.0000 
     34 H         -38.9440  -34.2040    0.7944 H         1 AG5303      0.0000 
     35 H         -39.1749  -31.9653    1.6416 H         1 AG5303      0.0000 
     36 H         -37.2376  -30.5705    1.9719 H         1 AG5303      0.0000 
     37 H         -35.0161  -31.5287    1.7033 H         1 AG5303      0.0000 
     38 H         -34.7951  -33.8016    0.9283 H         1 AG5303      0.0000 
     39 H         -38.5936  -32.0062   -2.1383 H         1 AG5303      0.0000 
     40 H         -41.9506  -31.3471   -4.5482 H         1 AG5303      0.0000 
     41 H         -37.9813  -28.9588   -2.7304 H         1 AG5303      0.0000 
     42 H         -41.5881  -35.6969   -5.9607 H         1 AG5303      0.0000 
     43 H         -43.4866  -35.9701   -7.4382 H         1 AG5303      0.0000 
     44 H         -45.6444  -36.5454   -6.5036 H         1 AG5303      0.0000 
     45 H         -45.9020  -36.9780   -4.1587 H         1 AG5303      0.0000 
     46 H         -43.9868  -36.6902   -2.6483 H         1 AG5303      0.0000 
@<TRIPOS>BOND
     1    2    1 2    
     2    3    2 am   
     3   12    2 1    
     4    4    3 1    
     5   29    3 1    
     6    5    4 1    
     7   30    4 1    
     8   31    4 1    
     9    6    5 1    
    10   32    5 1    
    11   33    5 1    
    12    7    6 ar   
    13   11    6 ar   
    14    8    7 ar   
    15   34    7 1    
    16    9    8 ar   
    17   35    8 1    
    18   10    9 ar   
    19   36    9 1    
    20   11   10 ar   
    21   37   10 1    
    22   38   11 1    
    23   13   12 ar   
    24   14   12 ar   
    25   17   13 ar   
    26   39   13 1    
    27   15   14 ar   
    28   22   14 1    
    29   16   15 ar   
    30   17   16 ar   
    31   40   16 1    
    32   18   17 1    
    33   19   18 2    
    34   20   18 2    
    35   21   18 1    
    36   41   21 1    
    37   23   22 1    
    38   24   23 ar   
    39   28   23 ar   
    40   25   24 ar   
    41   42   24 1    
    42   26   25 ar   
    43   43   25 1    
    44   27   26 ar   
    45   44   26 1    
    46   28   27 ar   
    47   45   27 1    
    48   46   28 1    
@<TRIPOS>SUBSTRUCTURE
     1 AG5303      1 GROUP   
@<TRIPOS>SET

