#    Name: 2o2s_TCL_2_INTS_M
#    Modification time : Tue Mar 25 21:56:06 2014

@<TRIPOS>MOLECULE
2o2s_TCL_2_INTS_M
   59     0     9     0     0
SMALL
NO_CHARGES


@<TRIPOS>ATOM
      1 CA         -8.7495   68.8445   16.5930 C.3       3 GLC5        0.0000 
      2 CA         -7.4210   69.0640   15.1150 C.3       9 GLL5        0.0000 
      3 CA        -10.0780   68.6250   18.0710 C.3       6 GLP5        0.0000 
      4 CA         -3.6910   67.3285   14.1065 C.3       3 GLC5        0.0000 
      5 CA         -5.5360   68.2740   13.7880 C.3       9 GLL5        0.0000 
      6 CA         -1.8460   66.3830   14.4250 C.3       6 GLP5        0.0000 
      7 CA         -9.3055   69.4465   11.3135 C.3       3 GLC5        0.0000 
      8 CA         -7.7360   70.8380   11.0110 C.3       9 GLL5        0.0000 
      9 CA        -10.8750   68.0550   11.6160 C.3       6 GLP5        0.0000 
     10 CA         -6.1055   74.5980   12.3525 C.3       3 GLC5        0.0000 
     11 CA         -6.9180   73.0920   11.1100 C.3       9 GLL5        0.0000 
     12 CA         -5.2930   76.1040   13.5950 C.3       6 GLP5        0.0000 
     13 CA         -5.7665   68.0725   18.1845 C.3       3 GLC5        0.0000 
     14 CA         -5.2370   67.9590   16.4000 C.3       9 GLL5        0.0000 
     15 CA         -6.2960   68.1860   19.9690 C.3       6 GLP5        0.0000 
     16 CA         -4.6460   65.9470   16.5455 C.3       3 GLC5        0.0000 
     17 CA         -4.0550   63.9350   16.6910 C.3       6 GLP5        0.0000 
     18 CA         -3.9355   69.4465   16.7490 C.3       3 GLC5        0.0000 
     19 CA         -2.6340   70.9340   17.0980 C.3       6 GLP5        0.0000 
     20 CA         -3.5415   67.1710   15.4125 C.3       3 GLC5        0.0000 
     21 CA         -6.6125   66.7690   15.6825 C.3       3 GLC5        0.0000 
     22 CA         -7.9880   65.5790   14.9650 C.3       6 GLP5        0.0000 
     23 CA         -8.9500   75.1105    8.3370 C.3       3 GLC5        0.0000 
     24 CA         -7.1640   74.9070    9.0500 C.3       9 GLL5        0.0000 
     25 CA        -10.7360   75.3140    7.6240 C.3       6 GLP5        0.0000 
     26 CA         -8.2470   76.4260    9.5155 C.3       3 GLC5        0.0000 
     27 CA         -9.3300   77.9450    9.9810 C.3       6 GLP5        0.0000 
     28 CA         -5.7290   75.9615   10.2480 C.3       3 GLC5        0.0000 
     29 CA         -4.2940   77.0160   11.4460 C.3       6 GLP5        0.0000 
     30 CA        -10.6165   70.8915    9.3645 C.3       3 GLC5        0.0000 
     31 CA         -9.0390   69.8620    8.7370 C.3       9 GLL5        0.0000 
     32 CA        -12.1940   71.9210    9.9920 C.3       6 GLP5        0.0000 
     33 CA         -7.5540   69.7145    7.8560 C.3       3 GLC5        0.0000 
     34 CA         -6.0690   69.5670    6.9750 C.3       6 GLP5        0.0000 
     35 CA         -9.3180   69.1655    7.2370 C.3       3 GLC5        0.0000 
     36 CA         -9.5970   68.4690    5.7370 C.3       6 GLP5        0.0000 
     37 N         -10.3935   69.5285   13.1795 N.am      2 SEC2        0.0000 
     38 N          -9.3020   70.0110   13.9850 N.am      8 SEL2        0.0000 
     39 N         -11.4850   69.0460   12.3740 N.am      5 SEP2        0.0000 
     40 O          -9.6600   70.9460   14.7125 O.2       1 ALC1        0.0000 
     41 O          -9.3020   70.0110   13.9850 O.2       7 ALL1        0.0000 
     42 O         -10.0180   71.8810   15.4400 O.2       4 ALP1        0.0000 
     43 CA         -9.3110   68.6955   12.4675 C.3       3 GLC5        0.0000 
     44 CA         -8.0910   69.4530   13.9610 C.3       9 GLL5        0.0000 
     45 CA         -4.4407   67.9835   12.0648 C.3       3 GLC5        0.0000 
     46 CA         -6.1610   68.6540   12.6230 C.3       9 GLL5        0.0000 
     47 CA         -3.0330   67.5030   10.9240 C.3       6 GLP5        0.0000 
     48 CA         -9.2108   74.0800    8.5365 C.3       3 GLC5        0.0000 
     49 CA         -8.0020   72.3630    9.0810 C.3       9 GLL5        0.0000 
     50 CA         -8.6397   73.3335   11.0755 C.3       3 GLC5        0.0000 
     51 CA         -9.5940   73.8210   12.7020 C.3       6 GLP5        0.0000 
     52 CA        -10.1438   71.8317    9.6783 C.3       3 GLC5        0.0000 
     53 CA         -7.0813   70.6548    8.1697 C.3       3 GLC5        0.0000 
     54 CA         -8.1850   71.1220    9.6480 C.3       9 GLL5        0.0000 
     55 CA         -8.7772   72.4005   11.5158 C.3       3 GLC5        0.0000 
     56 CA         -8.3030   73.1453   12.0565 C.3       3 GLC5        0.0000 
     57 CA         -7.1060   71.8470   11.7120 C.3       9 GLL5        0.0000 
     58 CA         -5.1585   72.3922   11.8990 C.3       3 GLC5        0.0000 
     59 CA         -3.3050   72.3150   12.3870 C.3       6 GLP5        0.0000 
@<TRIPOS>BOND
@<TRIPOS>SUBSTRUCTURE
     1 ALC1       40 GROUP        1 X    ALC  0     ROOT ALC X 1
     2 SEC2       37 GROUP        1 X    SEC  0     **** SEC X 2
     3 GLC5        1 GROUP        1 X    GLC  0     **** GLC X 6
     4 ALP1       42 GROUP        1 Y    ALP  0     ROOT ALP Y 8
     5 SEP2       39 GROUP        1 Y    SEP  0     **** SEP Y 9
     6 GLP5        3 GROUP        1 Y    GLP  0     **** GLP Y 13
     7 ALL1       41 GROUP        1 Z    ALL  0     ROOT ALL Z 15
     8 SEL2       38 GROUP        1 Z    SEL  0     **** SEL Z 16
     9 GLL5        2 GROUP        1 Z    GLL  0     **** GLL Z 20
@<TRIPOS>SET

