#    Name: 2o2s_TCL_2_ligand
#    Modification time : Tue Mar 25 21:56:06 2014

@<TRIPOS>MOLECULE
2o2s_TCL_2_ligand
   24    25     1     0     0
SMALL
NO_CHARGES


@<TRIPOS>ATOM
      1 C1         -7.4210   69.0640   15.1150 C.ar      1 TCL706      0.0000 
      2 C2         -6.1620   68.4830   14.9940 C.ar      1 TCL706      0.0000 
      3 C6         -8.0910   69.4530   13.9610 C.ar      1 TCL706      0.0000 
      4 C5         -7.4030   69.2190   12.6770 C.ar      1 TCL706      0.0000 
      5 C4         -6.1610   68.6540   12.6230 C.ar      1 TCL706      0.0000 
      6 C3         -5.5360   68.2740   13.7880 C.ar      1 TCL706      0.0000 
      7 C11        -7.3690   73.3290    9.8170 C.ar      1 TCL706      0.0000 
      8 C10        -8.0020   72.3630    9.0810 C.ar      1 TCL706      0.0000 
      9 C9         -8.1850   71.1220    9.6480 C.ar      1 TCL706      0.0000 
     10 C8         -7.7360   70.8380   11.0110 C.ar      1 TCL706      0.0000 
     11 C12        -6.9180   73.0920   11.1100 C.ar      1 TCL706      0.0000 
     12 C13        -7.1060   71.8470   11.7120 C.ar      1 TCL706      0.0000 
     13 O7         -7.9700   69.5890   11.5100 O.3       1 TCL706      0.0000 
     14 CL14       -5.2370   67.9590   16.4000 Cl        1 TCL706      0.0000 
     15 CL15       -7.1640   74.9070    9.0500 Cl        1 TCL706      0.0000 
     16 CL16       -9.0390   69.8620    8.7370 Cl        1 TCL706      0.0000 
     17 O17        -9.3020   70.0110   13.9850 O.3       1 TCL706      0.0000 
     18 H          -7.8428   69.2012   16.0327 H         1 TCL706      0.0000 
     19 H          -5.6901   68.5110   11.7156 H         1 TCL706      0.0000 
     20 H          -4.6039   67.8352   13.7565 H         1 TCL706      0.0000 
     21 H          -8.3323   72.5558    8.1319 H         1 TCL706      0.0000 
     22 H          -6.4390   73.8424   11.6323 H         1 TCL706      0.0000 
     23 H          -6.7753   71.6890   12.6709 H         1 TCL706      0.0000 
     24 H          -9.4040   70.3680   14.9136 H         1 TCL706      0.0000 
@<TRIPOS>BOND
     1    2    1 ar   
     2    3    1 ar   
     3   18    1 1    
     4    6    2 ar   
     5   14    2 1    
     6    4    3 ar   
     7   17    3 1    
     8    5    4 ar   
     9   13    4 1    
    10    6    5 ar   
    11   19    5 1    
    12   20    6 1    
    13    8    7 ar   
    14   11    7 ar   
    15   15    7 1    
    16    9    8 ar   
    17   21    8 1    
    18   10    9 ar   
    19   16    9 1    
    20   12   10 ar   
    21   13   10 1    
    22   12   11 ar   
    23   22   11 1    
    24   23   12 1    
    25   24   17 1    
@<TRIPOS>SUBSTRUCTURE
     1 TCL706      1 GROUP   
@<TRIPOS>SET

