#    Name: 4kp4_ANP_1_INTS_M
#    Modification time : Tue Mar 25 08:15:17 2014

@<TRIPOS>MOLECULE
4kp4_ANP_1_INTS_M
   82     0    15     0     0
SMALL
NO_CHARGES


@<TRIPOS>ATOM
      1 N         -41.3980   37.6770   -0.9595 N.am      2 SEC2        0.0000 
      2 N         -41.1080   36.1180   -0.6530 N.am     12 SEL2        0.0000 
      3 N         -41.6880   39.2360   -1.2660 N.am      7 SEP2        0.0000 
      4 N         -39.6450   35.7175   -0.6250 N.am      2 SEC2        0.0000 
      5 N         -38.1820   35.3170   -0.5970 N.am      7 SEP2        0.0000 
      6 N         -39.7660   36.9780    0.0275 N.am      2 SEC2        0.0000 
      7 N         -38.4240   37.8380    0.7080 N.am      7 SEP2        0.0000 
      8 NZ        -43.0915   36.5480    2.3470 N.4       3 LYC4        0.0000 
      9 NZ        -42.1260   37.0840    1.5180 N.4      13 LYL4        0.0000 
     10 NZ        -45.3330   36.3050    2.9430 N.4       8 LYP4        0.0000 
     11 Zn        -41.7530   37.2300    2.6670 Zn        4 ZIC7        0.0000 
     12 Zn        -42.1260   37.0840    1.5180 Zn       14 ZIL7        0.0000 
     13 Zn        -41.3800   37.3760    3.8160 Zn        9 ZIP7        0.0000 
     14 N         -43.0915   36.5480    2.3470 N.am      2 SEC2        0.0000 
     15 N         -42.1260   37.0840    1.5180 N.am     12 SEL2        0.0000 
     16 N         -44.0570   36.0120    3.1760 N.am      7 SEP2        0.0000 
     17 NZ        -44.5970   36.5410    0.8730 N.4       3 LYC4        0.0000 
     18 NZ        -43.5650   35.9790   -0.1780 N.4      13 LYL4        0.0000 
     19 N         -44.5970   36.5410    0.8730 N.am      2 SEC2        0.0000 
     20 N         -43.5650   35.9790   -0.1780 N.am     12 SEL2        0.0000 
     21 N         -45.6290   37.1030    1.9240 N.am      7 SEP2        0.0000 
     22 N         -43.2165   35.5665   -1.4050 N.am      2 SEC2        0.0000 
     23 N         -42.8680   35.1540   -2.6320 N.am      7 SEP2        0.0000 
     24 NZ        -41.9735   31.4040    1.8710 N.4       3 LYC4        0.0000 
     25 NZ        -41.0510   32.7840    2.6200 N.4      13 LYL4        0.0000 
     26 NZ        -42.8960   30.0240    1.1220 N.4       8 LYP4        0.0000 
     27 NZ        -43.5065   35.6730    3.3245 N.4       3 LYC4        0.0000 
     28 NZ        -41.6800   35.0410    3.7060 N.4      13 LYL4        0.0000 
     29 Zn        -41.5300   36.2085    3.7610 Zn        4 ZIC7        0.0000 
     30 Zn        -41.6800   35.0410    3.7060 Zn       14 ZIL7        0.0000 
     31 N         -42.2555   33.9050    4.4155 N.am      2 SEC2        0.0000 
     32 N         -41.6800   35.0410    3.7060 N.am     12 SEL2        0.0000 
     33 N         -42.8310   32.7690    5.1250 N.am      7 SEP2        0.0000 
     34 Zn        -40.1505   36.9410    3.7915 Zn        4 ZIC7        0.0000 
     35 Zn        -38.9210   36.5060    3.7670 Zn       14 ZIL7        0.0000 
     36 N         -39.5995   37.1635    4.9895 N.am      2 SEC2        0.0000 
     37 N         -38.9210   36.5060    3.7670 N.am     12 SEL2        0.0000 
     38 N         -40.2780   37.8210    6.2120 N.am      7 SEP2        0.0000 
     39 N         -37.7695   37.4415    3.3725 N.am      2 SEC2        0.0000 
     40 N         -36.6180   38.3770    2.9780 N.am      7 SEP2        0.0000 
     41 N         -38.9510   35.0670    0.7535 N.am      2 SEC2        0.0000 
     42 N         -39.7200   34.8170    2.1040 N.am     12 SEL2        0.0000 
     43 CA        -35.8125   32.3650    5.2945 C.3       5 GLC5        0.0000 
     44 CA        -37.7130   33.1880    4.6310 C.3      15 GLL5        0.0000 
     45 CA        -33.9120   31.5420    5.9580 C.3      10 GLP5        0.0000 
     46 CA        -36.7170   34.6455    5.6295 C.3       5 GLC5        0.0000 
     47 CA        -35.7210   36.1030    6.6280 C.3      10 GLP5        0.0000 
     48 CA        -36.6685   30.7830    5.5955 C.3       5 GLC5        0.0000 
     49 CA        -38.1680   32.2120    5.7030 C.3      15 GLL5        0.0000 
     50 CA        -35.1690   29.3540    5.4880 C.3      10 GLP5        0.0000 
     51 N         -39.5315   29.6885    4.4950 N.am      2 SEC2        0.0000 
     52 N         -40.1030   31.0330    4.7980 N.am     12 SEL2        0.0000 
     53 N         -38.9600   28.3440    4.1920 N.am      7 SEP2        0.0000 
     54 CA        -37.6035   33.0835    9.1760 C.3       5 GLC5        0.0000 
     55 CA        -38.8400   32.3850    7.9560 C.3      15 GLL5        0.0000 
     56 CA        -36.3670   33.7820   10.3960 C.3      10 GLP5        0.0000 
     57 CA        -36.9495   31.3185    7.8935 C.3       5 GLC5        0.0000 
     58 CA        -35.0590   30.2520    7.8310 C.3      10 GLP5        0.0000 
     59 CA        -41.1020   36.7450    8.8790 C.3       5 GLC5        0.0000 
     60 CA        -40.1280   35.1170   10.0520 C.3      15 GLL5        0.0000 
     61 CA        -42.0760   38.3730    7.7060 C.3      10 GLP5        0.0000 
     62 O         -41.4005   37.2910   12.6295 O.2       1 ALC1        0.0000 
     63 O         -40.9870   36.7660   11.5620 O.2      11 ALL1        0.0000 
     64 O         -41.8140   37.8160   13.6970 O.2       6 ALP1        0.0000 
     65 CA        -42.2575   33.5380   11.3175 C.3       5 GLC5        0.0000 
     66 CA        -40.6100   33.2440   12.0200 C.3      15 GLL5        0.0000 
     67 CA        -43.9050   33.8320   10.6150 C.3      10 GLP5        0.0000 
     68 CA        -41.4530   31.8305   13.2915 C.3       5 GLC5        0.0000 
     69 CA        -42.2960   30.4170   14.5630 C.3      10 GLP5        0.0000 
     70 CA        -39.6295   33.1500   13.9265 C.3       5 GLC5        0.0000 
     71 CA        -38.6490   33.0560   15.8330 C.3      10 GLP5        0.0000 
     72 CA        -38.6605   33.0870   11.8105 C.3       5 GLC5        0.0000 
     73 CA        -36.7110   32.9300   11.6010 C.3      10 GLP5        0.0000 
     74 CA        -41.4435   32.4300    6.4670 C.3       5 GLC5        0.0000 
     75 CA        -39.9080   31.6320    7.2010 C.3      15 GLL5        0.0000 
     76 CA        -43.0950   33.0360    6.4570 C.3      10 GLP5        0.0000 
     77 CA        -40.8640   30.4505    6.0040 C.3       5 GLC5        0.0000 
     78 CA        -41.9360   29.0770    5.5310 C.3      10 GLP5        0.0000 
     79 CA        -38.1720   34.0985   10.1683 C.3       5 GLC5        0.0000 
     80 CA        -42.0105   34.1688   10.4409 C.3       5 GLC5        0.0000 
     81 CA        -38.8510   35.7647   11.0379 C.3       5 GLC5        0.0000 
     82 CA        -37.5860   37.0240   11.8090 C.3      10 GLP5        0.0000 
@<TRIPOS>BOND
@<TRIPOS>SUBSTRUCTURE
     1 ALC1       62 GROUP        1 X    ALC  0     ROOT ALC X 1
     2 SEC2        1 GROUP        1 X    SEC  0     **** SEC X 2
     3 LYC4        8 GROUP        1 X    LYC  0     **** LYC X 4
     4 ZIC7       11 GROUP        1 X    ZIC  0     **** ZIC X 5
     5 GLC5       43 GROUP        1 X    GLC  0     **** GLC X 6
     6 ALP1       64 GROUP        1 Y    ALP  0     ROOT ALP Y 8
     7 SEP2        3 GROUP        1 Y    SEP  0     **** SEP Y 9
     8 LYP4       10 GROUP        1 Y    LYP  0     **** LYP Y 11
     9 ZIP7       13 GROUP        1 Y    ZIP  0     **** ZIP Y 12
    10 GLP5       45 GROUP        1 Y    GLP  0     **** GLP Y 13
    11 ALL1       63 GROUP        1 Z    ALL  0     ROOT ALL Z 15
    12 SEL2        2 GROUP        1 Z    SEL  0     **** SEL Z 16
    13 LYL4        9 GROUP        1 Z    LYL  0     **** LYL Z 18
    14 ZIL7       12 GROUP        1 Z    ZIL  0     **** ZIL Z 19
    15 GLL5       44 GROUP        1 Z    GLL  0     **** GLL Z 20
@<TRIPOS>SET

