#    Name: 4kp4_ANP_1_ligand
#    Modification time : Tue Mar 25 08:15:17 2014

@<TRIPOS>MOLECULE
4kp4_ANP_1_ligand
   43    45     1     0     0
SMALL
NO_CHARGES


@<TRIPOS>ATOM
      1 PG        -42.1760   36.0430    0.4230 P.3       1 ANP1501     0.0000 
      2 O1G       -41.1080   36.1180   -0.6530 O.co2     1 ANP1501     0.0000 
      3 O2G       -42.1260   37.0840    1.5180 O.co2     1 ANP1501     0.0000 
      4 O3G       -43.5650   35.9790   -0.1780 O.co2     1 ANP1501     0.0000 
      5 PB        -41.1670   34.2650    2.5050 P.3       1 ANP1501     0.0000 
      6 O1B       -41.0510   32.7840    2.6200 O.co2     1 ANP1501     0.0000 
      7 O2B       -41.6800   35.0410    3.7060 O.co2     1 ANP1501     0.0000 
      8 N3B       -41.9830   34.5710    1.1290 N.4       1 ANP1501     0.0000 
      9 PA        -38.5670   35.1980    3.1460 P.3       1 ANP1501     0.0000 
     10 O1A       -38.9210   36.5060    3.7670 O.co2     1 ANP1501     0.0000 
     11 O2A       -37.3090   34.9840    2.3230 O.co2     1 ANP1501     0.0000 
     12 O3A       -39.7200   34.8170    2.1040 O.3       1 ANP1501     0.0000 
     13 O5'       -38.6450   34.2560    4.4560 O.3       1 ANP1501     0.0000 
     14 C5'       -37.7130   33.1880    4.6310 C.3       1 ANP1501     0.0000 
     15 C4'       -38.1680   32.2120    5.7030 C.3       1 ANP1501     0.0000 
     16 O4'       -37.8140   32.6930    7.0010 O.3       1 ANP1501     0.0000 
     17 C3'       -39.6760   32.0160    5.7530 C.3       1 ANP1501     0.0000 
     18 O3'       -40.1030   31.0330    4.7980 O.3       1 ANP1501     0.0000 
     19 C2'       -39.9080   31.6320    7.2010 C.3       1 ANP1501     0.0000 
     20 O2'       -39.6720   30.2430    7.4310 O.3       1 ANP1501     0.0000 
     21 C1'       -38.8400   32.3850    7.9560 C.3       1 ANP1501     0.0000 
     22 N9        -39.3340   33.6260    8.5960 N.pl3     1 ANP1501     0.0000 
     23 C8        -39.3060   34.8580    8.0470 C.2       1 ANP1501     0.0000 
     24 N7        -39.7950   35.7700    8.9350 N.2       1 ANP1501     0.0000 
     25 C5        -40.1280   35.1170   10.0520 C.ar      1 ANP1501     0.0000 
     26 C6        -40.6840   35.4790   11.3570 C.ar      1 ANP1501     0.0000 
     27 N6        -40.9870   36.7660   11.5620 N.pl3     1 ANP1501     0.0000 
     28 N1        -40.9160   34.5230   12.3020 N.ar      1 ANP1501     0.0000 
     29 C2        -40.6100   33.2440   12.0200 C.ar      1 ANP1501     0.0000 
     30 N3        -40.0800   32.8530   10.8310 N.ar      1 ANP1501     0.0000 
     31 C4        -39.8260   33.7130    9.8290 C.ar      1 ANP1501     0.0000 
     32 H         -36.7158   33.5666    4.9215 H         1 ANP1501     0.0000 
     33 H         -37.5725   32.6180    3.6943 H         1 ANP1501     0.0000 
     34 H         -37.7124   31.2482    5.5297 H         1 ANP1501     0.0000 
     35 H         -40.1215   32.9825    5.5923 H         1 ANP1501     0.0000 
     36 H         -40.8466   31.9649    7.5166 H         1 ANP1501     0.0000 
     37 H         -38.4354   31.7172    8.7135 H         1 ANP1501     0.0000 
     38 H         -38.9871   35.0718    7.1543 H         1 ANP1501     0.0000 
     39 H         -41.2950   37.2786   10.7605 H         1 ANP1501     0.0000 
     40 H         -40.8784   37.0999   12.4983 H         1 ANP1501     0.0000 
     41 H         -40.7886   32.5002   12.7570 H         1 ANP1501     0.0000 
     42 H         -40.4376   31.5597    4.0166 H         1 ANP1501     0.0000 
     43 H         -38.7113   30.1009    7.1926 H         1 ANP1501     0.0000 
@<TRIPOS>BOND
     1    2    1 ar   
     2    3    1 ar   
     3    4    1 ar   
     4    8    1 1    
     5    6    5 ar   
     6    7    5 ar   
     7    8    5 1    
     8   12    5 1    
     9   10    9 ar   
    10   11    9 ar   
    11   12    9 1    
    12   13    9 1    
    13   14   13 1    
    14   15   14 1    
    15   32   14 1    
    16   33   14 1    
    17   16   15 1    
    18   17   15 1    
    19   34   15 1    
    20   21   16 1    
    21   18   17 1    
    22   19   17 1    
    23   35   17 1    
    24   42   18 1    
    25   20   19 1    
    26   21   19 1    
    27   36   19 1    
    28   43   20 1    
    29   22   21 1    
    30   37   21 1    
    31   23   22 1    
    32   31   22 1    
    33   24   23 2    
    34   38   23 1    
    35   25   24 1    
    36   26   25 ar   
    37   31   25 ar   
    38   27   26 1    
    39   28   26 ar   
    40   39   27 1    
    41   40   27 1    
    42   29   28 ar   
    43   30   29 ar   
    44   41   29 1    
    45   31   30 ar   
@<TRIPOS>SUBSTRUCTURE
     1 ANP1501     1 GROUP   
@<TRIPOS>SET

