#    Name: 2f7x_4EA_1_INTS_M
#    Modification time : Tue Mar 25 12:21:15 2014

@<TRIPOS>MOLECULE
2f7x_4EA_1_INTS_M
   72     0     6     0     0
SMALL
NO_CHARGES


@<TRIPOS>ATOM
      1 CA          6.6720   11.1980    0.0220 C.3       2 GLC5        0.0000 
      2 CA          7.5250    9.8420    1.3590 C.3       6 GLL5        0.0000 
      3 CA          5.8190   12.5540   -1.3150 C.3       4 GLP5        0.0000 
      4 CA          4.7335   10.4405    0.4210 C.3       2 GLC5        0.0000 
      5 CA          4.6730    9.7030    2.4200 C.3       6 GLL5        0.0000 
      6 CA          4.7940   11.1780   -1.5780 C.3       4 GLP5        0.0000 
      7 CA          2.8450    8.2990    5.2855 C.3       2 GLC5        0.0000 
      8 CA          4.3860    9.9180    5.1710 C.3       6 GLL5        0.0000 
      9 CA          1.3040    6.6800    5.4000 C.3       4 GLP5        0.0000 
     10 N           1.9465    9.4145    4.9565 N.am      1 SEC2        0.0000 
     11 N           3.2690    9.7600    4.4090 N.am      5 SEL2        0.0000 
     12 N           0.6240    9.0690    5.5040 N.am      3 SEP2        0.0000 
     13 CA          1.6400   10.3985    3.7740 C.3       2 GLC5        0.0000 
     14 CA          3.4180    9.6540    3.0590 C.3       6 GLL5        0.0000 
     15 CA         -0.1380   11.1430    4.4890 C.3       4 GLP5        0.0000 
     16 CA          2.1885    8.1725    3.4890 C.3       2 GLC5        0.0000 
     17 CA          0.9590    6.6910    3.9190 C.3       4 GLP5        0.0000 
     18 CA         11.2305   11.2900   -1.7260 C.3       2 GLC5        0.0000 
     19 CA         11.4690   10.0210   -0.2340 C.3       6 GLL5        0.0000 
     20 CA         10.9920   12.5590   -3.2180 C.3       4 GLP5        0.0000 
     21 N          10.6515   10.6635   -2.4165 N.am      1 SEC2        0.0000 
     22 N          10.3930   10.1350   -1.0680 N.am      5 SEL2        0.0000 
     23 N          10.9100   11.1920   -3.7650 N.am      3 SEP2        0.0000 
     24 CA          9.3780   11.5710   -1.6520 C.3       2 GLC5        0.0000 
     25 CA          9.1410   10.0730   -0.5330 C.3       6 GLL5        0.0000 
     26 CA          9.6150   13.0690   -2.7710 C.3       4 GLP5        0.0000 
     27 CA          7.4800   11.3135   -0.9240 C.3       2 GLC5        0.0000 
     28 CA          9.5580    8.5775   -1.6725 C.3       2 GLC5        0.0000 
     29 CA          9.9750    7.0820   -2.8120 C.3       4 GLP5        0.0000 
     30 CA         15.2345   12.8735    4.2790 C.3       2 GLC5        0.0000 
     31 CA         14.9240   10.9090    3.4660 C.3       6 GLL5        0.0000 
     32 CA         15.5450   14.8380    5.0920 C.3       4 GLP5        0.0000 
     33 CA         16.3840   12.3465    2.8590 C.3       2 GLC5        0.0000 
     34 CA         17.8440   13.7840    2.2520 C.3       4 GLP5        0.0000 
     35 CA          7.6090    8.0460    1.5105 C.3       2 GLC5        0.0000 
     36 CA          7.8520    6.2050    1.0030 C.3       4 GLP5        0.0000 
     37 CA          7.0700   11.8875    3.1880 C.3       2 GLC5        0.0000 
     38 CA          7.2070    9.9320    2.6770 C.3       6 GLL5        0.0000 
     39 CA          7.6180   13.8740    3.4220 C.3       4 GLP5        0.0000 
     40 CA          5.6555    8.1760    3.3570 C.3       2 GLC5        0.0000 
     41 CA          4.7890    6.4510    3.7600 C.3       4 GLP5        0.0000 
     42 CA          4.4173    8.0648    3.2497 C.3       2 GLC5        0.0000 
     43 CA          5.2640   11.7535    6.0078 C.3       2 GLC5        0.0000 
     44 CA          5.4950   13.5590    7.1150 C.3       4 GLP5        0.0000 
     45 CA          4.3160   11.5400    3.9553 C.3       2 GLC5        0.0000 
     46 CA          3.5990   13.1320    3.0100 C.3       4 GLP5        0.0000 
     47 CA          4.9110    8.1995    4.3303 C.3       2 GLC5        0.0000 
     48 CA          3.9677   11.4261    2.9761 C.3       2 GLC5        0.0000 
     49 CA          5.8370    9.8700    3.2310 C.3       6 GLL5        0.0000 
     50 CA         14.3807   15.4040   -0.6600 C.3       2 GLC5        0.0000 
     51 CA         13.3990   13.7110   -0.0360 C.3       6 GLL5        0.0000 
     52 CA         15.0860   17.2930   -0.6550 C.3       4 GLP5        0.0000 
     53 CA         13.3573   14.7845   -2.1315 C.3       2 GLC5        0.0000 
     54 CA         13.9520   13.3190   -1.2940 C.3       6 GLL5        0.0000 
     55 CA         13.0390   16.0540   -3.5980 C.3       4 GLP5        0.0000 
     56 CA         16.0898   13.0591    1.5142 C.3       2 GLC5        0.0000 
     57 CA         15.1890   11.5060   -0.2300 C.3       6 GLL5        0.0000 
     58 CA         13.2370   15.1043    1.4828 C.3       2 GLC5        0.0000 
     59 CA         13.7430   12.9880    1.1470 C.3       6 GLL5        0.0000 
     60 CA         12.9030   16.8590    2.4100 C.3       4 GLP5        0.0000 
     61 CA         11.5415   13.4417    1.1888 C.3       2 GLC5        0.0000 
     62 CA          9.5120   13.5340    1.8220 C.3       4 GLP5        0.0000 
     63 CA         12.4458   12.8986   -1.9527 C.3       2 GLC5        0.0000 
     64 CA         16.7403   12.1388    1.9375 C.3       2 GLC5        0.0000 
     65 CA         15.2200   10.9280    1.9780 C.3       6 GLL5        0.0000 
     66 CA         11.2677    8.3133   -0.7105 C.3       2 GLC5        0.0000 
     67 CA         11.3460    9.8440    1.1620 C.3       6 GLL5        0.0000 
     68 CA         11.1280    6.6940   -1.8850 C.3       4 GLP5        0.0000 
     69 CA          9.0951   11.7531    1.0536 C.3       2 GLC5        0.0000 
     70 CA         10.1002   11.6743    1.6255 C.3       2 GLC5        0.0000 
     71 CA         10.0310    9.7850    1.6960 C.3       6 GLL5        0.0000 
     72 CA          8.6896    8.0455    0.9649 C.3       2 GLC5        0.0000 
@<TRIPOS>BOND
@<TRIPOS>SUBSTRUCTURE
     1 SEC2       10 GROUP        1 X    SEC  0     ROOT SEC X 2
     2 GLC5        1 GROUP        1 X    GLC  0     **** GLC X 6
     3 SEP2       12 GROUP        1 Y    SEP  0     ROOT SEP Y 9
     4 GLP5        3 GROUP        1 Y    GLP  0     **** GLP Y 13
     5 SEL2       11 GROUP        1 Z    SEL  0     ROOT SEL Z 16
     6 GLL5        2 GROUP        1 Z    GLL  0     **** GLL Z 20
@<TRIPOS>SET

