#    Name: 2f7x_4EA_1_ligand
#    Modification time : Tue Mar 25 12:21:15 2014

@<TRIPOS>MOLECULE
2f7x_4EA_1_ligand
   51    54     1     0     0
SMALL
NO_CHARGES


@<TRIPOS>ATOM
      1 C1          7.5250    9.8420    1.3590 C.2       1 4EA351      0.0000 
      2 C2          7.2070    9.9320    2.6770 C.2       1 4EA351      0.0000 
      3 C3          5.8370    9.8700    3.2310 C.ar      1 4EA351      0.0000 
      4 C4          4.6730    9.7030    2.4200 C.ar      1 4EA351      0.0000 
      5 C7          5.6800    9.9780    4.6300 C.ar      1 4EA351      0.0000 
      6 C8          4.3860    9.9180    5.1710 C.ar      1 4EA351      0.0000 
      7 N1          3.2690    9.7600    4.4090 N.ar      1 4EA351      0.0000 
      8 C9          3.4180    9.6540    3.0590 C.ar      1 4EA351      0.0000 
      9 C10        13.9520   13.3190   -1.2940 C.ar      1 4EA351      0.0000 
     10 C11        14.8480   12.2120   -1.3840 C.ar      1 4EA351      0.0000 
     11 C12        15.1890   11.5060   -0.2300 C.ar      1 4EA351      0.0000 
     12 C13        14.6670   11.8550    1.0420 C.ar      1 4EA351      0.0000 
     13 C14        13.7430   12.9880    1.1470 C.ar      1 4EA351      0.0000 
     14 C15        13.3990   13.7110   -0.0360 C.ar      1 4EA351      0.0000 
     15 N2         16.0390   10.4000   -0.0690 N.pl3     1 4EA351      0.0000 
     16 C16        16.0530   10.0590    1.2680 C.2       1 4EA351      0.0000 
     17 C17        15.2200   10.9280    1.9780 C.2       1 4EA351      0.0000 
     18 C18        11.4690   10.0210   -0.2340 C.ar      1 4EA351      0.0000 
     19 N3         10.3930   10.1350   -1.0680 N.ar      1 4EA351      0.0000 
     20 C19         9.1410   10.0730   -0.5330 C.ar      1 4EA351      0.0000 
     21 C20         8.9060    9.9010    0.8480 C.ar      1 4EA351      0.0000 
     22 C21        10.0310    9.7850    1.6960 C.ar      1 4EA351      0.0000 
     23 C22        11.3460    9.8440    1.1620 C.ar      1 4EA351      0.0000 
     24 O1         12.5110    9.7350    1.9070 O.3       1 4EA351      0.0000 
     25 C24        12.4680   10.0180    3.3140 C.3       1 4EA351      0.0000 
     26 C23        13.8700    9.8290    3.9160 C.3       1 4EA351      0.0000 
     27 C25        14.9240   10.9090    3.4660 C.3       1 4EA351      0.0000 
     28 N4         14.3160    8.4600    3.5960 N.4       1 4EA351      0.0000 
     29 H           6.7827    9.7237    0.6307 H         1 4EA351      0.0000 
     30 H           7.9671   10.0571    3.4025 H         1 4EA351      0.0000 
     31 H           4.7563    9.6234    1.4206 H         1 4EA351      0.0000 
     32 H           6.4889   10.0966    5.2294 H         1 4EA351      0.0000 
     33 H           4.2937   10.0007    6.2163 H         1 4EA351      0.0000 
     34 H           2.5708    9.5296    2.4498 H         1 4EA351      0.0000 
     35 H          13.7026   13.8375   -2.1377 H         1 4EA351      0.0000 
     36 H          15.2286   11.9501   -2.2919 H         1 4EA351      0.0000 
     37 H          13.3679   13.2380    2.0416 H         1 4EA351      0.0000 
     38 H          12.7642   14.5002    0.0165 H         1 4EA351      0.0000 
     39 H          16.5149    9.9715   -0.7674 H         1 4EA351      0.0000 
     40 H          16.5518    9.3414    1.6580 H         1 4EA351      0.0000 
     41 H          12.4407   10.0645   -0.6304 H         1 4EA351      0.0000 
     42 H           8.3018   10.1547   -1.1584 H         1 4EA351      0.0000 
     43 H           9.9003    9.6575    2.7027 H         1 4EA351      0.0000 
     44 H          11.7867    9.3463    3.8421 H         1 4EA351      0.0000 
     45 H          12.1580   11.0471    3.5114 H         1 4EA351      0.0000 
     46 H          13.7676    9.9119    5.0098 H         1 4EA351      0.0000 
     47 H          14.5470   11.8947    3.7847 H         1 4EA351      0.0000 
     48 H          15.8529   10.7223    4.0295 H         1 4EA351      0.0000 
     49 H          15.2293    8.2729    3.9577 H         1 4EA351      0.0000 
     50 H          13.7019    7.7702    3.9794 H         1 4EA351      0.0000 
     51 H          14.3537    8.3028    2.6091 H         1 4EA351      0.0000 
@<TRIPOS>BOND
     1    2    1 2    
     2   21    1 1    
     3   29    1 1    
     4    3    2 1    
     5   30    2 1    
     6    4    3 ar   
     7    5    3 ar   
     8    8    4 ar   
     9   31    4 1    
    10    6    5 ar   
    11   32    5 1    
    12    7    6 ar   
    13   33    6 1    
    14    8    7 ar   
    15   34    8 1    
    16   10    9 ar   
    17   14    9 ar   
    18   35    9 1    
    19   11   10 ar   
    20   36   10 1    
    21   12   11 ar   
    22   15   11 1    
    23   13   12 ar   
    24   17   12 1    
    25   14   13 ar   
    26   37   13 1    
    27   38   14 1    
    28   16   15 1    
    29   39   15 1    
    30   17   16 2    
    31   40   16 1    
    32   27   17 1    
    33   19   18 ar   
    34   23   18 ar   
    35   41   18 1    
    36   20   19 ar   
    37   21   20 ar   
    38   42   20 1    
    39   22   21 ar   
    40   23   22 ar   
    41   43   22 1    
    42   24   23 1    
    43   25   24 1    
    44   26   25 1    
    45   44   25 1    
    46   45   25 1    
    47   27   26 1    
    48   28   26 1    
    49   46   26 1    
    50   47   27 1    
    51   48   27 1    
    52   49   28 1    
    53   50   28 1    
    54   51   28 1    
@<TRIPOS>SUBSTRUCTURE
     1 4EA351      1 GROUP   
@<TRIPOS>SET

