#    Name: 3vkj_FNR_4_INTS_M
#    Modification time : Tue Mar 25 01:08:42 2014

@<TRIPOS>MOLECULE
3vkj_FNR_4_INTS_M
   87     0    12     0     0
SMALL
NO_CHARGES


@<TRIPOS>ATOM
      1 N          88.5560   59.6830   20.1130 N.am      2 SEC2        0.0000 
      2 N          87.4770   58.7540   19.8230 N.am     10 SEL2        0.0000 
      3 N          89.6350   60.6120   20.4030 N.am      6 SEP2        0.0000 
      4 N          86.1770   58.9985   20.2050 N.am      2 SEC2        0.0000 
      5 N          84.8770   59.2430   20.5870 N.am      6 SEP2        0.0000 
      6 O          89.7800   58.8565   18.7485 O.2       1 ALC1        0.0000 
      7 O          88.4840   58.6300   17.8240 O.2       9 ALL1        0.0000 
      8 O          91.0760   59.0830   19.6730 O.2       5 ALP1        0.0000 
      9 N          90.7385   59.1850   16.1230 N.am      2 SEC2        0.0000 
     10 N          89.5520   58.4800   15.7920 N.am     10 SEL2        0.0000 
     11 N          91.9250   59.8900   16.4540 N.am      6 SEP2        0.0000 
     12 CA         85.8725   59.9980    9.0500 C.3       4 GLC5        0.0000 
     13 CA         84.4110   60.1160   10.5460 C.3      12 GLL5        0.0000 
     14 CA         87.3340   59.8800    7.5540 C.3       8 GLP5        0.0000 
     15 CA         82.8775   59.3160    9.5460 C.3       4 GLC5        0.0000 
     16 CA         81.3440   58.5160    8.5460 C.3       8 GLP5        0.0000 
     17 CA         85.3160   61.6140   11.9195 C.3       4 GLC5        0.0000 
     18 CA         86.2210   63.1120   13.2930 C.3       8 GLP5        0.0000 
     19 CA         83.8985   58.3810   11.6790 C.3       4 GLC5        0.0000 
     20 CA         83.3860   56.6460   12.8120 C.3       8 GLP5        0.0000 
     21 CA         83.6170   61.4475    9.3650 C.3       4 GLC5        0.0000 
     22 CA         82.8230   62.7790    8.1840 C.3       8 GLP5        0.0000 
     23 CA         81.6605   59.4360   10.3915 C.3       4 GLC5        0.0000 
     24 CA         81.9770   60.3560   12.2370 C.3      12 GLL5        0.0000 
     25 CA         82.8420   62.1920   12.5460 C.3       4 GLC5        0.0000 
     26 CA         83.7070   64.0280   12.8550 C.3       8 GLP5        0.0000 
     27 CA         80.5730   58.8360   12.4470 C.3       4 GLC5        0.0000 
     28 CA         79.1690   57.3160   12.6570 C.3       8 GLP5        0.0000 
     29 CA         82.6815   58.5010   12.5245 C.3       4 GLC5        0.0000 
     30 CA         80.6280   60.8910   10.9680 C.3       4 GLC5        0.0000 
     31 CA         79.2790   61.4260    9.6990 C.3       8 GLP5        0.0000 
     32 CA         82.5040   61.3970   14.9915 C.3       4 GLC5        0.0000 
     33 CA         83.4570   59.5880   14.1920 C.3      12 GLL5        0.0000 
     34 CA         81.5510   63.2060   15.7910 C.3       8 GLP5        0.0000 
     35 N          83.3125   62.2115   18.5515 N.am      2 SEC2        0.0000 
     36 N          83.9180   60.9080   18.1910 N.am     10 SEL2        0.0000 
     37 N          82.7070   63.5150   18.9120 N.am      6 SEP2        0.0000 
     38 N          84.3975   60.0755   19.3890 N.am      2 SEC2        0.0000 
     39 O          84.9480   61.3745   17.4335 O.2       1 ALC1        0.0000 
     40 O          83.9180   60.9080   18.1910 O.2       9 ALL1        0.0000 
     41 O          85.9780   61.8410   16.6760 O.2       5 ALP1        0.0000 
     42 N          81.1140   58.6350   20.0960 N.am      2 SEC2        0.0000 
     43 N          81.9470   59.4430   19.4400 N.am     10 SEL2        0.0000 
     44 N          80.2810   57.8270   20.7520 N.am      6 SEP2        0.0000 
     45 O          81.7815   60.3735   20.3560 O.2       1 ALC1        0.0000 
     46 O          81.9470   59.4430   19.4400 O.2       9 ALL1        0.0000 
     47 O          81.6160   61.3040   21.2720 O.2       5 ALP1        0.0000 
     48 N          81.1745   57.7915   15.2840 N.am      2 SEC2        0.0000 
     49 N          80.7140   59.3220   15.9880 N.am     10 SEL2        0.0000 
     50 N          81.6350   56.2610   14.5800 N.am      6 SEP2        0.0000 
     51 CA         77.5930   59.8075   18.9710 C.3       4 GLC5        0.0000 
     52 CA         79.2110   59.5630   17.9440 C.3      12 GLL5        0.0000 
     53 CA         75.9750   60.0520   19.9980 C.3       8 GLP5        0.0000 
     54 NZ         76.5050   63.1910   16.0700 N.4       3 LYC4        0.0000 
     55 NZ         77.8130   62.8710   16.6350 N.4      11 LYL4        0.0000 
     56 NZ         74.7260   62.7600   14.4840 N.4       7 LYP4        0.0000 
     57 N          76.5050   63.1910   16.0700 N.am      2 SEC2        0.0000 
     58 N          77.8130   62.8710   16.6350 N.am     10 SEL2        0.0000 
     59 N          75.1970   63.5110   15.5050 N.am      6 SEP2        0.0000 
     60 N          78.8015   63.8620   16.4585 N.am      2 SEC2        0.0000 
     61 N          79.7900   64.8530   16.2820 N.am      6 SEP2        0.0000 
     62 NZ         76.0285   61.0815   15.3050 N.4       3 LYC4        0.0000 
     63 NZ         76.7900   60.6160   16.3290 N.4      11 LYL4        0.0000 
     64 N          76.4515   59.4445   15.5390 N.am      2 SEC2        0.0000 
     65 N          76.7900   60.6160   16.3290 N.am     10 SEL2        0.0000 
     66 N          76.1130   58.2730   14.7490 N.am      6 SEP2        0.0000 
     67 N          77.4970   60.0135   14.8460 N.am      2 SEC2        0.0000 
     68 N          78.2040   59.4110   13.3630 N.am      6 SEP2        0.0000 
     69 N          75.6810   60.8350   17.2750 N.am      2 SEC2        0.0000 
     70 N          74.5720   61.0540   18.2210 N.am      6 SEP2        0.0000 
     71 N          76.0285   61.0815   15.3050 N.am      2 SEC2        0.0000 
     72 N          75.2670   61.5470   14.2810 N.am      6 SEP2        0.0000 
     73 N          75.9935   62.0635   15.9170 N.am      2 SEC2        0.0000 
     74 N          78.5455   60.2945   14.2880 N.am      2 SEC2        0.0000 
     75 N          78.8870   61.1780   15.2130 N.am     10 SEL2        0.0000 
     76 N          79.2780   62.3410   14.3865 N.am      2 SEC2        0.0000 
     77 N          79.6690   63.5040   13.5600 N.am      6 SEP2        0.0000 
     78 CA         86.8672   60.5290   15.2218 C.3       4 GLC5        0.0000 
     79 CA         87.1900   58.8020   15.8060 C.3      12 GLL5        0.0000 
     80 CA         87.1270   62.2330   14.1880 C.3       8 GLP5        0.0000 
     81 CA         86.3000   60.7320   13.8208 C.3       4 GLC5        0.0000 
     82 CA         84.6770   59.1930   14.7360 C.3      12 GLL5        0.0000 
     83 CA         84.2561   61.4730   13.6278 C.3       4 GLC5        0.0000 
     84 CA         84.5240   59.8870   12.0530 C.3      12 GLL5        0.0000 
     85 CA         84.8110   63.1760   13.9440 C.3       8 GLP5        0.0000 
     86 CA         81.5215   61.4473   16.6962 C.3       4 GLC5        0.0000 
     87 CA         82.9950   60.2100   17.3510 C.3      12 GLL5        0.0000 
@<TRIPOS>BOND
@<TRIPOS>SUBSTRUCTURE
     1 ALC1        6 GROUP        1 X    ALC  0     ROOT ALC X 1
     2 SEC2        1 GROUP        1 X    SEC  0     **** SEC X 2
     3 LYC4       54 GROUP        1 X    LYC  0     **** LYC X 4
     4 GLC5       12 GROUP        1 X    GLC  0     **** GLC X 6
     5 ALP1        8 GROUP        1 Y    ALP  0     ROOT ALP Y 8
     6 SEP2        3 GROUP        1 Y    SEP  0     **** SEP Y 9
     7 LYP4       56 GROUP        1 Y    LYP  0     **** LYP Y 11
     8 GLP5       14 GROUP        1 Y    GLP  0     **** GLP Y 13
     9 ALL1        7 GROUP        1 Z    ALL  0     ROOT ALL Z 15
    10 SEL2        2 GROUP        1 Z    SEL  0     **** SEL Z 16
    11 LYL4       55 GROUP        1 Z    LYL  0     **** LYL Z 18
    12 GLL5       13 GROUP        1 Z    GLL  0     **** GLL Z 20
@<TRIPOS>SET

