#    Name: 3vkj_FNR_4_ligand
#    Modification time : Tue Mar 25 01:08:42 2014

@<TRIPOS>MOLECULE
3vkj_FNR_4_ligand
   52    54     1     0     0
SMALL
NO_CHARGES


@<TRIPOS>ATOM
      1 C9A        84.6770   59.1930   14.7360 C.ar      1 FNR401      0.0000 
      2 N10        84.7600   58.9490   16.1620 N.pl3     1 FNR401      0.0000 
      3 CAA        86.0250   58.8480   16.7050 C.2       1 FNR401      0.0000 
      4 N1         86.1540   58.6900   18.0630 N.am      1 FNR401      0.0000 
      5 C2         87.3820   58.8060   18.5730 C.2       1 FNR401      0.0000 
      6 O2         87.4770   58.7540   19.8230 O.2       1 FNR401      0.0000 
      7 N3         88.4840   58.6300   17.8240 N.am      1 FNR401      0.0000 
      8 C4         88.4940   58.7610   16.4700 C.2       1 FNR401      0.0000 
      9 O4         89.5520   58.4800   15.7920 O.2       1 FNR401      0.0000 
     10 C4A        87.1900   58.8020   15.8060 C.2       1 FNR401      0.0000 
     11 N5         87.0590   58.7320   14.4390 N.pl3     1 FNR401      0.0000 
     12 C5A        85.8250   59.0490   13.9300 C.ar      1 FNR401      0.0000 
     13 C6         85.6950   59.3410   12.5740 C.ar      1 FNR401      0.0000 
     14 C7         84.5240   59.8870   12.0530 C.ar      1 FNR401      0.0000 
     15 C7M        84.4110   60.1160   10.5460 C.3       1 FNR401      0.0000 
     16 C8         83.3670   60.0170   12.8090 C.ar      1 FNR401      0.0000 
     17 C8M        81.9770   60.3560   12.2370 C.3       1 FNR401      0.0000 
     18 C9         83.4570   59.5880   14.1920 C.ar      1 FNR401      0.0000 
     19 C1'        83.5820   58.8310   17.0150 C.3       1 FNR401      0.0000 
     20 C2'        82.9950   60.2100   17.3510 C.3       1 FNR401      0.0000 
     21 O2'        83.9180   60.9080   18.1910 O.3       1 FNR401      0.0000 
     22 C3'        81.7050   60.1060   18.1610 C.3       1 FNR401      0.0000 
     23 O3'        81.9470   59.4430   19.4400 O.3       1 FNR401      0.0000 
     24 C4'        80.6340   59.2190   17.4470 C.3       1 FNR401      0.0000 
     25 O4'        80.7140   59.3220   15.9880 O.3       1 FNR401      0.0000 
     26 C5'        79.2110   59.5630   17.9440 C.3       1 FNR401      0.0000 
     27 O5'        78.8960   60.9820   17.7270 O.3       1 FNR401      0.0000 
     28 P          78.0410   61.4240   16.4330 P.3       1 FNR401      0.0000 
     29 O1P        77.8130   62.8710   16.6350 O.co2     1 FNR401      0.0000 
     30 O2P        76.7900   60.6160   16.3290 O.co2     1 FNR401      0.0000 
     31 O3P        78.8870   61.1780   15.2130 O.co2     1 FNR401      0.0000 
     32 H          85.3360   58.4931   18.6404 H         1 FNR401      0.0000 
     33 H          89.3964   58.3757   18.3072 H         1 FNR401      0.0000 
     34 H          87.8281   58.4625   13.8449 H         1 FNR401      0.0000 
     35 H          86.4912   59.1467   11.9354 H         1 FNR401      0.0000 
     36 H          82.6012   59.5845   14.7527 H         1 FNR401      0.0000 
     37 H          83.8297   58.3301   17.9602 H         1 FNR401      0.0000 
     38 H          82.7976   58.2411   16.5226 H         1 FNR401      0.0000 
     39 H          82.8036   60.7462   16.4569 H         1 FNR401      0.0000 
     40 H          81.2796   61.0691   18.3123 H         1 FNR401      0.0000 
     41 H          80.8331   58.1795   17.7530 H         1 FNR401      0.0000 
     42 H          79.1569   59.3092   19.0088 H         1 FNR401      0.0000 
     43 H          78.5037   58.9195   17.4084 H         1 FNR401      0.0000 
     44 H          85.1146   60.7432   10.2119 H         1 FNR401      0.0000 
     45 H          84.5102   59.2637   10.0324 H         1 FNR401      0.0000 
     46 H          83.5259   60.5080   10.2953 H         1 FNR401      0.0000 
     47 H          81.9725   61.2415   11.7724 H         1 FNR401      0.0000 
     48 H          81.6729   59.6743   11.5716 H         1 FNR401      0.0000 
     49 H          81.2806   60.3974   12.9534 H         1 FNR401      0.0000 
     50 H          84.6351   61.2321   17.5740 H         1 FNR401      0.0000 
     51 H          81.8396   60.1608   20.1279 H         1 FNR401      0.0000 
     52 H          80.0476   60.0257   15.7414 H         1 FNR401      0.0000 
@<TRIPOS>BOND
     1    2    1 1    
     2   12    1 ar   
     3   18    1 ar   
     4    3    2 1    
     5   19    2 1    
     6    4    3 1    
     7   10    3 2    
     8    5    4 am   
     9   32    4 1    
    10    6    5 2    
    11    7    5 am   
    12    8    7 am   
    13   33    7 1    
    14    9    8 2    
    15   10    8 1    
    16   11   10 1    
    17   12   11 1    
    18   34   11 1    
    19   13   12 ar   
    20   14   13 ar   
    21   35   13 1    
    22   15   14 1    
    23   16   14 ar   
    24   44   15 1    
    25   45   15 1    
    26   46   15 1    
    27   17   16 1    
    28   18   16 ar   
    29   47   17 1    
    30   48   17 1    
    31   49   17 1    
    32   36   18 1    
    33   20   19 1    
    34   37   19 1    
    35   38   19 1    
    36   21   20 1    
    37   22   20 1    
    38   39   20 1    
    39   50   21 1    
    40   23   22 1    
    41   24   22 1    
    42   40   22 1    
    43   51   23 1    
    44   25   24 1    
    45   26   24 1    
    46   41   24 1    
    47   52   25 1    
    48   27   26 1    
    49   42   26 1    
    50   43   26 1    
    51   28   27 1    
    52   29   28 ar   
    53   30   28 ar   
    54   31   28 ar   
@<TRIPOS>SUBSTRUCTURE
     1 FNR401      1 GROUP   
@<TRIPOS>SET

