#    Name: 2qzr_S79_1_INTS_M
#    Modification time : Mon Mar 24 22:59:46 2014

@<TRIPOS>MOLECULE
2qzr_S79_1_INTS_M
   39     0     9     0     0
SMALL
NO_CHARGES


@<TRIPOS>ATOM
      1 O          12.9905   15.0745   24.3170 O.2       1 ALC1        0.0000 
      2 O          14.0240   15.8320   25.0270 O.2       7 ALL1        0.0000 
      3 O          11.9570   14.3170   23.6070 O.2       4 ALP1        0.0000 
      4 O          14.0605   16.5250   26.2565 O.2       1 ALC1        0.0000 
      5 O          14.0970   17.2180   27.4860 O.2       4 ALP1        0.0000 
      6 O          15.1400   16.4450   26.0660 O.2       1 ALC1        0.0000 
      7 O          16.2560   17.0580   27.1050 O.2       4 ALP1        0.0000 
      8 CA         16.6725   15.5040   17.7840 C.3       3 GLC5        0.0000 
      9 CA         16.1120   16.9010   19.3840 C.3       9 GLL5        0.0000 
     10 CA         17.2330   14.1070   16.1840 C.3       6 GLP5        0.0000 
     11 CA         16.6750   15.8805   15.8220 C.3       3 GLC5        0.0000 
     12 CA         16.1170   17.6540   15.4600 C.3       9 GLL5        0.0000 
     13 CA         15.1660   18.1975   22.0505 C.3       3 GLC5        0.0000 
     14 CA         16.7340   16.9980   22.1510 C.3       9 GLL5        0.0000 
     15 CA         13.5980   19.3970   21.9500 C.3       6 GLP5        0.0000 
     16 CA         18.5580   16.2060   23.1355 C.3       3 GLC5        0.0000 
     17 CA         20.3820   15.4140   24.1200 C.3       6 GLP5        0.0000 
     18 N          18.6765   17.6650   25.3470 N.am      2 SEC2        0.0000 
     19 N          18.3380   17.5120   23.8790 N.am      8 SEL2        0.0000 
     20 N          19.0150   17.8180   26.8150 N.am      5 SEP2        0.0000 
     21 N          19.5910   17.5760   23.5715 N.am      2 SEC2        0.0000 
     22 N          20.8440   17.6400   23.2640 N.am      5 SEP2        0.0000 
     23 O          16.2150   16.8710   25.7680 O.2       1 ALC1        0.0000 
     24 O          16.1740   16.6840   24.4310 O.2       7 ALL1        0.0000 
     25 CA         16.3235   14.9965   22.6190 C.3       3 GLC5        0.0000 
     26 CA         15.4700   16.5360   21.7870 C.3       9 GLL5        0.0000 
     27 CA         16.5450   13.2260   23.2690 C.3       6 GLP5        0.0000 
     28 CA         16.4737   14.9085   20.2305 C.3       3 GLC5        0.0000 
     29 CA         15.1050   16.4690   20.3200 C.3       9 GLL5        0.0000 
     30 CA         17.3390   13.1320   20.6090 C.3       6 GLP5        0.0000 
     31 CA         14.6489   18.0494   21.0844 C.3       3 GLC5        0.0000 
     32 CA         14.7500   17.4365   11.4005 C.3       3 GLC5        0.0000 
     33 CA         16.2280   17.7870   12.9610 C.3       9 GLL5        0.0000 
     34 CA         13.1340   16.7490   10.4360 C.3       6 GLP5        0.0000 
     35 CA         17.3905   15.2470   20.4935 C.3       3 GLC5        0.0000 
     36 CA         17.1990   17.3090   19.7000 C.3       9 GLL5        0.0000 
     37 CA         17.4723   19.1467   22.3492 C.3       3 GLC5        0.0000 
     38 CA         17.6850   17.4150   21.0560 C.3       9 GLL5        0.0000 
     39 CA         17.7350   21.0870   23.0950 C.3       6 GLP5        0.0000 
@<TRIPOS>BOND
@<TRIPOS>SUBSTRUCTURE
     1 ALC1        1 GROUP        1 X    ALC  0     ROOT ALC X 1
     2 SEC2       18 GROUP        1 X    SEC  0     **** SEC X 2
     3 GLC5        8 GROUP        1 X    GLC  0     **** GLC X 6
     4 ALP1        3 GROUP        1 Y    ALP  0     ROOT ALP Y 8
     5 SEP2       20 GROUP        1 Y    SEP  0     **** SEP Y 9
     6 GLP5       10 GROUP        1 Y    GLP  0     **** GLP Y 13
     7 ALL1        2 GROUP        1 Z    ALL  0     ROOT ALL Z 15
     8 SEL2       19 GROUP        1 Z    SEL  0     **** SEL Z 16
     9 GLL5        9 GROUP        1 Z    GLL  0     **** GLL Z 20
@<TRIPOS>SET

