#    Name: 2qzr_S79_1_ligand
#    Modification time : Mon Mar 24 22:59:46 2014

@<TRIPOS>MOLECULE
2qzr_S79_1_ligand
   43    47     1     0     0
SMALL
NO_CHARGES


@<TRIPOS>ATOM
      1 N1         14.0240   15.8320   25.0270 N.pl3     1 S79500      0.0000 
      2 C8         14.9590   16.2410   24.0420 C.2       1 S79500      0.0000 
      3 N2         14.5980   16.1580   22.7440 N.2       1 S79500      0.0000 
      4 C4         15.4700   16.5360   21.7870 C.ar      1 S79500      0.0000 
      5 C5         15.1050   16.4690   20.3200 C.ar      1 S79500      0.0000 
      6 C6         16.1120   16.9010   19.3840 C.ar      1 S79500      0.0000 
      7 N3         15.9620   16.9320   18.0610 N.pl3     1 S79500      0.0000 
      8 C9         17.0690   17.3700   17.6010 C.2       1 S79500      0.0000 
      9 N4         17.3070   17.5300   16.2780 N.pl3     1 S79500      0.0000 
     10 C17        16.1170   17.6540   15.4600 C.3       1 S79500      0.0000 
     11 C18        16.4390   18.4280   14.1890 C.ar      1 S79500      0.0000 
     12 C20        16.9120   19.7430   14.2360 C.ar      1 S79500      0.0000 
     13 C26        17.1180   20.4040   15.4500 C.ar      1 S79500      0.0000 
     14 C25        17.6020   21.7150   15.4750 C.ar      1 S79500      0.0000 
     15 C24        17.8680   22.3860   14.2800 C.ar      1 S79500      0.0000 
     16 C23        17.6610   21.7290   13.0640 C.ar      1 S79500      0.0000 
     17 C21        17.1810   20.4160   13.0380 C.ar      1 S79500      0.0000 
     18 C22        16.9820   19.7760   11.8110 C.ar      1 S79500      0.0000 
     19 C27        16.5040   18.4610   11.7690 C.ar      1 S79500      0.0000 
     20 C19        16.2280   17.7870   12.9610 C.ar      1 S79500      0.0000 
     21 N5         18.0200   17.6830   18.4980 N.2       1 S79500      0.0000 
     22 C1         17.1990   17.3090   19.7000 C.ar      1 S79500      0.0000 
     23 C2         17.6850   17.4150   21.0560 C.ar      1 S79500      0.0000 
     24 C3         16.7340   16.9980   22.1510 C.ar      1 S79500      0.0000 
     25 C7         17.0740   17.0630   23.5040 C.2       1 S79500      0.0000 
     26 O1         18.3380   17.5120   23.8790 O.2       1 S79500      0.0000 
     27 N6         16.1740   16.6840   24.4310 N.am      1 S79500      0.0000 
     28 H          13.4045   15.0919   24.7652 H         1 S79500      0.0000 
     29 H          14.0633   16.3183   25.8999 H         1 S79500      0.0000 
     30 H          14.2243   16.1449   20.0559 H         1 S79500      0.0000 
     31 H          15.1651   16.6695   17.5815 H         1 S79500      0.0000 
     32 H          18.2007   17.5656   15.8571 H         1 S79500      0.0000 
     33 H          15.3243   18.1877   15.9940 H         1 S79500      0.0000 
     34 H          15.7304   16.6708   15.1731 H         1 S79500      0.0000 
     35 H          16.9109   19.9198   16.3360 H         1 S79500      0.0000 
     36 H          17.7619   22.1847   16.3740 H         1 S79500      0.0000 
     37 H          18.2109   23.3485   14.2936 H         1 S79500      0.0000 
     38 H          17.8636   22.2158   12.1794 H         1 S79500      0.0000 
     39 H          17.1875   20.2729   10.9351 H         1 S79500      0.0000 
     40 H          16.3579   17.9968   10.8687 H         1 S79500      0.0000 
     41 H          15.8723   16.8268   12.9395 H         1 S79500      0.0000 
     42 H          18.5774   17.7361   21.2841 H         1 S79500      0.0000 
     43 H          16.4117   16.7315   25.4426 H         1 S79500      0.0000 
@<TRIPOS>BOND
     1    2    1 1    
     2   28    1 1    
     3   29    1 1    
     4    3    2 2    
     5   27    2 1    
     6    4    3 1    
     7    5    4 ar   
     8   24    4 ar   
     9    6    5 ar   
    10   30    5 1    
    11    7    6 1    
    12   22    6 ar   
    13    8    7 1    
    14   31    7 1    
    15    9    8 1    
    16   21    8 2    
    17   10    9 1    
    18   32    9 1    
    19   11   10 1    
    20   33   10 1    
    21   34   10 1    
    22   12   11 ar   
    23   20   11 ar   
    24   13   12 ar   
    25   17   12 ar   
    26   14   13 ar   
    27   35   13 1    
    28   15   14 ar   
    29   36   14 1    
    30   16   15 ar   
    31   37   15 1    
    32   17   16 ar   
    33   38   16 1    
    34   18   17 ar   
    35   19   18 ar   
    36   39   18 1    
    37   20   19 ar   
    38   40   19 1    
    39   41   20 1    
    40   22   21 1    
    41   23   22 ar   
    42   24   23 ar   
    43   42   23 1    
    44   25   24 1    
    45   26   25 2    
    46   27   25 am   
    47   43   27 1    
@<TRIPOS>SUBSTRUCTURE
     1 S79500      1 GROUP   
@<TRIPOS>SET

