#    Name: 3qx4_X4B_1_INTS_M
#    Modification time : Tue Mar 25 10:20:23 2014

@<TRIPOS>MOLECULE
3qx4_X4B_1_INTS_M
   44     0     9     0     0
SMALL
NO_CHARGES


@<TRIPOS>ATOM
      1 O          39.8385   81.7710  -52.3745 O.2       1 ALC1        0.0000 
      2 O          39.8570   81.1540  -51.0450 O.2       7 ALL1        0.0000 
      3 O          39.8200   82.3880  -53.7040 O.2       4 ALP1        0.0000 
      4 O          36.2515   82.3495  -48.7685 O.2       1 ALC1        0.0000 
      5 O          37.2670   81.7040  -47.9140 O.2       7 ALL1        0.0000 
      6 O          35.2360   82.9950  -49.6230 O.2       4 ALP1        0.0000 
      7 CA         36.1130   79.5910  -47.8295 C.3       3 GLC5        0.0000 
      8 CA         36.0910   81.3700  -47.0610 C.3       9 GLL5        0.0000 
      9 CA         36.1350   77.8120  -48.5980 C.3       6 GLP5        0.0000 
     10 CA         37.1975   83.8190  -43.9795 C.3       3 GLC5        0.0000 
     11 CA         35.3380   84.4830  -44.1850 C.3       9 GLL5        0.0000 
     12 CA         39.0570   83.1550  -43.7740 C.3       6 GLP5        0.0000 
     13 CA         37.5540   85.1365  -45.1145 C.3       3 GLC5        0.0000 
     14 CA         35.5210   84.8660  -45.5250 C.3       9 GLL5        0.0000 
     15 CA         39.5870   85.4070  -44.7040 C.3       6 GLP5        0.0000 
     16 CA         37.7475   84.3840  -46.3070 C.3       3 GLC5        0.0000 
     17 CA         35.7700   83.8420  -46.4760 C.3       9 GLL5        0.0000 
     18 CA         39.7250   84.9260  -46.1380 C.3       6 GLP5        0.0000 
     19 CA         34.2650   83.9785  -47.7815 C.3       3 GLC5        0.0000 
     20 CA         32.7600   84.1150  -49.0870 C.3       6 GLP5        0.0000 
     21 N          37.2725   82.9055  -51.1290 N.am      2 SEC2        0.0000 
     22 N          38.3250   82.5470  -50.1910 N.am      8 SEL2        0.0000 
     23 N          36.2200   83.2640  -52.0670 N.am      5 SEP2        0.0000 
     24 CA         39.8015   81.5390  -44.1175 C.3       3 GLC5        0.0000 
     25 CA         40.5460   79.9230  -44.4610 C.3       9 GLL5        0.0000 
     26 CA         42.4180   80.6170  -44.3270 C.3       3 GLC5        0.0000 
     27 CA         44.2900   81.3110  -44.1930 C.3       6 GLP5        0.0000 
     28 CA         40.9652   82.4442  -49.2463 C.3       3 GLC5        0.0000 
     29 CA         40.7910   80.8040  -48.4290 C.3       9 GLL5        0.0000 
     30 CA         41.8030   83.8530  -49.9220 C.3       6 GLP5        0.0000 
     31 CA         39.3490   83.1020  -47.1638 C.3       3 GLC5        0.0000 
     32 CA         39.4640   81.2670  -48.7120 C.3       9 GLL5        0.0000 
     33 CA         38.4064   79.9796  -49.2914 C.3       3 GLC5        0.0000 
     34 CA         38.4820   81.2890  -47.6670 C.3       9 GLL5        0.0000 
     35 CA         37.5080   78.7970  -50.4640 C.3       6 GLP5        0.0000 
     36 CA         39.2912   81.8918  -44.9928 C.3       3 GLC5        0.0000 
     37 CA         38.8650   80.8540  -46.3510 C.3       9 GLL5        0.0000 
     38 CA         41.8857   81.7340  -46.3183 C.3       3 GLC5        0.0000 
     39 CA         40.1860   80.4030  -46.0720 C.3       9 GLL5        0.0000 
     40 CA         43.1870   82.9740  -45.7120 C.3       6 GLP5        0.0000 
     41 CA         33.9240   81.4398  -46.8870 C.3       3 GLC5        0.0000 
     42 CA         31.8880   80.9540  -47.2080 C.3       6 GLP5        0.0000 
     43 CA         37.3945   82.7473  -44.5808 C.3       3 GLC5        0.0000 
     44 CA         35.8290   82.4810  -46.0710 C.3       9 GLL5        0.0000 
@<TRIPOS>BOND
@<TRIPOS>SUBSTRUCTURE
     1 ALC1        1 GROUP        1 X    ALC  0     ROOT ALC X 1
     2 SEC2       21 GROUP        1 X    SEC  0     **** SEC X 2
     3 GLC5        7 GROUP        1 X    GLC  0     **** GLC X 6
     4 ALP1        3 GROUP        1 Y    ALP  0     ROOT ALP Y 8
     5 SEP2       23 GROUP        1 Y    SEP  0     **** SEP Y 9
     6 GLP5        9 GROUP        1 Y    GLP  0     **** GLP Y 13
     7 ALL1        2 GROUP        1 Z    ALL  0     ROOT ALL Z 15
     8 SEL2       22 GROUP        1 Z    SEL  0     **** SEL Z 16
     9 GLL5        8 GROUP        1 Z    GLL  0     **** GLL Z 20
@<TRIPOS>SET

