#    Name: 3qx4_X4B_1_ligand
#    Modification time : Tue Mar 25 10:20:23 2014

@<TRIPOS>MOLECULE
3qx4_X4B_1_ligand
   32    33     1     0     0
SMALL
NO_CHARGES


@<TRIPOS>ATOM
      1 N01        39.8570   81.1540  -51.0450 N.am      1 X4B454      0.0000 
      2 N02        37.2670   81.7040  -47.9140 N.pl3     1 X4B454      0.0000 
      3 N03        35.3920   83.1720  -43.7610 N.ar      1 X4B454      0.0000 
      4 N04        42.3930   79.9590  -46.9320 N.pl3     1 X4B454      0.0000 
      5 C05        40.7910   80.8040  -48.4290 C.ar      1 X4B454      0.0000 
      6 C06        39.4640   81.2670  -48.7120 C.ar      1 X4B454      0.0000 
      7 C07        38.4820   81.2890  -47.6670 C.ar      1 X4B454      0.0000 
      8 C08        38.8650   80.8540  -46.3510 C.ar      1 X4B454      0.0000 
      9 C09        40.1860   80.4030  -46.0720 C.ar      1 X4B454      0.0000 
     10 C10        41.1750   80.3660  -47.1250 C.ar      1 X4B454      0.0000 
     11 C11        39.1710   81.6850  -49.9880 C.2       1 X4B454      0.0000 
     12 C12        36.0910   81.3700  -47.0610 C.3       1 X4B454      0.0000 
     13 C13        35.8290   82.4810  -46.0710 C.ar      1 X4B454      0.0000 
     14 C14        35.6350   82.1980  -44.7040 C.ar      1 X4B454      0.0000 
     15 C15        35.3380   84.4830  -44.1850 C.ar      1 X4B454      0.0000 
     16 C16        35.5210   84.8660  -45.5250 C.ar      1 X4B454      0.0000 
     17 C17        35.7700   83.8420  -46.4760 C.ar      1 X4B454      0.0000 
     18 O18        38.3250   82.5470  -50.1910 O.2       1 X4B454      0.0000 
     19 O19        43.3650   80.3930  -47.6970 O.2       1 X4B454      0.0000 
     20 O20        42.6940   79.0860  -46.0000 O.2       1 X4B454      0.0000 
     21 CL21       40.5460   79.9230  -44.4610 Cl        1 X4B454      0.0000 
     22 H          40.5426   80.4613  -50.8213 H         1 X4B454      0.0000 
     23 H          39.6128   81.5050  -51.9490 H         1 X4B454      0.0000 
     24 H          37.0287   82.3109  -48.7426 H         1 X4B454      0.0000 
     25 H          41.4845   80.7877  -49.1882 H         1 X4B454      0.0000 
     26 H          38.1660   80.8714  -45.6005 H         1 X4B454      0.0000 
     27 H          36.2777   80.4417  -46.5160 H         1 X4B454      0.0000 
     28 H          35.2054   81.2308  -47.6854 H         1 X4B454      0.0000 
     29 H          35.6804   81.1934  -44.4037 H         1 X4B454      0.0000 
     30 H          35.1518   85.2400  -43.4813 H         1 X4B454      0.0000 
     31 H          35.4783   85.8295  -45.8066 H         1 X4B454      0.0000 
     32 H          35.9079   84.0844  -47.4590 H         1 X4B454      0.0000 
@<TRIPOS>BOND
     1   11    1 am   
     2   22    1 1    
     3   23    1 1    
     4    7    2 1    
     5   12    2 1    
     6   24    2 1    
     7   14    3 ar   
     8   15    3 ar   
     9   10    4 1    
    10   19    4 2    
    11   20    4 2    
    12    6    5 ar   
    13   10    5 ar   
    14   25    5 1    
    15    7    6 ar   
    16   11    6 1    
    17    8    7 ar   
    18    9    8 ar   
    19   26    8 1    
    20   10    9 ar   
    21   21    9 1    
    22   18   11 2    
    23   13   12 1    
    24   27   12 1    
    25   28   12 1    
    26   14   13 ar   
    27   17   13 ar   
    28   29   14 1    
    29   16   15 ar   
    30   30   15 1    
    31   17   16 ar   
    32   31   16 1    
    33   32   17 1    
@<TRIPOS>SUBSTRUCTURE
     1 X4B454      1 GROUP   
@<TRIPOS>SET

