#    Name: 4c4h_7RO_1_INTS_M
#    Modification time : Tue Mar 25 08:56:54 2014

@<TRIPOS>MOLECULE
4c4h_7RO_1_INTS_M
   87     0     9     0     0
SMALL
NO_CHARGES


@<TRIPOS>ATOM
      1 CA          4.2895  -40.4185  -11.9530 C.3       3 GLC5        0.0000 
      2 CA          2.9280  -39.5730  -12.9360 C.3       9 GLL5        0.0000 
      3 CA          5.6510  -41.2640  -10.9700 C.3       6 GLP5        0.0000 
      4 CA          4.6650  -38.2855  -12.9735 C.3       3 GLC5        0.0000 
      5 CA          6.4020  -36.9980  -13.0110 C.3       6 GLP5        0.0000 
      6 CA         -1.6300  -39.6350  -13.3270 C.3       3 GLC5        0.0000 
      7 CA          0.4540  -39.6220  -12.6970 C.3       9 GLL5        0.0000 
      8 CA         -3.7140  -39.6480  -13.9570 C.3       6 GLP5        0.0000 
      9 CA          3.9600  -34.8270  -12.7205 C.3       3 GLC5        0.0000 
     10 CA          2.6440  -34.0500  -14.1720 C.3       9 GLL5        0.0000 
     11 CA          5.2760  -35.6040  -11.2690 C.3       6 GLP5        0.0000 
     12 N           6.4335  -34.3705  -17.7135 N.am      2 SEC2        0.0000 
     13 N           4.9410  -34.1860  -17.0980 N.am      8 SEL2        0.0000 
     14 N           7.9260  -34.5550  -18.3290 N.am      5 SEP2        0.0000 
     15 CA          1.6975  -31.4085  -17.0330 C.3       3 GLC5        0.0000 
     16 CA          3.0150  -33.1200  -16.4590 C.3       9 GLL5        0.0000 
     17 CA          0.3800  -29.6970  -17.6070 C.3       6 GLP5        0.0000 
     18 CA          3.7265  -31.6110  -15.9010 C.3       3 GLC5        0.0000 
     19 CA          4.4380  -30.1020  -15.3430 C.3       6 GLP5        0.0000 
     20 CA          4.1735  -30.4050  -18.9545 C.3       3 GLC5        0.0000 
     21 CA          4.0210  -32.5020  -18.6700 C.3       9 GLL5        0.0000 
     22 CA          4.3260  -28.3080  -19.2390 C.3       6 GLP5        0.0000 
     23 CA          4.2295  -31.3020  -17.0065 C.3       3 GLC5        0.0000 
     24 CA          2.4170  -33.9615  -18.3575 C.3       3 GLC5        0.0000 
     25 CA          0.8130  -35.4210  -18.0450 C.3       6 GLP5        0.0000 
     26 CA          3.3490  -35.2290  -11.8230 C.3       3 GLC5        0.0000 
     27 CA          1.4220  -34.8540  -12.3770 C.3       9 GLL5        0.0000 
     28 CA          0.6345  -31.4525  -13.8080 C.3       3 GLC5        0.0000 
     29 CA          2.1920  -32.9620  -13.4690 C.3       9 GLL5        0.0000 
     30 CA         -0.9230  -29.9430  -14.1470 C.3       6 GLP5        0.0000 
     31 CA          1.6025  -33.3300  -10.0390 C.3       3 GLC5        0.0000 
     32 CA         -0.0310  -34.7960  -10.4460 C.3       9 GLL5        0.0000 
     33 CA          3.2360  -31.8640   -9.6320 C.3       6 GLP5        0.0000 
     34 CA          0.1210  -33.6775   -8.5655 C.3       3 GLC5        0.0000 
     35 CA          0.2730  -32.5590   -6.6850 C.3       6 GLP5        0.0000 
     36 CA         -1.8255  -33.6020   -9.9635 C.3       3 GLC5        0.0000 
     37 CA         -3.6200  -32.4080   -9.4810 C.3       6 GLP5        0.0000 
     38 N          -1.1575  -32.6505   -9.8580 N.am      2 SEC2        0.0000 
     39 N          -0.0450  -33.4040  -10.4460 N.am      8 SEL2        0.0000 
     40 N          -2.2700  -31.8970   -9.2700 N.am      5 SEP2        0.0000 
     41 CA          1.9495  -32.3100  -10.5100 C.3       3 GLC5        0.0000 
     42 CA          0.6630  -32.7560  -11.3880 C.3       9 GLL5        0.0000 
     43 CA         -0.1300  -31.3495  -12.7675 C.3       3 GLC5        0.0000 
     44 CA          0.0900  -31.6190   -9.9040 C.3       3 GLC5        0.0000 
     45 CA         -0.4830  -30.4820   -8.4200 C.3       6 GLP5        0.0000 
     46 O          -1.9155  -34.8350   -8.8105 O.2       1 ALC1        0.0000 
     47 O          -0.8620  -35.4100   -9.4970 O.2       7 ALL1        0.0000 
     48 O          -2.9690  -34.2600   -8.1240 O.2       4 ALP1        0.0000 
     49 CA         -2.7540  -39.3130  -12.0005 C.3       3 GLC5        0.0000 
     50 CA         -1.7940  -38.9780  -10.0440 C.3       9 GLL5        0.0000 
     51 CA          1.1135  -36.0450   -7.3630 C.3       3 GLC5        0.0000 
     52 CA         -0.5460  -36.2800   -6.6130 C.3       9 GLL5        0.0000 
     53 CA          2.7730  -35.8100   -8.1130 C.3       6 GLP5        0.0000 
     54 CA         -0.1365  -34.4195   -6.6490 C.3       3 GLC5        0.0000 
     55 CA          1.1000  -40.2405   -9.3220 C.3       3 GLC5        0.0000 
     56 CA          0.2080  -41.8190   -9.2690 C.3       9 GLL5        0.0000 
     57 CA          1.9920  -38.6620   -9.3750 C.3       6 GLP5        0.0000 
     58 CA         -3.4845  -43.4625  -10.3495 C.3       3 GLC5        0.0000 
     59 CA         -1.8290  -43.2040   -9.4580 C.3       9 GLL5        0.0000 
     60 CA         -5.1400  -43.7210  -11.2410 C.3       6 GLP5        0.0000 
     61 CA          1.6771  -39.0662  -11.1649 C.3       3 GLC5        0.0000 
     62 CA          1.6130  -39.0650  -13.4890 C.3       9 GLL5        0.0000 
     63 CA          2.0042  -34.4815  -16.9893 C.3       3 GLC5        0.0000 
     64 CA          3.3760  -33.9640  -15.4080 C.3       9 GLL5        0.0000 
     65 CA         -0.7690  -33.0300  -12.3900 C.3       3 GLC5        0.0000 
     66 CA          1.4150  -33.4160  -12.3700 C.3       9 GLL5        0.0000 
     67 CA         -2.5770  -32.9740  -12.9010 C.3       6 GLP5        0.0000 
     68 CA          0.6578  -33.3005  -14.5856 C.3       3 GLC5        0.0000 
     69 CA         -0.6010  -33.1400  -16.0760 C.3       6 GLP5        0.0000 
     70 CA          2.5206  -32.7062  -11.2766 C.3       3 GLC5        0.0000 
     71 CA          3.9805  -32.3062  -14.1588 C.3       3 GLC5        0.0000 
     72 CA          5.3600  -31.1280  -14.1880 C.3       6 GLP5        0.0000 
     73 CA          1.5573  -35.4995   -9.5160 C.3       3 GLC5        0.0000 
     74 CA          0.7140  -35.5820  -11.3920 C.3       9 GLL5        0.0000 
     75 CA         -1.0613  -35.1985  -11.9826 C.3       3 GLC5        0.0000 
     76 CA         -2.6410  -35.3900  -12.8000 C.3       6 GLP5        0.0000 
     77 CA          0.3285  -37.9360   -9.5847 C.3       3 GLC5        0.0000 
     78 CA         -1.5230  -37.6520  -10.3150 C.3       9 GLL5        0.0000 
     79 CA         -3.3555  -37.6225   -9.7043 C.3       3 GLC5        0.0000 
     80 CA         -1.1470  -36.7680   -9.2740 C.3       9 GLL5        0.0000 
     81 CA         -5.3760  -38.0350   -9.6140 C.3       6 GLP5        0.0000 
     82 CA         -1.9880  -36.3000  -11.2973 C.3       3 GLC5        0.0000 
     83 CA          0.1217  -38.9425   -9.3840 C.3       3 GLC5        0.0000 
     84 CA         -3.5623  -38.6290   -9.5035 C.3       3 GLC5        0.0000 
     85 CA         -1.7030  -39.4680   -8.7420 C.3       9 GLL5        0.0000 
     86 CA          0.3975  -38.3160   -8.5888 C.3       3 GLC5        0.0000 
     87 CA         -1.3360  -38.6460   -7.6640 C.3       9 GLL5        0.0000 
@<TRIPOS>BOND
@<TRIPOS>SUBSTRUCTURE
     1 ALC1       46 GROUP        1 X    ALC  0     ROOT ALC X 1
     2 SEC2       12 GROUP        1 X    SEC  0     **** SEC X 2
     3 GLC5        1 GROUP        1 X    GLC  0     **** GLC X 6
     4 ALP1       48 GROUP        1 Y    ALP  0     ROOT ALP Y 8
     5 SEP2       14 GROUP        1 Y    SEP  0     **** SEP Y 9
     6 GLP5        3 GROUP        1 Y    GLP  0     **** GLP Y 13
     7 ALL1       47 GROUP        1 Z    ALL  0     ROOT ALL Z 15
     8 SEL2       13 GROUP        1 Z    SEL  0     **** SEL Z 16
     9 GLL5        2 GROUP        1 Z    GLL  0     **** GLL Z 20
@<TRIPOS>SET

