#    Name: 4c4h_7RO_1_ligand
#    Modification time : Tue Mar 25 08:56:54 2014

@<TRIPOS>MOLECULE
4c4h_7RO_1_ligand
   62    65     1     0     0
SMALL
NO_CHARGES


@<TRIPOS>ATOM
      1 O2          3.1860  -36.8960  -14.7900 O.2       1 7RO1795     0.0000 
      2 C20         2.3840  -36.6200  -13.9250 C.2       1 7RO1795     0.0000 
      3 O1          1.5830  -37.5830  -13.2530 O.3       1 7RO1795     0.0000 
      4 C21         1.6130  -39.0650  -13.4890 C.3       1 7RO1795     0.0000 
      5 C24         1.4550  -39.4110  -14.9560 C.3       1 7RO1795     0.0000 
      6 C23         2.9280  -39.5730  -12.9360 C.3       1 7RO1795     0.0000 
      7 C22         0.4540  -39.6220  -12.6970 C.3       1 7RO1795     0.0000 
      8 N5          2.1830  -35.2590  -13.5200 N.am      1 7RO1795     0.0000 
      9 C4          2.6440  -34.0500  -14.1720 C.2       1 7RO1795     0.0000 
     10 C3          3.3760  -33.9640  -15.4080 C.2       1 7RO1795     0.0000 
     11 C1          4.5920  -34.6140  -15.8470 C.2       1 7RO1795     0.0000 
     12 N1          4.9410  -34.1860  -17.0980 N.2       1 7RO1795     0.0000 
     13 C2          3.0150  -33.1200  -16.4590 C.2       1 7RO1795     0.0000 
     14 N           3.9760  -33.2720  -17.4410 N.pl3     1 7RO1795     0.0000 
     15 C           4.0210  -32.5020  -18.6700 C.3       1 7RO1795     0.0000 
     16 C19         1.4220  -34.8540  -12.3770 C.ar      1 7RO1795     0.0000 
     17 C6          1.4150  -33.4160  -12.3700 C.ar      1 7RO1795     0.0000 
     18 C5          2.1920  -32.9620  -13.4690 C.2       1 7RO1795     0.0000 
     19 C18         0.7140  -35.5820  -11.3920 C.ar      1 7RO1795     0.0000 
     20 C8         -0.0310  -34.7960  -10.4460 C.ar      1 7RO1795     0.0000 
     21 N2         -0.0450  -33.4040  -10.4460 N.ar      1 7RO1795     0.0000 
     22 C7          0.6630  -32.7560  -11.3880 C.ar      1 7RO1795     0.0000 
     23 N3         -0.8620  -35.4100   -9.4970 N.pl3     1 7RO1795     0.0000 
     24 C9         -1.1470  -36.7680   -9.2740 C.ar      1 7RO1795     0.0000 
     25 C17        -1.5230  -37.6520  -10.3150 C.ar      1 7RO1795     0.0000 
     26 C16        -1.7940  -38.9780  -10.0440 C.ar      1 7RO1795     0.0000 
     27 C12        -1.7030  -39.4680   -8.7420 C.ar      1 7RO1795     0.0000 
     28 C11        -1.3360  -38.6460   -7.6640 C.ar      1 7RO1795     0.0000 
     29 C10        -1.0580  -37.2940   -7.9410 C.ar      1 7RO1795     0.0000 
     30 CL         -0.5460  -36.2800   -6.6130 Cl        1 7RO1795     0.0000 
     31 C13        -2.0440  -40.8780   -8.5230 C.2       1 7RO1795     0.0000 
     32 O          -3.0000  -41.1590   -7.8230 O.2       1 7RO1795     0.0000 
     33 N4         -1.2610  -41.8740   -9.1820 N.am      1 7RO1795     0.0000 
     34 C15         0.2080  -41.8190   -9.2690 C.3       1 7RO1795     0.0000 
     35 C14        -1.8290  -43.2040   -9.4580 C.3       1 7RO1795     0.0000 
     36 H           5.0570  -35.2514  -15.3031 H         1 7RO1795     0.0000 
     37 H           2.2617  -32.5590  -16.4865 H         1 7RO1795     0.0000 
     38 H           2.3562  -32.0459  -13.6626 H         1 7RO1795     0.0000 
     39 H           0.7236  -36.5679  -11.3473 H         1 7RO1795     0.0000 
     40 H           0.6680  -31.7003  -11.4091 H         1 7RO1795     0.0000 
     41 H          -1.3751  -34.7152   -8.8151 H         1 7RO1795     0.0000 
     42 H          -1.5901  -37.2874  -11.2752 H         1 7RO1795     0.0000 
     43 H          -2.0670  -39.6176  -10.8081 H         1 7RO1795     0.0000 
     44 H          -1.2736  -39.0085   -6.7277 H         1 7RO1795     0.0000 
     45 H           2.1832  -39.0109  -15.5125 H         1 7RO1795     0.0000 
     46 H           1.4783  -40.3989  -15.1092 H         1 7RO1795     0.0000 
     47 H           0.5874  -39.0776  -15.3249 H         1 7RO1795     0.0000 
     48 H           3.7109  -39.1459  -13.3883 H         1 7RO1795     0.0000 
     49 H           3.0166  -39.3857  -11.9577 H         1 7RO1795     0.0000 
     50 H           3.0240  -40.5612  -13.0551 H         1 7RO1795     0.0000 
     51 H           0.3842  -40.6153  -12.7894 H         1 7RO1795     0.0000 
     52 H           0.5420  -39.4239  -11.7208 H         1 7RO1795     0.0000 
     53 H          -0.4193  -39.2377  -12.9965 H         1 7RO1795     0.0000 
     54 H           4.8421  -31.9336  -18.7223 H         1 7RO1795     0.0000 
     55 H           4.0206  -33.0915  -19.4778 H         1 7RO1795     0.0000 
     56 H           3.2348  -31.8897  -18.7536 H         1 7RO1795     0.0000 
     57 H           0.6338  -41.8161   -8.3642 H         1 7RO1795     0.0000 
     58 H           0.5802  -42.6031   -9.7656 H         1 7RO1795     0.0000 
     59 H           0.5214  -40.9962   -9.7430 H         1 7RO1795     0.0000 
     60 H          -1.1739  -43.7980   -9.9249 H         1 7RO1795     0.0000 
     61 H          -2.1027  -43.6726   -8.6180 H         1 7RO1795     0.0000 
     62 H          -2.6403  -43.1479  -10.0400 H         1 7RO1795     0.0000 
@<TRIPOS>BOND
     1    2    1 2    
     2    3    2 1    
     3    8    2 am   
     4    4    3 1    
     5    5    4 1    
     6    6    4 1    
     7    7    4 1    
     8   45    5 1    
     9   46    5 1    
    10   47    5 1    
    11   48    6 1    
    12   49    6 1    
    13   50    6 1    
    14   51    7 1    
    15   52    7 1    
    16   53    7 1    
    17    9    8 1    
    18   16    8 1    
    19   10    9 1    
    20   18    9 2    
    21   11   10 1    
    22   13   10 2    
    23   12   11 2    
    24   36   11 1    
    25   14   12 1    
    26   14   13 1    
    27   37   13 1    
    28   15   14 1    
    29   54   15 1    
    30   55   15 1    
    31   56   15 1    
    32   17   16 ar   
    33   19   16 ar   
    34   18   17 1    
    35   22   17 ar   
    36   38   18 1    
    37   20   19 ar   
    38   39   19 1    
    39   21   20 ar   
    40   23   20 1    
    41   22   21 ar   
    42   40   22 1    
    43   24   23 1    
    44   41   23 1    
    45   25   24 ar   
    46   29   24 ar   
    47   26   25 ar   
    48   42   25 1    
    49   27   26 ar   
    50   43   26 1    
    51   28   27 ar   
    52   31   27 1    
    53   29   28 ar   
    54   44   28 1    
    55   30   29 1    
    56   32   31 2    
    57   33   31 am   
    58   34   33 1    
    59   35   33 1    
    60   57   34 1    
    61   58   34 1    
    62   59   34 1    
    63   60   35 1    
    64   61   35 1    
    65   62   35 1    
@<TRIPOS>SUBSTRUCTURE
     1 7RO1795     1 GROUP   
@<TRIPOS>SET

