#    Name: 3eya_TDP_12_INTS_M
#    Modification time : Tue Mar 25 02:56:52 2014

@<TRIPOS>MOLECULE
3eya_TDP_12_INTS_M
   83     0    12     0     0
SMALL
NO_CHARGES


@<TRIPOS>ATOM
      1 CA        -13.4290  -12.8205   33.9140 C.3       4 GLC5        0.0000 
      2 CA        -14.5790  -14.6520   33.7260 C.3      12 GLL5        0.0000 
      3 CA        -12.2790  -10.9890   34.1020 C.3       8 GLP5        0.0000 
      4 CA        -11.6250  -14.5975   32.5900 C.3       4 GLC5        0.0000 
      5 CA        -13.2120  -14.8140   33.1270 C.3      12 GLL5        0.0000 
      6 CA        -10.0380  -14.3810   32.0530 C.3       8 GLP5        0.0000 
      7 CA        -12.5185  -13.0355   32.7485 C.3       4 GLC5        0.0000 
      8 CA        -11.8250  -11.2570   32.3700 C.3       8 GLP5        0.0000 
      9 N         -15.6885  -14.5455   31.5135 N.am      2 SEC2        0.0000 
     10 N         -15.6620  -14.9980   33.0070 N.am     10 SEL2        0.0000 
     11 N         -15.7150  -14.0930   30.0200 N.am      6 SEP2        0.0000 
     12 CA        -16.7175  -13.3080   32.7800 C.3       4 GLC5        0.0000 
     13 CA        -16.8940  -14.8700   33.5330 C.3      12 GLL5        0.0000 
     14 CA        -16.5410  -11.7460   32.0270 C.3       8 GLP5        0.0000 
     15 O         -17.8950  -16.2205   31.5990 O.2       1 ALC1        0.0000 
     16 O         -17.9600  -15.2830   32.7760 O.2       9 ALL1        0.0000 
     17 O         -17.8300  -17.1580   30.4220 O.2       5 ALP1        0.0000 
     18 CA        -15.1995  -12.3310   36.7110 C.3       4 GLC5        0.0000 
     19 CA        -15.9270  -14.0180   35.5460 C.3      12 GLL5        0.0000 
     20 CA        -14.4720  -10.6440   37.8760 C.3       8 GLP5        0.0000 
     21 CA        -16.5170  -15.4965   37.0450 C.3       4 GLC5        0.0000 
     22 CA        -17.1070  -16.9750   38.5440 C.3       8 GLP5        0.0000 
     23 CA        -14.6540  -15.6980   35.8830 C.3       4 GLC5        0.0000 
     24 CA        -13.3810  -17.3780   36.2200 C.3       8 GLP5        0.0000 
     25 CA        -19.1490  -14.2845   37.2985 C.3       4 GLC5        0.0000 
     26 CA        -18.4310  -14.2060   35.4780 C.3      12 GLL5        0.0000 
     27 CA        -19.8670  -14.3630   39.1190 C.3       8 GLP5        0.0000 
     28 CA        -17.7690  -15.5905   37.0110 C.3       4 GLC5        0.0000 
     29 CA        -21.4195  -11.0915   31.3325 C.3       4 GLC5        0.0000 
     30 CA        -20.6100  -11.7970   33.0580 C.3      12 GLL5        0.0000 
     31 CA        -22.2290  -10.3860   29.6070 C.3       8 GLP5        0.0000 
     32 CA        -22.3340  -11.1800   32.8980 C.3       4 GLC5        0.0000 
     33 CA        -24.0580  -10.5630   32.7380 C.3       8 GLP5        0.0000 
     34 CA        -16.3035  -10.8455   37.0080 C.3       4 GLC5        0.0000 
     35 CA        -18.1350  -11.0470   36.1400 C.3      12 GLL5        0.0000 
     36 CA        -17.6935   -9.3565   37.1250 C.3       4 GLC5        0.0000 
     37 CA        -17.2520   -7.6660   38.1100 C.3       8 GLP5        0.0000 
     38 CA        -17.9180  -10.1845   33.8480 C.3       4 GLC5        0.0000 
     39 CA        -19.8200   -9.4240   34.1450 C.3      12 GLL5        0.0000 
     40 CA        -16.0160  -10.9450   33.5510 C.3       8 GLP5        0.0000 
     41 CA        -19.5960   -8.2540   35.4765 C.3       4 GLC5        0.0000 
     42 CA        -19.3720   -7.0840   36.8080 C.3       8 GLP5        0.0000 
     43 CA        -20.8105   -9.7045   31.1740 C.3       4 GLC5        0.0000 
     44 CA        -19.3920   -9.0230   32.7410 C.3      12 GLL5        0.0000 
     45 CA        -17.4240   -9.1890   32.8260 C.3       4 GLC5        0.0000 
     46 CA        -15.4560   -9.3550   32.9110 C.3       8 GLP5        0.0000 
     47 CA        -19.7785   -7.6220   34.2830 C.3       4 GLC5        0.0000 
     48 CA        -20.1650   -6.2210   35.8250 C.3       8 GLP5        0.0000 
     49 Zn        -19.6040   -4.5930   32.1760 Zn        3 ZIC7        0.0000 
     50 Zn        -18.8320   -5.3430   32.0710 Zn       11 ZIL7        0.0000 
     51 Zn        -20.3760   -3.8430   32.2810 Zn        7 ZIP7        0.0000 
     52 N         -17.4745   -4.9115   31.8925 N.am      2 SEC2        0.0000 
     53 N         -18.8320   -5.3430   32.0710 N.am     10 SEL2        0.0000 
     54 N         -16.1170   -4.4800   31.7140 N.am      6 SEP2        0.0000 
     55 N         -16.4695   -6.9695   30.4790 N.am      2 SEC2        0.0000 
     56 N         -17.8020   -7.1800   30.5840 N.am     10 SEL2        0.0000 
     57 N         -15.1370   -6.7590   30.3740 N.am      6 SEP2        0.0000 
     58 N         -23.2450   -8.0705   30.3725 N.am      2 SEC2        0.0000 
     59 N         -22.6800   -7.5640   31.5740 N.am     10 SEL2        0.0000 
     60 N         -23.8100   -8.5770   29.1710 N.am      6 SEP2        0.0000 
     61 N         -22.9920   -7.1860   29.5160 N.am      2 SEC2        0.0000 
     62 N         -22.1740   -5.7950   29.8610 N.am     10 SEL2        0.0000 
     63 N         -23.2465   -5.7270   29.2990 N.am      2 SEC2        0.0000 
     64 N         -24.3190   -5.6590   28.7370 N.am      6 SEP2        0.0000 
     65 Zn        -20.9930   -4.6530   32.3215 Zn        3 ZIC7        0.0000 
     66 Zn        -21.6100   -5.4630   32.3620 Zn       11 ZIL7        0.0000 
     67 N         -22.5675   -4.2365   32.0680 N.am      2 SEC2        0.0000 
     68 N         -21.6100   -5.4630   32.3620 N.am     10 SEL2        0.0000 
     69 N         -23.5250   -3.0100   31.7740 N.am      6 SEP2        0.0000 
     70 N         -21.9765   -5.8295   33.5565 N.am      2 SEC2        0.0000 
     71 N         -22.3430   -6.1960   34.7510 N.am      6 SEP2        0.0000 
     72 CA        -13.9052  -16.5570   32.6713 C.3       4 GLC5        0.0000 
     73 CA        -13.9150  -18.3810   31.9160 C.3       8 GLP5        0.0000 
     74 CA        -13.6382  -16.0555   34.8233 C.3       4 GLC5        0.0000 
     75 CA        -14.6032  -13.3405   32.2933 C.3       4 GLC5        0.0000 
     76 CA        -15.3110  -11.9480   31.1600 C.3       8 GLP5        0.0000 
     77 CA        -16.7380  -12.5727   34.4426 C.3       4 GLC5        0.0000 
     78 CA        -20.0977  -13.3845   31.4505 C.3       4 GLC5        0.0000 
     79 CA        -19.9550  -13.2690   33.7520 C.3      12 GLL5        0.0000 
     80 CA        -19.9130  -14.2360   29.4960 C.3       8 GLP5        0.0000 
     81 CA        -18.4117  -12.1395   32.7160 C.3       4 GLC5        0.0000 
     82 CA        -17.3720  -11.0619   34.4729 C.3       4 GLC5        0.0000 
     83 CA        -19.7090  -10.8880   34.2080 C.3      12 GLL5        0.0000 
@<TRIPOS>BOND
@<TRIPOS>SUBSTRUCTURE
     1 ALC1       15 GROUP        1 X    ALC  0     ROOT ALC X 1
     2 SEC2        9 GROUP        1 X    SEC  0     **** SEC X 2
     3 ZIC7       49 GROUP        1 X    ZIC  0     **** ZIC X 5
     4 GLC5        1 GROUP        1 X    GLC  0     **** GLC X 6
     5 ALP1       17 GROUP        1 Y    ALP  0     ROOT ALP Y 8
     6 SEP2       11 GROUP        1 Y    SEP  0     **** SEP Y 9
     7 ZIP7       51 GROUP        1 Y    ZIP  0     **** ZIP Y 12
     8 GLP5        3 GROUP        1 Y    GLP  0     **** GLP Y 13
     9 ALL1       16 GROUP        1 Z    ALL  0     ROOT ALL Z 15
    10 SEL2       10 GROUP        1 Z    SEL  0     **** SEL Z 16
    11 ZIL7       50 GROUP        1 Z    ZIL  0     **** ZIL Z 19
    12 GLL5        2 GROUP        1 Z    GLL  0     **** GLL Z 20
@<TRIPOS>SET

