#    Name: 3eya_TDP_12_ligand
#    Modification time : Tue Mar 25 02:56:52 2014

@<TRIPOS>MOLECULE
3eya_TDP_12_ligand
   42    43     1     0     0
SMALL
NO_CHARGES


@<TRIPOS>ATOM
      1 N1'       -14.7250  -14.1840   34.9790 N.ar      1 TDP611      0.0000 
      2 C2'       -14.5790  -14.6520   33.7260 C.ar      1 TDP611      0.0000 
      3 C2A       -13.2120  -14.8140   33.1270 C.3       1 TDP611      0.0000 
      4 N3'       -15.6620  -14.9980   33.0070 N.ar      1 TDP611      0.0000 
      5 C4'       -16.8940  -14.8700   33.5330 C.ar      1 TDP611      0.0000 
      6 N4'       -17.9600  -15.2830   32.7760 N.pl3     1 TDP611      0.0000 
      7 C5'       -17.0510  -14.3720   34.8350 C.ar      1 TDP611      0.0000 
      8 C6'       -15.9270  -14.0180   35.5460 C.ar      1 TDP611      0.0000 
      9 C35       -18.4310  -14.2060   35.4780 C.3       1 TDP611      0.0000 
     10 N3        -19.1010  -13.0670   34.7940 N.pl3     1 TDP611      0.0000 
     11 C2        -19.9550  -13.2690   33.7520 C.2       1 TDP611      0.0000 
     12 S1        -20.6100  -11.7970   33.0580 S.3       1 TDP611      0.0000 
     13 C5        -19.7090  -10.8880   34.2080 C.2       1 TDP611      0.0000 
     14 C4        -18.9330  -11.7330   35.0910 C.2       1 TDP611      0.0000 
     15 C4A       -18.1350  -11.0470   36.1400 C.3       1 TDP611      0.0000 
     16 C5A       -19.8200   -9.4240   34.1450 C.3       1 TDP611      0.0000 
     17 C5B       -19.3920   -9.0230   32.7410 C.3       1 TDP611      0.0000 
     18 O5G       -18.9090   -7.6630   32.8370 O.3       1 TDP611      0.0000 
     19 P1        -18.8730   -6.7370   31.5190 P.3       1 TDP611      0.0000 
     20 O11       -20.3050   -7.0400   30.8480 O.3       1 TDP611      0.0000 
     21 O12       -18.8320   -5.3430   32.0710 O.co2     1 TDP611      0.0000 
     22 O13       -17.8020   -7.1800   30.5840 O.co2     1 TDP611      0.0000 
     23 P2        -21.7800   -6.3900   31.2140 P.3       1 TDP611      0.0000 
     24 O21       -22.6800   -7.5640   31.5740 O.co2     1 TDP611      0.0000 
     25 O22       -22.1740   -5.7950   29.8610 O.co2     1 TDP611      0.0000 
     26 O23       -21.6100   -5.4630   32.3620 O.co2     1 TDP611      0.0000 
     27 H         -17.7387  -15.6933   31.8913 H         1 TDP611      0.0000 
     28 H         -18.8655  -15.1378   33.1748 H         1 TDP611      0.0000 
     29 H         -16.0267  -13.6331   36.4977 H         1 TDP611      0.0000 
     30 H         -18.3035  -13.9967   36.5277 H         1 TDP611      0.0000 
     31 H         -18.9921  -15.1158   35.3388 H         1 TDP611      0.0000 
     32 H         -20.2819  -14.0368   33.3084 H         1 TDP611      0.0000 
     33 H         -19.1612   -8.9556   34.8577 H         1 TDP611      0.0000 
     34 H         -20.8375   -9.1065   34.3035 H         1 TDP611      0.0000 
     35 H         -20.2491   -9.0952   32.0872 H         1 TDP611      0.0000 
     36 H         -18.6152   -9.6985   32.4130 H         1 TDP611      0.0000 
     37 H         -12.7173  -13.9457   33.0903 H         1 TDP611      0.0000 
     38 H         -12.6486  -15.4502   33.6540 H         1 TDP611      0.0000 
     39 H         -13.2555  -15.1663   32.1921 H         1 TDP611      0.0000 
     40 H         -17.1601  -11.2548   36.0603 H         1 TDP611      0.0000 
     41 H         -18.2281  -10.0528   36.0867 H         1 TDP611      0.0000 
     42 H         -18.4185  -11.3190   37.0596 H         1 TDP611      0.0000 
@<TRIPOS>BOND
     1    2    1 ar   
     2    8    1 ar   
     3    3    2 1    
     4    4    2 ar   
     5   37    3 1    
     6   38    3 1    
     7   39    3 1    
     8    5    4 ar   
     9    6    5 1    
    10    7    5 ar   
    11   27    6 1    
    12   28    6 1    
    13    8    7 ar   
    14    9    7 1    
    15   29    8 1    
    16   10    9 1    
    17   30    9 1    
    18   31    9 1    
    19   11   10 2    
    20   14   10 1    
    21   12   11 1    
    22   32   11 1    
    23   13   12 1    
    24   14   13 2    
    25   16   13 1    
    26   15   14 1    
    27   40   15 1    
    28   41   15 1    
    29   42   15 1    
    30   17   16 1    
    31   33   16 1    
    32   34   16 1    
    33   18   17 1    
    34   35   17 1    
    35   36   17 1    
    36   19   18 1    
    37   20   19 1    
    38   21   19 ar   
    39   22   19 ar   
    40   23   20 1    
    41   24   23 ar   
    42   25   23 ar   
    43   26   23 ar   
@<TRIPOS>SUBSTRUCTURE
     1 TDP611      1 GROUP   
@<TRIPOS>SET

