#    Name: 3lxp_IZA_1_INTS_M
#    Modification time : Mon Mar 24 22:25:56 2014

@<TRIPOS>MOLECULE
3lxp_IZA_1_INTS_M
   64     0     9     0     0
SMALL
NO_CHARGES


@<TRIPOS>ATOM
      1 N          -8.2960   27.3130  -34.3670 N.am      2 SEC2        0.0000 
      2 N          -6.9940   26.7640  -34.2000 N.am      8 SEL2        0.0000 
      3 N          -9.5980   27.8620  -34.5340 N.am      5 SEP2        0.0000 
      4 O          -8.0025   24.6470  -35.5820 O.2       1 ALC1        0.0000 
      5 O          -7.0480   24.5170  -34.5140 O.2       7 ALL1        0.0000 
      6 O          -8.9570   24.7770  -36.6500 O.2       4 ALP1        0.0000 
      7 CA         -6.0275   24.1330  -35.6560 C.3       3 GLC5        0.0000 
      8 CA         -6.6890   23.2570  -34.1620 C.3       9 GLL5        0.0000 
      9 CA         -5.3660   25.0090  -37.1500 C.3       6 GLP5        0.0000 
     10 CA         -3.0950   23.0740  -32.2545 C.3       3 GLC5        0.0000 
     11 CA         -4.6910   23.9160  -31.2150 C.3       9 GLL5        0.0000 
     12 CA         -1.4990   22.2320  -33.2940 C.3       6 GLP5        0.0000 
     13 CA         -6.0420   30.4590  -33.3720 C.3       3 GLC5        0.0000 
     14 CA         -5.5030   30.1430  -31.5250 C.3       9 GLL5        0.0000 
     15 CA         -6.5810   30.7750  -35.2190 C.3       6 GLP5        0.0000 
     16 CA         -7.2485   30.9270  -32.0545 C.3       3 GLC5        0.0000 
     17 CA         -8.9940   31.7110  -32.5840 C.3       6 GLP5        0.0000 
     18 CA         -5.2590   20.9765  -26.3860 C.3       3 GLC5        0.0000 
     19 CA         -4.0040   21.4550  -27.9480 C.3       9 GLL5        0.0000 
     20 CA         -6.5140   20.4980  -24.8240 C.3       6 GLP5        0.0000 
     21 CA         -5.5860   23.0005  -28.1620 C.3       3 GLC5        0.0000 
     22 CA         -7.1680   24.5460  -28.3760 C.3       6 GLP5        0.0000 
     23 CA         -3.9500   19.5055  -28.0755 C.3       3 GLC5        0.0000 
     24 CA         -3.8960   17.5560  -28.2030 C.3       6 GLP5        0.0000 
     25 CA         -0.6845   20.0795  -29.0930 C.3       3 GLC5        0.0000 
     26 CA         -2.1310   21.0120  -29.4620 C.3       9 GLL5        0.0000 
     27 CA          0.7620   19.1470  -28.7240 C.3       6 GLP5        0.0000 
     28 CA         -1.8150   21.6220  -31.3780 C.3       3 GLC5        0.0000 
     29 CA         -1.6360   19.6395  -31.1395 C.3       3 GLC5        0.0000 
     30 CA         -1.1410   18.2670  -32.8170 C.3       6 GLP5        0.0000 
     31 CA         -3.0135   19.2840  -28.8325 C.3       3 GLC5        0.0000 
     32 CA         -0.7555   24.1555  -28.7650 C.3       3 GLC5        0.0000 
     33 CA         -1.9490   22.6910  -27.6140 C.3       9 GLL5        0.0000 
     34 CA          0.4380   25.6200  -29.9160 C.3       6 GLP5        0.0000 
     35 CA         -4.3537   23.5907  -34.1977 C.3       3 GLC5        0.0000 
     36 CA         -5.9260   23.0260  -33.1050 C.3       9 GLL5        0.0000 
     37 CA         -2.4000   24.0400  -34.7620 C.3       6 GLP5        0.0000 
     38 CA         -8.0762   22.2377  -33.7377 C.3       3 GLC5        0.0000 
     39 CA         -9.8450   21.3340  -33.8420 C.3       6 GLP5        0.0000 
     40 CA         -5.6448   21.8242  -34.7057 C.3       3 GLC5        0.0000 
     41 CA         -4.9820   20.5070  -35.7780 C.3       6 GLP5        0.0000 
     42 CA         -7.1937   23.0877  -31.8617 C.3       3 GLC5        0.0000 
     43 CA         -8.0800   23.0340  -30.0900 C.3       6 GLP5        0.0000 
     44 CA         -4.0205   24.4187  -33.6213 C.3       3 GLC5        0.0000 
     45 CA         -5.4750   24.1440  -32.3240 C.3       9 GLL5        0.0000 
     46 CA         -6.7625   23.8873  -31.1466 C.3       3 GLC5        0.0000 
     47 CA         -5.8070   25.4510  -32.6370 C.3       9 GLL5        0.0000 
     48 CA         -4.4880   27.4491  -33.5569 C.3       3 GLC5        0.0000 
     49 CA         -3.3540   27.9910  -34.9490 C.3       6 GLP5        0.0000 
     50 CA         -7.6350   26.5921  -32.1214 C.3       3 GLC5        0.0000 
     51 CA         -5.6630   27.8380  -32.0880 C.3       9 GLL5        0.0000 
     52 CA         -9.6480   26.2770  -32.0780 C.3       6 GLP5        0.0000 
     53 CA         -4.0652   29.8040  -32.5742 C.3       3 GLC5        0.0000 
     54 CA         -5.1840   28.8450  -31.2760 C.3       9 GLL5        0.0000 
     55 CA         -2.7870   30.1140  -33.7480 C.3       6 GLP5        0.0000 
     56 CA         -6.3041   29.1086  -29.8972 C.3       3 GLC5        0.0000 
     57 CA         -7.1450   28.9750  -28.1910 C.3       6 GLP5        0.0000 
     58 CA         -5.6925   28.4370  -29.1277 C.3       3 GLC5        0.0000 
     59 CA         -4.3990   28.5540  -30.1970 C.3       9 GLL5        0.0000 
     60 CA         -3.0615   27.4990  -31.7306 C.3       3 GLC5        0.0000 
     61 CA         -4.5600   26.2370  -30.7440 C.3       9 GLL5        0.0000 
     62 CA         -1.7230   27.9300  -33.0570 C.3       6 GLP5        0.0000 
     63 CA         -5.7671   25.2077  -29.4451 C.3       3 GLC5        0.0000 
     64 CA         -4.0810   27.2440  -29.9320 C.3       9 GLL5        0.0000 
@<TRIPOS>BOND
@<TRIPOS>SUBSTRUCTURE
     1 ALC1        4 GROUP        1 X    ALC  0     ROOT ALC X 1
     2 SEC2        1 GROUP        1 X    SEC  0     **** SEC X 2
     3 GLC5        7 GROUP        1 X    GLC  0     **** GLC X 6
     4 ALP1        6 GROUP        1 Y    ALP  0     ROOT ALP Y 8
     5 SEP2        3 GROUP        1 Y    SEP  0     **** SEP Y 9
     6 GLP5        9 GROUP        1 Y    GLP  0     **** GLP Y 13
     7 ALL1        5 GROUP        1 Z    ALL  0     ROOT ALL Z 15
     8 SEL2        2 GROUP        1 Z    SEL  0     **** SEL Z 16
     9 GLL5        8 GROUP        1 Z    GLL  0     **** GLL Z 20
@<TRIPOS>SET

