#    Name: 3lxp_IZA_1_ligand
#    Modification time : Mon Mar 24 22:25:57 2014

@<TRIPOS>MOLECULE
3lxp_IZA_1_ligand
   39    42     1     0     0
SMALL
NO_CHARGES


@<TRIPOS>ATOM
      1 O0         -6.9940   26.7640  -34.2000 O.2       1 IZA1183     0.0000 
      2 C11        -6.6560   25.6470  -33.8320 C.2       1 IZA1183     0.0000 
      3 N2         -7.0480   24.5170  -34.5140 N.am      1 IZA1183     0.0000 
      4 C12        -6.6890   23.2570  -34.1620 C.2       1 IZA1183     0.0000 
      5 C13        -5.9260   23.0260  -33.1050 C.2       1 IZA1183     0.0000 
      6 C9         -5.4750   24.1440  -32.3240 C.ar      1 IZA1183     0.0000 
      7 C1         -4.6910   23.9160  -31.2150 C.ar      1 IZA1183     0.0000 
      8 C10        -5.8070   25.4510  -32.6370 C.ar      1 IZA1183     0.0000 
      9 C8         -5.3550   26.5020  -31.8460 C.ar      1 IZA1183     0.0000 
     10 C7         -5.6630   27.8380  -32.0880 C.ar      1 IZA1183     0.0000 
     11 C6         -5.1840   28.8450  -31.2760 C.ar      1 IZA1183     0.0000 
     12 F1         -5.5030   30.1430  -31.5250 F         1 IZA1183     0.0000 
     13 C5         -4.3990   28.5540  -30.1970 C.ar      1 IZA1183     0.0000 
     14 C4         -4.0810   27.2440  -29.9320 C.ar      1 IZA1183     0.0000 
     15 C3         -4.5600   26.2370  -30.7440 C.ar      1 IZA1183     0.0000 
     16 C0         -4.2130   24.9320  -30.4150 C.ar      1 IZA1183     0.0000 
     17 N1         -3.4510   24.4150  -29.3860 N.2       1 IZA1183     0.0000 
     18 C2         -3.4620   23.1110  -29.5520 C.2       1 IZA1183     0.0000 
     19 N0         -4.2070   22.7580  -30.6530 N.pl3     1 IZA1183     0.0000 
     20 C14        -2.8350   22.0900  -28.6900 C.3       1 IZA1183     0.0000 
     21 C17        -4.0040   21.4550  -27.9480 C.3       1 IZA1183     0.0000 
     22 C16        -2.1310   21.0120  -29.4620 C.3       1 IZA1183     0.0000 
     23 C15        -1.9490   22.6910  -27.6140 C.3       1 IZA1183     0.0000 
     24 H          -7.6696   24.6486  -35.3671 H         1 IZA1183     0.0000 
     25 H          -7.0326   22.4533  -34.7526 H         1 IZA1183     0.0000 
     26 H          -5.6352   22.0907  -32.8077 H         1 IZA1183     0.0000 
     27 H          -6.2676   28.0762  -32.8998 H         1 IZA1183     0.0000 
     28 H          -4.0475   29.3055  -29.5865 H         1 IZA1183     0.0000 
     29 H          -3.4815   27.0098  -29.1228 H         1 IZA1183     0.0000 
     30 H          -4.3594   21.8747  -30.9678 H         1 IZA1183     0.0000 
     31 H          -3.7005   20.7362  -27.3226 H         1 IZA1183     0.0000 
     32 H          -4.5058   22.1259  -27.4020 H         1 IZA1183     0.0000 
     33 H          -4.6607   21.0385  -28.5767 H         1 IZA1183     0.0000 
     34 H          -1.3979   21.3822  -30.0325 H         1 IZA1183     0.0000 
     35 H          -1.7167   20.3321  -28.8570 H         1 IZA1183     0.0000 
     36 H          -2.7560   20.5217  -30.0695 H         1 IZA1183     0.0000 
     37 H          -1.5311   21.9863  -27.0406 H         1 IZA1183     0.0000 
     38 H          -1.2035   23.2306  -28.0053 H         1 IZA1183     0.0000 
     39 H          -2.4620   23.2972  -27.0063 H         1 IZA1183     0.0000 
@<TRIPOS>BOND
     1    2    1 2    
     2    3    2 am   
     3    8    2 1    
     4    4    3 1    
     5   24    3 1    
     6    5    4 2    
     7   25    4 1    
     8    6    5 1    
     9   26    5 1    
    10    7    6 ar   
    11    8    6 ar   
    12   16    7 ar   
    13   19    7 1    
    14    9    8 ar   
    15   10    9 ar   
    16   15    9 ar   
    17   11   10 ar   
    18   27   10 1    
    19   12   11 1    
    20   13   11 ar   
    21   14   13 ar   
    22   28   13 1    
    23   15   14 ar   
    24   29   14 1    
    25   16   15 ar   
    26   17   16 1    
    27   18   17 2    
    28   19   18 1    
    29   20   18 1    
    30   30   19 1    
    31   21   20 1    
    32   22   20 1    
    33   23   20 1    
    34   31   21 1    
    35   32   21 1    
    36   33   21 1    
    37   34   22 1    
    38   35   22 1    
    39   36   22 1    
    40   37   23 1    
    41   38   23 1    
    42   39   23 1    
@<TRIPOS>SUBSTRUCTURE
     1 IZA1183     1 GROUP   
@<TRIPOS>SET

