#    Name: 1z1r_HBH_1_INTS_M
#    Modification time : Mon Apr  7 16:21:01 2014

@<TRIPOS>MOLECULE
1z1r_HBH_1_INTS_M
   79     0     9     0     0
SMALL
NO_CHARGES


@<TRIPOS>ATOM
      1 CA          2.8905    2.6365   13.7325 C.3       3 GLC5        0.0000 
      2 CA          3.1990    1.4620   12.2020 C.3       9 GLL5        0.0000 
      3 CA          2.5820    3.8110   15.2630 C.3       6 GLP5        0.0000 
      4 CA          0.8685   -5.9945   14.2665 C.3       3 GLC5        0.0000 
      5 CA          1.6910   -4.4470   15.4200 C.3       9 GLL5        0.0000 
      6 CA          0.0460   -7.5420   13.1130 C.3       6 GLP5        0.0000 
      7 CA          1.1360   -4.1835   13.3110 C.3       3 GLC5        0.0000 
      8 CA          0.5810   -3.9200   11.2020 C.3       6 GLP5        0.0000 
      9 N           2.9290    4.7855   12.6640 N.am      2 SEC2        0.0000 
     10 N           3.9510    4.1070   11.7290 N.am      8 SEL2        0.0000 
     11 N           1.9070    5.4640   13.5990 N.am      5 SEP2        0.0000 
     12 O           3.4350    1.2470    9.6825 O.2       1 ALC1        0.0000 
     13 O           3.6480    2.0210   10.9110 O.2       7 ALL1        0.0000 
     14 O           3.2220    0.4730    8.4540 O.2       4 ALP1        0.0000 
     15 CA          1.6375    1.8715   13.8490 C.3       3 GLC5        0.0000 
     16 CA          1.7660    0.9750   12.0350 C.3       9 GLL5        0.0000 
     17 CA          1.5090    2.7680   15.6630 C.3       6 GLP5        0.0000 
     18 CA          0.6400    0.2625   13.6325 C.3       3 GLC5        0.0000 
     19 CA         -0.4860   -0.4500   15.2300 C.3       6 GLP5        0.0000 
     20 CA          0.9995   -0.7525   11.8305 C.3       3 GLC5        0.0000 
     21 CA          0.2330   -2.4800   11.6260 C.3       6 GLP5        0.0000 
     22 N          -0.1685    4.1490   12.6600 N.am      2 SEC2        0.0000 
     23 N           0.4180    2.9210   12.3060 N.am      8 SEL2        0.0000 
     24 N          -0.7550    5.3770   13.0140 N.am      5 SEP2        0.0000 
     25 O          -0.1750    3.4630    9.9445 O.2       1 ALC1        0.0000 
     26 O           0.8040    2.1970   10.2320 O.2       7 ALL1        0.0000 
     27 O          -1.1540    4.7290    9.6570 O.2       4 ALP1        0.0000 
     28 O           2.0130    1.3350    9.3430 O.2       1 ALC1        0.0000 
     29 O           5.0470    2.1075   14.4050 O.2       1 ALC1        0.0000 
     30 O           4.7750    0.6520   13.7970 O.2       7 ALL1        0.0000 
     31 O           5.3190    3.5630   15.0130 O.2       4 ALP1        0.0000 
     32 N           6.5850    0.8405   17.1195 N.am      2 SEC2        0.0000 
     33 N           5.3350    0.7120   16.6410 N.am      8 SEL2        0.0000 
     34 N           7.8350    0.9690   17.5980 N.am      5 SEP2        0.0000 
     35 O           4.5255    1.0975   17.5705 O.2       1 ALC1        0.0000 
     36 O           5.3350    0.7120   16.6410 O.2       7 ALL1        0.0000 
     37 O           3.7160    1.4830   18.5000 O.2       4 ALP1        0.0000 
     38 O           3.8710    0.3225   17.1520 O.2       1 ALC1        0.0000 
     39 O           2.4070   -0.0670   17.6630 O.2       4 ALP1        0.0000 
     40 CA          7.6965   -1.6910   18.0305 C.3       3 GLC5        0.0000 
     41 CA          6.2590   -1.5220   16.5990 C.3       9 GLL5        0.0000 
     42 CA          9.1340   -1.8600   19.4620 C.3       6 GLP5        0.0000 
     43 CA         10.0680   -2.2385   15.6890 C.3       3 GLC5        0.0000 
     44 CA          9.3220   -4.0080   16.7210 C.3       9 GLL5        0.0000 
     45 CA         10.8140   -0.4690   14.6570 C.3       6 GLP5        0.0000 
     46 CA         11.1435   -6.6460   15.8435 C.3       3 GLC5        0.0000 
     47 CA          9.9680   -6.1650   17.5780 C.3       9 GLL5        0.0000 
     48 CA         12.3190   -7.1270   14.1090 C.3       6 GLP5        0.0000 
     49 CA         10.0990   -8.0540   15.8055 C.3       3 GLC5        0.0000 
     50 CA          8.9390   -6.7590   16.8530 C.3       9 GLL5        0.0000 
     51 CA         11.2590   -9.3490   14.7580 C.3       6 GLP5        0.0000 
     52 CA          9.2847    1.6870   12.1982 C.3       3 GLC5        0.0000 
     53 CA          7.4020    0.9190   13.0430 C.3       9 GLL5        0.0000 
     54 CA         11.0750    2.8280   11.9360 C.3       6 GLP5        0.0000 
     55 CA          6.2335   -0.6182   10.1520 C.3       3 GLC5        0.0000 
     56 CA          7.5870    0.1730   11.8780 C.3       9 GLL5        0.0000 
     57 CA          4.8070   -1.7210    9.0400 C.3       6 GLP5        0.0000 
     58 CA          7.8650   -1.4917   10.5505 C.3       3 GLC5        0.0000 
     59 CA          7.7330    0.7960   10.6500 C.3       9 GLL5        0.0000 
     60 CA          8.0700   -3.4680    9.8370 C.3       6 GLP5        0.0000 
     61 CA          9.1088    0.9685    9.3797 C.3       3 GLC5        0.0000 
     62 CA         10.5050    0.4490    8.1460 C.3       6 GLP5        0.0000 
     63 CA          9.3938    2.1580   11.2747 C.3       3 GLC5        0.0000 
     64 CA          9.1196   -0.0461   13.7236 C.3       3 GLC5        0.0000 
     65 CA          0.7825   -3.2165   16.8212 C.3       3 GLC5        0.0000 
     66 CA         -0.6590   -2.0960   17.6900 C.3       6 GLP5        0.0000 
     67 CA          1.2370   -5.4640   17.3156 C.3       3 GLC5        0.0000 
     68 CA          2.7570   -4.2270   16.4850 C.3       9 GLL5        0.0000 
     69 CA         -0.1590   -6.0020   18.0360 C.3       6 GLP5        0.0000 
     70 CA          8.2200    3.8180   13.7492 C.3       3 GLC5        0.0000 
     71 CA          7.3740    2.3070   12.9430 C.3       9 GLL5        0.0000 
     72 CA          8.9930    5.0110   15.1660 C.3       6 GLP5        0.0000 
     73 CA          9.2610    2.7265   12.1342 C.3       3 GLC5        0.0000 
     74 CA          9.3085   -3.2016   18.1988 C.3       3 GLC5        0.0000 
     75 CA         10.1600   -4.7870   17.5150 C.3       9 GLL5        0.0000 
     76 CA         11.5875   -5.9650   18.9217 C.3       3 GLC5        0.0000 
     77 CA         13.1110   -6.4540   20.2970 C.3       6 GLP5        0.0000 
     78 CA         11.6707   -4.6761   16.6890 C.3       3 GLC5        0.0000 
     79 CA         13.4870   -4.0710   16.0300 C.3       6 GLP5        0.0000 
@<TRIPOS>BOND
@<TRIPOS>SUBSTRUCTURE
     1 ALC1       12 GROUP        1 X    ALC  0     ROOT ALC X 1
     2 SEC2        9 GROUP        1 X    SEC  0     **** SEC X 2
     3 GLC5        1 GROUP        1 X    GLC  0     **** GLC X 6
     4 ALP1       14 GROUP        1 Y    ALP  0     ROOT ALP Y 8
     5 SEP2       11 GROUP        1 Y    SEP  0     **** SEP Y 9
     6 GLP5        3 GROUP        1 Y    GLP  0     **** GLP Y 13
     7 ALL1       13 GROUP        1 Z    ALL  0     ROOT ALL Z 15
     8 SEL2       10 GROUP        1 Z    SEL  0     **** SEL Z 16
     9 GLL5        2 GROUP        1 Z    GLL  0     **** GLL Z 20
@<TRIPOS>SET

