#    Name: 1z1r_HBH_1_ligand
#    Modification time : Mon Apr  7 16:21:01 2014

@<TRIPOS>MOLECULE
1z1r_HBH_1_ligand
   81    83     1     0     0
SMALL
NO_CHARGES


@<TRIPOS>ATOM
      1 C1          5.6850   -0.2960   14.4600 C.3       1 HBH201      0.0000 
      2 C2          7.1250    0.2420   14.3620 C.3       1 HBH201      0.0000 
      3 C3          7.4020    0.9190   13.0430 C.ar      1 HBH201      0.0000 
      4 C7          7.7330    0.7960   10.6500 C.ar      1 HBH201      0.0000 
      5 C8          7.5870    0.1730   11.8780 C.ar      1 HBH201      0.0000 
      6 C10         6.5490    2.8780    8.7310 C.3       1 HBH201      0.0000 
      7 C11         5.7610    4.0910    9.2080 C.3       1 HBH201      0.0000 
      8 C12         4.3070    3.7750    9.3580 C.3       1 HBH201      0.0000 
      9 C13         3.9320    3.3170   10.7640 C.2       1 HBH201      0.0000 
     10 C16         3.1990    1.4620   12.2020 C.3       1 HBH201      0.0000 
     11 C20         4.0640    0.3480   12.7220 C.2       1 HBH201      0.0000 
     12 N26         6.2170   -2.8610   15.9850 N.pl3     1 HBH201      0.0000 
     13 C27         5.2270   -3.6060   16.7740 C.3       1 HBH201      0.0000 
     14 C30         1.6910   -4.4470   15.4200 C.3       1 HBH201      0.0000 
     15 C31         3.0420   -5.5150   17.2380 C.3       1 HBH201      0.0000 
     16 C35         8.2900   -4.5910   15.9910 C.ar      1 HBH201      0.0000 
     17 C4          7.3740    2.3070   12.9430 C.ar      1 HBH201      0.0000 
     18 C5          7.5200    2.9430   11.7220 C.ar      1 HBH201      0.0000 
     19 C6          7.6920    2.1800   10.5770 C.ar      1 HBH201      0.0000 
     20 O9          7.8190    2.8080    9.3610 O.3       1 HBH201      0.0000 
     21 O14         3.9510    4.1070   11.7290 O.2       1 HBH201      0.0000 
     22 N15         3.6480    2.0210   10.9110 N.am      1 HBH201      0.0000 
     23 C17         1.7660    0.9750   12.0350 C.3       1 HBH201      0.0000 
     24 C18         0.8690    2.0680   11.5360 C.2       1 HBH201      0.0000 
     25 O19         0.4180    2.9210   12.3060 O.2       1 HBH201      0.0000 
     26 N19         0.8040    2.1970   10.2320 N.am      1 HBH201      0.0000 
     27 O21         4.0400   -0.7810   12.2170 O.2       1 HBH201      0.0000 
     28 N22         4.7750    0.6520   13.7970 N.am      1 HBH201      0.0000 
     29 C23         5.3000   -0.5290   15.9290 C.3       1 HBH201      0.0000 
     30 O24         5.3350    0.7120   16.6410 O.3       1 HBH201      0.0000 
     31 C25         6.2590   -1.5220   16.5990 C.3       1 HBH201      0.0000 
     32 C28         4.0360   -3.7100   15.8310 C.3       1 HBH201      0.0000 
     33 C29         2.7570   -4.2270   16.4850 C.3       1 HBH201      0.0000 
     34 S32         7.3120   -3.6550   15.0540 S.o2      1 HBH201      0.0000 
     35 O33         8.1270   -2.6700   14.3560 O.2       1 HBH201      0.0000 
     36 O34         6.6060   -4.4850   14.0820 O.2       1 HBH201      0.0000 
     37 C36         9.3220   -4.0080   16.7210 C.ar      1 HBH201      0.0000 
     38 C37        10.1600   -4.7870   17.5150 C.ar      1 HBH201      0.0000 
     39 C38         9.9680   -6.1650   17.5780 C.ar      1 HBH201      0.0000 
     40 C39         8.9390   -6.7590   16.8530 C.ar      1 HBH201      0.0000 
     41 C40         8.1050   -5.9700   16.0630 C.ar      1 HBH201      0.0000 
     42 H           5.6610   -1.2521   13.9461 H         1 HBH201      0.0000 
     43 H           7.8193   -0.5960   14.5014 H         1 HBH201      0.0000 
     44 H           7.2879    0.9506   15.1836 H         1 HBH201      0.0000 
     45 H           7.8706    0.2380    9.7994 H         1 HBH201      0.0000 
     46 H           7.6147   -0.8597   11.9378 H         1 HBH201      0.0000 
     47 H           6.6410    2.9511    7.6331 H         1 HBH201      0.0000 
     48 H           5.9393    1.9814    8.9398 H         1 HBH201      0.0000 
     49 H           5.8931    4.9040    8.4855 H         1 HBH201      0.0000 
     50 H           6.1713    4.4230   10.1682 H         1 HBH201      0.0000 
     51 H           4.0225    2.9837    8.6440 H         1 HBH201      0.0000 
     52 H           3.7049    4.6645    9.1068 H         1 HBH201      0.0000 
     53 H           3.1718    2.2642   12.9487 H         1 HBH201      0.0000 
     54 H           4.9364   -3.0619   17.6431 H         1 HBH201      0.0000 
     55 H           5.5750   -4.5866   17.0047 H         1 HBH201      0.0000 
     56 H           7.2409    2.8735   13.8027 H         1 HBH201      0.0000 
     57 H           7.5013    3.9659   11.6640 H         1 HBH201      0.0000 
     58 H           3.7259    1.3378   10.1326 H         1 HBH201      0.0000 
     59 H           1.4018    0.6084   13.0007 H         1 HBH201      0.0000 
     60 H           1.7568    0.1369   11.3299 H         1 HBH201      0.0000 
     61 H           1.3190    1.5270    9.6973 H         1 HBH201      0.0000 
     62 H           0.2454    2.9536    9.8920 H         1 HBH201      0.0000 
     63 H           4.7297    1.6021   14.2454 H         1 HBH201      0.0000 
     64 H           4.3074   -0.9579   15.9510 H         1 HBH201      0.0000 
     65 H           7.2780   -1.1038   16.5413 H         1 HBH201      0.0000 
     66 H           5.9967   -1.5806   17.6687 H         1 HBH201      0.0000 
     67 H           4.3007   -4.3764   14.9903 H         1 HBH201      0.0000 
     68 H           3.8357   -2.7149   15.3943 H         1 HBH201      0.0000 
     69 H           2.4044   -3.4826   17.1816 H         1 HBH201      0.0000 
     70 H           9.4680   -2.9868   16.6735 H         1 HBH201      0.0000 
     71 H          10.9159   -4.3475   18.0515 H         1 HBH201      0.0000 
     72 H          10.5868   -6.7434   18.1604 H         1 HBH201      0.0000 
     73 H           8.7944   -7.7734   16.8994 H         1 HBH201      0.0000 
     74 H           7.3425   -6.4120   15.5258 H         1 HBH201      0.0000 
     75 H           1.4906   -3.6069   14.9160 H         1 HBH201      0.0000 
     76 H           1.9731   -5.1317   14.7480 H         1 HBH201      0.0000 
     77 H           0.8293   -4.7634   15.8168 H         1 HBH201      0.0000 
     78 H           3.3725   -6.2360   16.6289 H         1 HBH201      0.0000 
     79 H           3.7381   -5.3861   17.9443 H         1 HBH201      0.0000 
     80 H           2.2245   -5.8678   17.6932 H         1 HBH201      0.0000 
     81 H           4.6524    0.6141   17.3652 H         1 HBH201      0.0000 
@<TRIPOS>BOND
     1    2    1 1    
     2   28    1 1    
     3   29    1 1    
     4   42    1 1    
     5    3    2 1    
     6   43    2 1    
     7   44    2 1    
     8    5    3 ar   
     9   17    3 ar   
    10    5    4 ar   
    11   19    4 ar   
    12   45    4 1    
    13   46    5 1    
    14    7    6 1    
    15   20    6 1    
    16   47    6 1    
    17   48    6 1    
    18    8    7 1    
    19   49    7 1    
    20   50    7 1    
    21    9    8 1    
    22   51    8 1    
    23   52    8 1    
    24   21    9 2    
    25   22    9 am   
    26   11   10 1    
    27   22   10 1    
    28   23   10 1    
    29   53   10 1    
    30   27   11 2    
    31   28   11 am   
    32   13   12 1    
    33   31   12 1    
    34   34   12 1    
    35   32   13 1    
    36   54   13 1    
    37   55   13 1    
    38   33   14 1    
    39   75   14 1    
    40   76   14 1    
    41   77   14 1    
    42   33   15 1    
    43   78   15 1    
    44   79   15 1    
    45   80   15 1    
    46   34   16 1    
    47   37   16 ar   
    48   41   16 ar   
    49   18   17 ar   
    50   56   17 1    
    51   19   18 ar   
    52   57   18 1    
    53   20   19 1    
    54   58   22 1    
    55   24   23 1    
    56   59   23 1    
    57   60   23 1    
    58   25   24 2    
    59   26   24 am   
    60   61   26 1    
    61   62   26 1    
    62   63   28 1    
    63   30   29 1    
    64   31   29 1    
    65   64   29 1    
    66   81   30 1    
    67   65   31 1    
    68   66   31 1    
    69   33   32 1    
    70   67   32 1    
    71   68   32 1    
    72   69   33 1    
    73   35   34 2    
    74   36   34 2    
    75   38   37 ar   
    76   70   37 1    
    77   39   38 ar   
    78   71   38 1    
    79   40   39 ar   
    80   72   39 1    
    81   41   40 ar   
    82   73   40 1    
    83   74   41 1    
@<TRIPOS>SUBSTRUCTURE
     1 HBH201      1 GROUP   
@<TRIPOS>SET

