#    Name: 3cib_314_1_INTS_M
#    Modification time : Mon Mar 24 21:29:26 2014

@<TRIPOS>MOLECULE
3cib_314_1_INTS_M
  108     0    12     0     0
SMALL
NO_CHARGES


@<TRIPOS>ATOM
      1 CA         28.3975   11.5620   18.2330 C.3       4 GLC5        0.0000 
      2 CA         27.0260   10.8080   19.1370 C.3      12 GLL5        0.0000 
      3 CA         29.7690   12.3160   17.3290 C.3       8 GLP5        0.0000 
      4 CA         27.3890    9.8860   17.7740 C.3       4 GLC5        0.0000 
      5 CA         27.7520    8.9640   16.4110 C.3       8 GLP5        0.0000 
      6 CA         21.1845   12.6800   18.7930 C.3       4 GLC5        0.0000 
      7 CA         23.0830   13.3590   18.5300 C.3      12 GLL5        0.0000 
      8 CA         19.2860   12.0010   19.0560 C.3       8 GLP5        0.0000 
      9 CA         22.2580   14.9885   18.0990 C.3       4 GLC5        0.0000 
     10 CA         21.4330   16.6180   17.6680 C.3       8 GLP5        0.0000 
     11 CA         22.5570   12.4190   17.3080 C.3       4 GLC5        0.0000 
     12 CA         22.0310   11.4790   16.0860 C.3       8 GLP5        0.0000 
     13 N          29.5345   12.6320   25.1610 N.am      2 SEC2        0.0000 
     14 N          29.3310   13.6560   24.2090 N.am     10 SEL2        0.0000 
     15 N          29.7380   11.6080   26.1130 N.am      6 SEP2        0.0000 
     16 N          30.6310   12.9385   24.2250 N.am      2 SEC2        0.0000 
     17 N          31.9310   12.2210   24.2410 N.am      6 SEP2        0.0000 
     18 CA         31.0280   12.8675   23.6675 C.3       4 GLC5        0.0000 
     19 CA         30.0440   13.1900   21.7000 C.3      12 GLL5        0.0000 
     20 CA         32.0120   12.5450   25.6350 C.3       8 GLP5        0.0000 
     21 CA         31.5740   10.9990   20.1495 C.3       4 GLC5        0.0000 
     22 CA         30.0120   11.7180   21.2070 C.3      12 GLL5        0.0000 
     23 CA         33.1360   10.2800   19.0920 C.3       8 GLP5        0.0000 
     24 CA         28.3120   10.8015   24.1265 C.3       4 GLC5        0.0000 
     25 CA         29.1930   10.7760   22.1100 C.3      12 GLL5        0.0000 
     26 CA         27.4310   10.8270   26.1430 C.3       8 GLP5        0.0000 
     27 CA         23.5330   17.3895   25.7835 C.3       4 GLC5        0.0000 
     28 CA         25.5260   17.1700   25.7040 C.3      12 GLL5        0.0000 
     29 CA         21.5400   17.6090   25.8630 C.3       8 GLP5        0.0000 
     30 CA         25.8980   16.4295   27.7605 C.3       4 GLC5        0.0000 
     31 CA         26.2700   15.6890   29.8170 C.3       8 GLP5        0.0000 
     32 N          21.1440   14.4355   23.3715 N.am      2 SEC2        0.0000 
     33 N          22.3790   13.5510   23.4840 N.am     10 SEL2        0.0000 
     34 N          19.9090   15.3200   23.2590 N.am      6 SEP2        0.0000 
     35 N          22.1510   15.0375   22.8435 N.am      2 SEC2        0.0000 
     36 N          21.9230   16.5240   22.2030 N.am      6 SEP2        0.0000 
     37 O          24.9490   10.9065   23.6150 O.2       1 ALC1        0.0000 
     38 O          23.7510   11.7520   23.4810 O.2       9 ALL1        0.0000 
     39 O          26.1470   10.0610   23.7490 O.2       5 ALP1        0.0000 
     40 O          22.2070    7.6695   24.0935 O.2       1 ALC1        0.0000 
     41 O          21.2030    9.0310   23.8910 O.2       9 ALL1        0.0000 
     42 O          23.2110    6.3080   24.2960 O.2       5 ALP1        0.0000 
     43 O          21.5335    7.9130   23.2805 O.2       1 ALC1        0.0000 
     44 O          21.8640    6.7950   22.6700 O.2       5 ALP1        0.0000 
     45 CA         24.6405    8.8050   23.1735 C.3       4 GLC5        0.0000 
     46 CA         23.1230    9.8710   22.0330 C.3      12 GLL5        0.0000 
     47 CA         26.1580    7.7390   24.3140 C.3       8 GLP5        0.0000 
     48 CA         24.9875   14.2245   19.3205 C.3       4 GLC5        0.0000 
     49 CA         25.0680   12.0950   18.8120 C.3      12 GLL5        0.0000 
     50 CA         24.9070   16.3540   19.8290 C.3       8 GLP5        0.0000 
     51 CA         19.7630   11.1585   22.9725 C.3       4 GLC5        0.0000 
     52 CA         20.0980   11.4990   24.8210 C.3      12 GLL5        0.0000 
     53 CA         19.4280   10.8180   21.1240 C.3       8 GLP5        0.0000 
     54 CA         20.6895   10.0980   29.3995 C.3       4 GLC5        0.0000 
     55 CA         20.4750   10.8010   27.6430 C.3      12 GLL5        0.0000 
     56 CA         20.9040    9.3950   31.1560 C.3       8 GLP5        0.0000 
     57 OD1        22.6225    8.8380   26.7460 O.co2     3 ASC3        0.0000 
     58 OD1        21.1010   10.0310   26.5560 O.co2    11 ASL3        0.0000 
     59 OD1        24.1440    7.6450   26.9360 O.co2     7 ASP3        0.0000 
     60 OD1        22.3185    9.7860   27.1595 O.co2     3 ASC3        0.0000 
     61 OD1        23.5360    9.5410   27.7630 O.co2     7 ASP3        0.0000 
     62 CA         18.2440   13.3820   23.5200 C.3       4 GLC5        0.0000 
     63 CA         17.9180   12.7260   25.3740 C.3      12 GLL5        0.0000 
     64 CA         18.5700   14.0380   21.6660 C.3       8 GLP5        0.0000 
     65 CA         15.7785   10.1145   21.4305 C.3       4 GLC5        0.0000 
     66 CA         16.0330    9.8900   23.5650 C.3      12 GLL5        0.0000 
     67 CA         15.5240   10.3390   19.2960 C.3       8 GLP5        0.0000 
     68 CA         17.7560   12.4970   22.7435 C.3       4 GLC5        0.0000 
     69 CA         16.9420   10.9560   23.8210 C.3      12 GLL5        0.0000 
     70 CA         26.2385    9.0390   19.2922 C.3       4 GLC5        0.0000 
     71 CA         25.7740   11.0720   19.4940 C.3      12 GLL5        0.0000 
     72 CA         26.0770    7.1380   19.2690 C.3       8 GLP5        0.0000 
     73 CA         26.6962   14.2140   26.2525 C.3       4 GLC5        0.0000 
     74 CA         25.6760   15.9110   24.9520 C.3      12 GLL5        0.0000 
     75 CA         27.0710   12.7240   27.7680 C.3       8 GLP5        0.0000 
     76 CA         26.9880   12.3548   24.8937 C.3       4 GLC5        0.0000 
     77 CA         27.1190   14.2850   23.7900 C.3      12 GLL5        0.0000 
     78 CA         24.6175   14.8262   22.3085 C.3       4 GLC5        0.0000 
     79 CA         25.9710   13.4800   23.4990 C.3      12 GLL5        0.0000 
     80 CA         23.9110   15.9660   20.9030 C.3       8 GLP5        0.0000 
     81 CA         22.8753   15.3985   24.7362 C.3       4 GLC5        0.0000 
     82 CA         24.6770   13.8930   23.9290 C.3      12 GLL5        0.0000 
     83 CA         21.1480   16.2940   25.1800 C.3       8 GLP5        0.0000 
     84 CA         24.5065   15.7390   22.8535 C.3       4 GLC5        0.0000 
     85 CA         24.5280   15.1130   24.6560 C.3      12 GLL5        0.0000 
     86 CA         29.8985   12.3850   19.3912 C.3       4 GLC5        0.0000 
     87 CA         28.8723   13.3523   18.9123 C.3       4 GLC5        0.0000 
     88 CA         28.2290   14.9260   20.0160 C.3      12 GLL5        0.0000 
     89 CA         26.6459   15.8089   20.2264 C.3       4 GLC5        0.0000 
     90 CA         27.7220   13.8510   20.9750 C.3      12 GLL5        0.0000 
     91 CA         21.0919   10.4842   22.0072 C.3       4 GLC5        0.0000 
     92 CA         22.6520   10.8310   23.1420 C.3      12 GLL5        0.0000 
     93 CA         22.7293    8.5907   20.3840 C.3       4 GLC5        0.0000 
     94 CA         21.9970    6.9250   19.2930 C.3       8 GLP5        0.0000 
     95 CA         25.2745    8.8148   20.0012 C.3       4 GLC5        0.0000 
     96 CA         23.8000   10.6420   20.9170 C.3      12 GLL5        0.0000 
     97 CA         21.6143   12.6780   20.4228 C.3       4 GLC5        0.0000 
     98 CA         23.0940   11.6750   20.2240 C.3      12 GLL5        0.0000 
     99 CA         19.8150   13.3210   21.1450 C.3       8 GLP5        0.0000 
    100 CA         23.5810   14.1210   20.2209 C.3       4 GLC5        0.0000 
    101 CA         18.3610   10.1335   28.3725 C.3       4 GLC5        0.0000 
    102 CA         19.1350   11.3150   27.1530 C.3      12 GLL5        0.0000 
    103 CA         16.9170    9.2090   29.3470 C.3       8 GLP5        0.0000 
    104 CA         14.0525    8.2835   26.1060 C.3       4 GLC5        0.0000 
    105 CA         15.1370   10.0880   25.8540 C.3      12 GLL5        0.0000 
    106 CA         12.9710    6.7960   26.9960 C.3       8 GLP5        0.0000 
    107 CA         17.5233    8.6445   23.3770 C.3       4 GLC5        0.0000 
    108 CA         18.5590    6.8660   23.0610 C.3       8 GLP5        0.0000 
@<TRIPOS>BOND
@<TRIPOS>SUBSTRUCTURE
     1 ALC1       37 GROUP        1 X    ALC  0     ROOT ALC X 1
     2 SEC2       13 GROUP        1 X    SEC  0     **** SEC X 2
     3 ASC3       57 GROUP        1 X    ASC  0     **** ASC X 3
     4 GLC5        1 GROUP        1 X    GLC  0     **** GLC X 6
     5 ALP1       39 GROUP        1 Y    ALP  0     ROOT ALP Y 8
     6 SEP2       15 GROUP        1 Y    SEP  0     **** SEP Y 9
     7 ASP3       59 GROUP        1 Y    ASP  0     **** ASP Y 10
     8 GLP5        3 GROUP        1 Y    GLP  0     **** GLP Y 13
     9 ALL1       38 GROUP        1 Z    ALL  0     ROOT ALL Z 15
    10 SEL2       14 GROUP        1 Z    SEL  0     **** SEL Z 16
    11 ASL3       58 GROUP        1 Z    ASL  0     **** ASL Z 17
    12 GLL5        2 GROUP        1 Z    GLL  0     **** GLL Z 20
@<TRIPOS>SET

