#    Name: 3cib_314_1_ligand
#    Modification time : Mon Mar 24 21:29:26 2014

@<TRIPOS>MOLECULE
3cib_314_1_ligand
   88    91     1     0     0
SMALL
NO_CHARGES


@<TRIPOS>ATOM
      1 F1         27.0260   10.8080   19.1370 F         1 314501      0.0000 
      2 F2         23.0830   13.3590   18.5300 F         1 314501      0.0000 
      3 C1         26.9670   15.4970   24.5220 C.ar      1 314501      0.0000 
      4 C2         27.1190   14.2850   23.7900 C.ar      1 314501      0.0000 
      5 C3         25.9710   13.4800   23.4990 C.ar      1 314501      0.0000 
      6 C4         24.6770   13.8930   23.9290 C.ar      1 314501      0.0000 
      7 C5         24.5280   15.1130   24.6560 C.ar      1 314501      0.0000 
      8 C6         25.6760   15.9110   24.9520 C.ar      1 314501      0.0000 
      9 C7         28.4540   13.8480   23.3730 C.2       1 314501      0.0000 
     10 N1         28.7000   13.6420   22.0440 N.am      1 314501      0.0000 
     11 O1         29.3310   13.6560   24.2090 O.2       1 314501      0.0000 
     12 C8         30.0440   13.1900   21.7000 C.3       1 314501      0.0000 
     13 C9         27.7220   13.8510   20.9750 C.3       1 314501      0.0000 
     14 C10        28.2290   14.9260   20.0160 C.3       1 314501      0.0000 
     15 C11        28.7940   16.1390   20.7520 C.3       1 314501      0.0000 
     16 C12        30.0120   11.7180   21.2070 C.3       1 314501      0.0000 
     17 C13        29.1930   10.7760   22.1100 C.3       1 314501      0.0000 
     18 C14        25.5260   17.1700   25.7040 C.3       1 314501      0.0000 
     19 C15        23.5000   13.0770   23.6160 C.2       1 314501      0.0000 
     20 O2         22.3790   13.5510   23.4840 O.2       1 314501      0.0000 
     21 N2         23.7510   11.7520   23.4810 N.am      1 314501      0.0000 
     22 C16        22.6520   10.8310   23.1420 C.3       1 314501      0.0000 
     23 C17        22.1250   10.0290   24.3540 C.3       1 314501      0.0000 
     24 O3         21.2030    9.0310   23.8910 O.3       1 314501      0.0000 
     25 C18        23.1230    9.8710   22.0330 C.3       1 314501      0.0000 
     26 C19        23.8000   10.6420   20.9170 C.ar      1 314501      0.0000 
     27 C20        25.1440   10.3410   20.5500 C.ar      1 314501      0.0000 
     28 C21        25.7740   11.0720   19.4940 C.ar      1 314501      0.0000 
     29 C22        25.0680   12.0950   18.8120 C.ar      1 314501      0.0000 
     30 C23        23.7330   12.3950   19.1770 C.ar      1 314501      0.0000 
     31 C24        23.0940   11.6750   20.2240 C.ar      1 314501      0.0000 
     32 C25        21.3970   10.8940   25.3900 C.3       1 314501      0.0000 
     33 C26        20.0980   11.4990   24.8210 C.3       1 314501      0.0000 
     34 C27        19.2700   12.1920   25.9060 C.3       1 314501      0.0000 
     35 C28        19.1350   11.3150   27.1530 C.3       1 314501      0.0000 
     36 C29        20.4750   10.8010   27.6430 C.3       1 314501      0.0000 
     37 N3         21.1010   10.0310   26.5560 N.4       1 314501      0.0000 
     38 C30        17.9180   12.7260   25.3740 C.3       1 314501      0.0000 
     39 C31        16.9520   11.5900   25.0960 C.ar      1 314501      0.0000 
     40 C32        16.0490   11.1570   26.1120 C.ar      1 314501      0.0000 
     41 C33        15.1370   10.0880   25.8540 C.ar      1 314501      0.0000 
     42 C34        15.1310    9.4540   24.5780 C.ar      1 314501      0.0000 
     43 C35        16.0330    9.8900   23.5650 C.ar      1 314501      0.0000 
     44 C36        16.9420   10.9560   23.8210 C.ar      1 314501      0.0000 
     45 H          27.7824   16.0663   24.7370 H         1 314501      0.0000 
     46 H          26.0832   12.6103   22.9830 H         1 314501      0.0000 
     47 H          23.6082   15.4135   24.9623 H         1 314501      0.0000 
     48 H          30.7119   13.2346   22.5637 H         1 314501      0.0000 
     49 H          30.4752   13.7969   20.9001 H         1 314501      0.0000 
     50 H          26.7636   14.1780   21.3823 H         1 314501      0.0000 
     51 H          27.5624   12.9321   20.4080 H         1 314501      0.0000 
     52 H          27.4046   15.2494   19.3717 H         1 314501      0.0000 
     53 H          29.0095   14.4981   19.3779 H         1 314501      0.0000 
     54 H          31.0437   11.3476   21.1454 H         1 314501      0.0000 
     55 H          29.5908   11.6980   20.1933 H         1 314501      0.0000 
     56 H          24.6771   11.3428   23.6027 H         1 314501      0.0000 
     57 H          21.8116   11.3990   22.7293 H         1 314501      0.0000 
     58 H          22.9697    9.5574   24.8401 H         1 314501      0.0000 
     59 H          22.2603    9.3379   21.6413 H         1 314501      0.0000 
     60 H          23.8203    9.1556   22.4617 H         1 314501      0.0000 
     61 H          25.6545    9.6106   21.0351 H         1 314501      0.0000 
     62 H          25.5209   12.6129   18.0608 H         1 314501      0.0000 
     63 H          22.1351   11.8920   20.4826 H         1 314501      0.0000 
     64 H          22.0538   11.6918   25.6874 H         1 314501      0.0000 
     65 H          19.5057   10.7018   24.3690 H         1 314501      0.0000 
     66 H          20.3555   12.2228   24.0461 H         1 314501      0.0000 
     67 H          19.8623   13.0969   26.2187 H         1 314501      0.0000 
     68 H          18.4821   10.4660   26.9201 H         1 314501      0.0000 
     69 H          18.6564   11.8995   27.9472 H         1 314501      0.0000 
     70 H          20.3132   10.1730   28.5141 H         1 314501      0.0000 
     71 H          21.0960   11.6477   27.9203 H         1 314501      0.0000 
     72 H          18.1024   13.2862   24.4583 H         1 314501      0.0000 
     73 H          17.4932   13.3980   26.1186 H         1 314501      0.0000 
     74 H          16.0538   11.6099   27.0227 H         1 314501      0.0000 
     75 H          14.4957    9.7822   26.5788 H         1 314501      0.0000 
     76 H          14.4849    8.6927   24.3910 H         1 314501      0.0000 
     77 H          16.0275    9.4363   22.6520 H         1 314501      0.0000 
     78 H          17.5828   11.2638   23.0944 H         1 314501      0.0000 
     79 H          29.5621   15.8907   21.3422 H         1 314501      0.0000 
     80 H          29.1257   16.8371   20.1175 H         1 314501      0.0000 
     81 H          28.1064   16.5742   21.3333 H         1 314501      0.0000 
     82 H          29.1901    9.8382   21.7628 H         1 314501      0.0000 
     83 H          29.5582   10.7429   23.0404 H         1 314501      0.0000 
     84 H          28.2384   11.0656   22.1799 H         1 314501      0.0000 
     85 H          26.0472   17.1572   26.5573 H         1 314501      0.0000 
     86 H          25.8455   17.9576   25.1771 H         1 314501      0.0000 
     87 H          24.5719   17.3467   25.9459 H         1 314501      0.0000 
     88 H          21.7753    8.3185   23.4851 H         1 314501      0.0000 
@<TRIPOS>BOND
     1   28    1 1    
     2   30    2 1    
     3    4    3 ar   
     4    8    3 ar   
     5   45    3 1    
     6    5    4 ar   
     7    9    4 1    
     8    6    5 ar   
     9   46    5 1    
    10    7    6 ar   
    11   19    6 1    
    12    8    7 ar   
    13   47    7 1    
    14   18    8 1    
    15   10    9 am   
    16   11    9 2    
    17   12   10 1    
    18   13   10 1    
    19   16   12 1    
    20   48   12 1    
    21   49   12 1    
    22   14   13 1    
    23   50   13 1    
    24   51   13 1    
    25   15   14 1    
    26   52   14 1    
    27   53   14 1    
    28   79   15 1    
    29   80   15 1    
    30   81   15 1    
    31   17   16 1    
    32   54   16 1    
    33   55   16 1    
    34   82   17 1    
    35   83   17 1    
    36   84   17 1    
    37   85   18 1    
    38   86   18 1    
    39   87   18 1    
    40   20   19 2    
    41   21   19 am   
    42   22   21 1    
    43   56   21 1    
    44   23   22 1    
    45   25   22 1    
    46   57   22 1    
    47   24   23 1    
    48   32   23 1    
    49   58   23 1    
    50   88   24 1    
    51   26   25 1    
    52   59   25 1    
    53   60   25 1    
    54   27   26 ar   
    55   31   26 ar   
    56   28   27 ar   
    57   61   27 1    
    58   29   28 ar   
    59   30   29 ar   
    60   62   29 1    
    61   31   30 ar   
    62   63   31 1    
    63   33   32 1    
    64   37   32 1    
    65   64   32 1    
    66   34   33 1    
    67   65   33 1    
    68   66   33 1    
    69   35   34 1    
    70   38   34 1    
    71   67   34 1    
    72   36   35 1    
    73   68   35 1    
    74   69   35 1    
    75   37   36 1    
    76   70   36 1    
    77   71   36 1    
    78   39   38 1    
    79   72   38 1    
    80   73   38 1    
    81   40   39 ar   
    82   44   39 ar   
    83   41   40 ar   
    84   74   40 1    
    85   42   41 ar   
    86   75   41 1    
    87   43   42 ar   
    88   76   42 1    
    89   44   43 ar   
    90   77   43 1    
    91   78   44 1    
@<TRIPOS>SUBSTRUCTURE
     1 314501      1 GROUP   
@<TRIPOS>SET

