#    Name: 4isf_1FX_1_INTS_M
#    Modification time : Tue Mar 25 04:28:34 2014

@<TRIPOS>MOLECULE
4isf_1FX_1_INTS_M
   58     0     9     0     0
SMALL
NO_CHARGES


@<TRIPOS>ATOM
      1 CA         35.7680   39.3295   48.2065 C.3       3 GLC5        0.0000 
      2 CA         35.9300   40.8880   49.5340 C.3       9 GLL5        0.0000 
      3 CA         35.6060   37.7710   46.8790 C.3       6 GLP5        0.0000 
      4 CA         36.0080   41.9510   47.6400 C.3       3 GLC5        0.0000 
      5 CA         37.8670   41.0660   48.2320 C.3       9 GLL5        0.0000 
      6 CA         34.1490   42.8360   47.0480 C.3       6 GLP5        0.0000 
      7 CA         36.7365   39.4185   47.5555 C.3       3 GLC5        0.0000 
      8 O          30.2785   40.7885   54.2440 O.2       1 ALC1        0.0000 
      9 O          31.0700   39.6860   54.4180 O.2       7 ALL1        0.0000 
     10 O          29.4870   41.8910   54.0700 O.2       4 ALP1        0.0000 
     11 N          28.7110   39.4760   55.5710 N.am      2 SEC2        0.0000 
     12 N          29.9170   38.6710   56.0820 N.am      8 SEL2        0.0000 
     13 N          27.5050   40.2810   55.0600 N.am      5 SEP2        0.0000 
     14 CA         28.3120   37.9565   55.5390 C.3       3 GLC5        0.0000 
     15 CA         29.9330   37.7170   56.9270 C.3       9 GLL5        0.0000 
     16 CA         26.6910   38.1960   54.1510 C.3       6 GLP5        0.0000 
     17 CA         29.3670   37.8225   58.8560 C.3       3 GLC5        0.0000 
     18 CA         28.8010   37.9280   60.7850 C.3       6 GLP5        0.0000 
     19 CA         33.1165   39.1520   56.2150 C.3       3 GLC5        0.0000 
     20 CA         32.0710   37.5730   55.7490 C.3       9 GLL5        0.0000 
     21 CA         34.1620   40.7310   56.6810 C.3       6 GLP5        0.0000 
     22 CA         31.2930   36.5830   54.1330 C.3       3 GLC5        0.0000 
     23 CA         30.5150   35.5930   52.5170 C.3       6 GLP5        0.0000 
     24 CA         29.4400   39.1720   51.5485 C.3       3 GLC5        0.0000 
     25 CA         31.0460   40.0920   51.1850 C.3       9 GLL5        0.0000 
     26 CA         27.8340   38.2520   51.9120 C.3       6 GLP5        0.0000 
     27 CA         31.8125   38.1315   51.2010 C.3       3 GLC5        0.0000 
     28 CA         32.5790   36.1710   51.2170 C.3       6 GLP5        0.0000 
     29 CA         28.9250   39.2750   50.4350 C.3       3 GLC5        0.0000 
     30 CA         30.0160   40.2980   48.9580 C.3       9 GLL5        0.0000 
     31 CA         29.8835   38.3995   48.3965 C.3       3 GLC5        0.0000 
     32 CA         29.7510   36.5010   47.8350 C.3       6 GLP5        0.0000 
     33 CA         31.1440   41.6040   46.6025 C.3       3 GLC5        0.0000 
     34 CA         29.8180   41.1520   47.7200 C.3       9 GLL5        0.0000 
     35 CA         32.4700   42.0560   45.4850 C.3       6 GLP5        0.0000 
     36 CA         30.4530   42.8550   46.8420 C.3       3 GLC5        0.0000 
     37 CA         29.0720   42.4300   48.0770 C.3       9 GLL5        0.0000 
     38 CA         31.8340   43.2800   45.6070 C.3       6 GLP5        0.0000 
     39 CA         27.3395   42.4650   48.8965 C.3       3 GLC5        0.0000 
     40 CA         25.6070   42.5000   49.7160 C.3       6 GLP5        0.0000 
     41 CA         31.0810   43.7455   47.7885 C.3       3 GLC5        0.0000 
     42 CA         29.8220   43.2180   49.1490 C.3       9 GLL5        0.0000 
     43 CA         32.3400   44.2730   46.4280 C.3       6 GLP5        0.0000 
     44 CA         29.6795   43.5140   52.0420 C.3       3 GLC5        0.0000 
     45 CA         30.1370   42.3570   50.3720 C.3       9 GLL5        0.0000 
     46 CA         29.2220   44.6710   53.7120 C.3       6 GLP5        0.0000 
     47 CA         38.8840   41.0844   49.5867 C.3       3 GLC5        0.0000 
     48 CA         37.4500   42.7610   49.8600 C.3       9 GLL5        0.0000 
     49 CA         40.3440   40.6380   50.2500 C.3       6 GLP5        0.0000 
     50 CA         30.0980   35.4255   57.3987 C.3       3 GLC5        0.0000 
     51 CA         31.0430   36.9870   56.9040 C.3       9 GLL5        0.0000 
     52 CA         29.7080   33.4990   57.8820 C.3       6 GLP5        0.0000 
     53 CA         32.7810   36.0260   56.6923 C.3       3 GLC5        0.0000 
     54 CA         34.0050   34.7720   57.0580 C.3       6 GLP5        0.0000 
     55 CA         27.9597   40.5233   47.8935 C.3       3 GLC5        0.0000 
     56 CA         26.4250   39.4690   47.5790 C.3       6 GLP5        0.0000 
     57 CA         28.0553   43.1022   50.4603 C.3       3 GLC5        0.0000 
     58 CA         26.1310   43.4170   51.1600 C.3       6 GLP5        0.0000 
@<TRIPOS>BOND
@<TRIPOS>SUBSTRUCTURE
     1 ALC1        8 GROUP        1 X    ALC  0     ROOT ALC X 1
     2 SEC2       11 GROUP        1 X    SEC  0     **** SEC X 2
     3 GLC5        1 GROUP        1 X    GLC  0     **** GLC X 6
     4 ALP1       10 GROUP        1 Y    ALP  0     ROOT ALP Y 8
     5 SEP2       13 GROUP        1 Y    SEP  0     **** SEP Y 9
     6 GLP5        3 GROUP        1 Y    GLP  0     **** GLP Y 13
     7 ALL1        9 GROUP        1 Z    ALL  0     ROOT ALL Z 15
     8 SEL2       12 GROUP        1 Z    SEL  0     **** SEL Z 16
     9 GLL5        2 GROUP        1 Z    GLL  0     **** GLL Z 20
@<TRIPOS>SET

