#    Name: 4isf_1FX_1_ligand
#    Modification time : Tue Mar 25 04:28:35 2014

@<TRIPOS>MOLECULE
4isf_1FX_1_ligand
   50    53     1     0     0
SMALL
NO_CHARGES


@<TRIPOS>ATOM
      1 O28        33.5320   39.6370   50.3360 O.2       1 1FX501      0.0000 
      2 C27        33.8610   40.6990   50.9120 C.2       1 1FX501      0.0000 
      3 C29        35.1070   41.3900   50.5230 C.ar      1 1FX501      0.0000 
      4 C30        35.9300   40.8880   49.5340 C.ar      1 1FX501      0.0000 
      5 C5         35.4620   42.6420   51.2260 C.ar      1 1FX501      0.0000 
      6 N6         34.6510   43.1170   52.1830 N.am      1 1FX501      0.0000 
      7 C4         36.6410   43.2980   50.8680 C.ar      1 1FX501      0.0000 
      8 C3         37.4500   42.7610   49.8600 C.ar      1 1FX501      0.0000 
      9 C2         37.0940   41.5730   49.2050 C.ar      1 1FX501      0.0000 
     10 F1         37.8670   41.0660   48.2320 F         1 1FX501      0.0000 
     11 N10        33.0760   41.2880   51.9300 N.am      1 1FX501      0.0000 
     12 C8         33.5090   42.4890   52.5340 C.2       1 1FX501      0.0000 
     13 O9         32.7930   42.9790   53.4270 O.2       1 1FX501      0.0000 
     14 C11        31.8070   40.6880   52.3670 C.3       1 1FX501      0.0000 
     15 C19        31.9900   39.6540   53.4440 C.2       1 1FX501      0.0000 
     16 N21        31.0700   39.6860   54.4180 N.am      1 1FX501      0.0000 
     17 C22        30.9610   38.7600   55.3700 C.2       1 1FX501      0.0000 
     18 N23        29.9170   38.6710   56.0820 N.2       1 1FX501      0.0000 
     19 C24        29.9330   37.7170   56.9270 C.2       1 1FX501      0.0000 
     20 C25        31.0430   36.9870   56.9040 C.2       1 1FX501      0.0000 
     21 S26        32.0710   37.5730   55.7490 S.3       1 1FX501      0.0000 
     22 O20        32.8940   38.8380   53.3580 O.2       1 1FX501      0.0000 
     23 C12        31.0460   40.0920   51.1850 C.3       1 1FX501      0.0000 
     24 C13        30.8390   41.0480   49.9970 C.3       1 1FX501      0.0000 
     25 C14        30.0160   40.2980   48.9580 C.3       1 1FX501      0.0000 
     26 C15        29.8180   41.1520   47.7200 C.3       1 1FX501      0.0000 
     27 C16        29.0720   42.4300   48.0770 C.3       1 1FX501      0.0000 
     28 C17        29.8220   43.2180   49.1490 C.3       1 1FX501      0.0000 
     29 C18        30.1370   42.3570   50.3720 C.3       1 1FX501      0.0000 
     30 H          35.6887   40.0198   49.0453 H         1 1FX501      0.0000 
     31 H          34.9119   44.0132   52.6812 H         1 1FX501      0.0000 
     32 H          36.9131   44.1645   51.3377 H         1 1FX501      0.0000 
     33 H          38.3213   43.2452   49.5939 H         1 1FX501      0.0000 
     34 H          31.1606   41.4881   52.7816 H         1 1FX501      0.0000 
     35 H          30.3806   40.5086   54.4292 H         1 1FX501      0.0000 
     36 H          29.1738   37.5084   57.5769 H         1 1FX501      0.0000 
     37 H          31.3573   36.2477   57.3759 H         1 1FX501      0.0000 
     38 H          30.0556   39.7444   51.5329 H         1 1FX501      0.0000 
     39 H          31.5847   39.1959   50.8251 H         1 1FX501      0.0000 
     40 H          31.8020   41.2671   49.5622 H         1 1FX501      0.0000 
     41 H          29.0460   40.0446   49.3833 H         1 1FX501      0.0000 
     42 H          30.5328   39.3787   48.6862 H         1 1FX501      0.0000 
     43 H          29.2440   40.5950   46.9826 H         1 1FX501      0.0000 
     44 H          30.7869   41.4079   47.2966 H         1 1FX501      0.0000 
     45 H          28.0787   42.1774   48.4476 H         1 1FX501      0.0000 
     46 H          28.9671   43.0484   47.1858 H         1 1FX501      0.0000 
     47 H          29.2136   44.0716   49.4589 H         1 1FX501      0.0000 
     48 H          30.7565   43.5976   48.7278 H         1 1FX501      0.0000 
     49 H          30.7789   42.9233   51.0543 H         1 1FX501      0.0000 
     50 H          29.2051   42.1243   50.8971 H         1 1FX501      0.0000 
@<TRIPOS>BOND
     1    2    1 2    
     2    3    2 1    
     3   11    2 am   
     4    4    3 ar   
     5    5    3 ar   
     6    9    4 ar   
     7   30    4 1    
     8    6    5 1    
     9    7    5 ar   
    10   12    6 am   
    11   31    6 1    
    12    8    7 ar   
    13   32    7 1    
    14    9    8 ar   
    15   33    8 1    
    16   10    9 1    
    17   12   11 am   
    18   14   11 1    
    19   13   12 2    
    20   15   14 1    
    21   23   14 1    
    22   34   14 1    
    23   16   15 am   
    24   22   15 2    
    25   17   16 1    
    26   35   16 1    
    27   18   17 2    
    28   21   17 1    
    29   19   18 1    
    30   20   19 2    
    31   36   19 1    
    32   21   20 1    
    33   37   20 1    
    34   24   23 1    
    35   38   23 1    
    36   39   23 1    
    37   25   24 1    
    38   29   24 1    
    39   40   24 1    
    40   26   25 1    
    41   41   25 1    
    42   42   25 1    
    43   27   26 1    
    44   43   26 1    
    45   44   26 1    
    46   28   27 1    
    47   45   27 1    
    48   46   27 1    
    49   29   28 1    
    50   47   28 1    
    51   48   28 1    
    52   49   29 1    
    53   50   29 1    
@<TRIPOS>SUBSTRUCTURE
     1 1FX501      1 GROUP   
@<TRIPOS>SET

