#    Name: 3r28_XA0_1_INTS_M
#    Modification time : Tue Mar 25 10:28:45 2014

@<TRIPOS>MOLECULE
3r28_XA0_1_INTS_M
   51     0     9     0     0
SMALL
NO_CHARGES


@<TRIPOS>ATOM
      1 O         -63.3330  -11.0365   23.2255 O.2       1 ALC1        0.0000 
      2 O         -64.3640  -10.4170   24.1010 O.2       7 ALL1        0.0000 
      3 O         -62.3020  -11.6560   22.3500 O.2       4 ALP1        0.0000 
      4 O         -66.8435  -10.3300   19.5365 O.2       1 ALC1        0.0000 
      5 O         -66.8460   -9.6810   20.8710 O.2       7 ALL1        0.0000 
      6 O         -66.8410  -10.9790   18.2020 O.2       4 ALP1        0.0000 
      7 CA        -63.1840   -8.1770   24.1280 C.3       3 GLC5        0.0000 
      8 CA        -63.1700  -10.0440   24.9160 C.3       9 GLL5        0.0000 
      9 CA        -63.1980   -6.3100   23.3400 C.3       6 GLP5        0.0000 
     10 CA        -61.4260  -12.6035   24.2955 C.3       3 GLC5        0.0000 
     11 CA        -63.0260  -12.4590   25.7060 C.3       9 GLL5        0.0000 
     12 CA        -59.8260  -12.7480   22.8850 C.3       6 GLP5        0.0000 
     13 N         -64.3265  -11.4765   20.8125 N.am      2 SEC2        0.0000 
     14 N         -65.3380  -11.0730   21.7540 N.am      8 SEL2        0.0000 
     15 N         -63.3150  -11.8800   19.8710 N.am      5 SEP2        0.0000 
     16 CA        -66.8160  -10.3015   27.8045 C.3       3 GLC5        0.0000 
     17 CA        -67.5690   -8.5990   27.5350 C.3       9 GLL5        0.0000 
     18 CA        -66.0630  -12.0040   28.0740 C.3       6 GLP5        0.0000 
     19 CA        -69.4675   -9.1480   27.5860 C.3       3 GLC5        0.0000 
     20 CA        -71.3660   -9.6970   27.6370 C.3       6 GLP5        0.0000 
     21 CA        -64.8955  -14.4170   26.7600 C.3       3 GLC5        0.0000 
     22 CA        -62.9050  -14.7000   26.4510 C.3       9 GLL5        0.0000 
     23 CA        -66.8860  -14.1340   27.0690 C.3       6 GLP5        0.0000 
     24 CA        -63.7280  -16.4720   25.4760 C.3       3 GLC5        0.0000 
     25 CA        -64.5510  -18.2440   24.5010 C.3       6 GLP5        0.0000 
     26 CA        -63.0230  -14.9760   24.7785 C.3       3 GLC5        0.0000 
     27 CA        -63.1410  -15.2520   23.1060 C.3       6 GLP5        0.0000 
     28 CA        -64.2035  -12.9545   28.5435 C.3       3 GLC5        0.0000 
     29 CA        -62.3440  -13.9050   29.0130 C.3       9 GLL5        0.0000 
     30 CA        -68.0637  -10.9720   22.6755 C.3       3 GLC5        0.0000 
     31 CA        -67.8110   -9.3060   23.5070 C.3       9 GLL5        0.0000 
     32 CA        -68.9690  -12.3740   21.9790 C.3       6 GLP5        0.0000 
     33 CA        -66.5122  -11.7270   24.7242 C.3       3 GLC5        0.0000 
     34 CA        -66.5060   -9.8340   23.2370 C.3       9 GLL5        0.0000 
     35 CA        -66.9930  -13.5630   25.6720 C.3       6 GLP5        0.0000 
     36 CA        -65.4494   -8.5685   22.6545 C.3       3 GLC5        0.0000 
     37 CA        -65.5570   -9.9480   24.3160 C.3       9 GLL5        0.0000 
     38 CA        -64.5410   -7.3780   21.4650 C.3       6 GLP5        0.0000 
     39 CA        -66.3252  -10.6475   26.9185 C.3       3 GLC5        0.0000 
     40 CA        -65.9470   -9.5470   25.6270 C.3       9 GLL5        0.0000 
     41 CA        -68.9489  -10.2551   25.6193 C.3       3 GLC5        0.0000 
     42 CA        -67.2280   -9.0350   25.8990 C.3       9 GLL5        0.0000 
     43 CA        -70.2830  -11.4420   26.2050 C.3       6 GLP5        0.0000 
     44 CA        -60.9765  -10.0775   25.1115 C.3       3 GLC5        0.0000 
     45 CA        -58.8960   -9.5970   24.7630 C.3       6 GLP5        0.0000 
     46 CA        -64.4325  -11.4322   27.3712 C.3       3 GLC5        0.0000 
     47 CA        -62.9440  -11.0720   26.0040 C.3       9 GLL5        0.0000 
     48 CA        -64.4938  -12.4718   27.1463 C.3       3 GLC5        0.0000 
     49 CA        -62.8230  -13.4200   26.7310 C.3       9 GLL5        0.0000 
     50 CA        -64.2040  -11.8829   28.4875 C.3       3 GLC5        0.0000 
     51 CA        -62.4550  -11.6130   28.3600 C.3       9 GLL5        0.0000 
@<TRIPOS>BOND
@<TRIPOS>SUBSTRUCTURE
     1 ALC1        1 GROUP        1 X    ALC  0     ROOT ALC X 1
     2 SEC2       13 GROUP        1 X    SEC  0     **** SEC X 2
     3 GLC5        7 GROUP        1 X    GLC  0     **** GLC X 6
     4 ALP1        3 GROUP        1 Y    ALP  0     ROOT ALP Y 8
     5 SEP2       15 GROUP        1 Y    SEP  0     **** SEP Y 9
     6 GLP5        9 GROUP        1 Y    GLP  0     **** GLP Y 13
     7 ALL1        2 GROUP        1 Z    ALL  0     ROOT ALL Z 15
     8 SEL2       14 GROUP        1 Z    SEL  0     **** SEL Z 16
     9 GLL5        8 GROUP        1 Z    GLL  0     **** GLL Z 20
@<TRIPOS>SET

