#    Name: 3r28_XA0_1_ligand
#    Modification time : Tue Mar 25 10:28:45 2014

@<TRIPOS>MOLECULE
3r28_XA0_1_ligand
   33    34     1     0     0
SMALL
NO_CHARGES


@<TRIPOS>ATOM
      1 N01       -64.3640  -10.4170   24.1010 N.pl3     1 XA0782      0.0000 
      2 N02       -66.8460   -9.6810   20.8710 N.am      1 XA0782      0.0000 
      3 N03       -69.3780   -8.4230   25.0170 N.pl3     1 XA0782      0.0000 
      4 C04       -67.8110   -9.3060   23.5070 C.ar      1 XA0782      0.0000 
      5 C05       -66.5060   -9.8340   23.2370 C.ar      1 XA0782      0.0000 
      6 C06       -65.5570   -9.9480   24.3160 C.ar      1 XA0782      0.0000 
      7 C07       -65.9470   -9.5470   25.6270 C.ar      1 XA0782      0.0000 
      8 C08       -67.2280   -9.0350   25.8990 C.ar      1 XA0782      0.0000 
      9 C09       -68.1920   -8.8970   24.8290 C.ar      1 XA0782      0.0000 
     10 C10       -66.1880  -10.2250   21.9470 C.2       1 XA0782      0.0000 
     11 C11       -63.1700  -10.0440   24.9160 C.3       1 XA0782      0.0000 
     12 C12       -62.9440  -11.0720   26.0040 C.ar      1 XA0782      0.0000 
     13 C13       -62.6600  -10.6490   27.3330 C.ar      1 XA0782      0.0000 
     14 C14       -62.4550  -11.6130   28.3600 C.ar      1 XA0782      0.0000 
     15 C15       -62.5350  -13.0000   28.0580 C.ar      1 XA0782      0.0000 
     16 C16       -62.8230  -13.4200   26.7310 C.ar      1 XA0782      0.0000 
     17 C17       -63.0260  -12.4590   25.7060 C.ar      1 XA0782      0.0000 
     18 O18       -65.3380  -11.0730   21.7540 O.2       1 XA0782      0.0000 
     19 O19       -70.4000   -8.8620   24.3070 O.2       1 XA0782      0.0000 
     20 O20       -69.5940   -7.4530   25.8900 O.2       1 XA0782      0.0000 
     21 CL21      -67.5690   -8.5990   27.5350 Cl        1 XA0782      0.0000 
     22 F22       -62.9050  -14.7000   26.4510 F         1 XA0782      0.0000 
     23 F23       -62.1950  -11.2170   29.5930 F         1 XA0782      0.0000 
     24 F24       -62.3440  -13.9050   29.0130 F         1 XA0782      0.0000 
     25 H         -64.1459  -11.1023   23.3285 H         1 XA0782      0.0000 
     26 H         -66.5850  -10.0326   19.9720 H         1 XA0782      0.0000 
     27 H         -67.5285   -8.9809   21.0807 H         1 XA0782      0.0000 
     28 H         -68.4853   -9.2185   22.7422 H         1 XA0782      0.0000 
     29 H         -65.2614   -9.6386   26.3957 H         1 XA0782      0.0000 
     30 H         -63.3228   -9.0662   25.3745 H         1 XA0782      0.0000 
     31 H         -62.2852   -9.9964   24.2800 H         1 XA0782      0.0000 
     32 H         -62.6034   -9.6560   27.5493 H         1 XA0782      0.0000 
     33 H         -63.2307  -12.7635   24.7555 H         1 XA0782      0.0000 
@<TRIPOS>BOND
     1    6    1 1    
     2   11    1 1    
     3   25    1 1    
     4   10    2 am   
     5   26    2 1    
     6   27    2 1    
     7    9    3 1    
     8   19    3 2    
     9   20    3 2    
    10    5    4 ar   
    11    9    4 ar   
    12   28    4 1    
    13    6    5 ar   
    14   10    5 1    
    15    7    6 ar   
    16    8    7 ar   
    17   29    7 1    
    18    9    8 ar   
    19   21    8 1    
    20   18   10 2    
    21   12   11 1    
    22   30   11 1    
    23   31   11 1    
    24   13   12 ar   
    25   17   12 ar   
    26   14   13 ar   
    27   32   13 1    
    28   15   14 ar   
    29   23   14 1    
    30   16   15 ar   
    31   24   15 1    
    32   17   16 ar   
    33   22   16 1    
    34   33   17 1    
@<TRIPOS>SUBSTRUCTURE
     1 XA0782      1 GROUP   
@<TRIPOS>SET

