#    Name: 5pah_LDP_1_ligand
#    Modification time : Tue Mar 25 13:49:18 2014

@<TRIPOS>MOLECULE
5pah_LDP_1_ligand
   21    21     1     0     0
SMALL
NO_CHARGES


@<TRIPOS>ATOM
      1 C7         -6.3040   25.0190    3.5310 C.3       1 LDP600      0.0000 
      2 C1         -5.0490   25.2350    4.5000 C.ar      1 LDP600      0.0000 
      3 C4         -2.8220   25.6720    6.3810 C.ar      1 LDP600      0.0000 
      4 C2         -3.6510   24.9220    4.0670 C.ar      1 LDP600      0.0000 
      5 C6         -5.2650   25.7680    5.8930 C.ar      1 LDP600      0.0000 
      6 C5         -4.1810   25.9770    6.7950 C.ar      1 LDP600      0.0000 
      7 C3         -2.5340   25.1380    5.0010 C.ar      1 LDP600      0.0000 
      8 O1         -1.2280   24.8680    4.6590 O.3       1 LDP600      0.0000 
      9 O2         -1.8140   25.8900    7.2940 O.3       1 LDP600      0.0000 
     10 C8         -7.4680   26.1480    3.6820 C.3       1 LDP600      0.0000 
     11 N1         -7.9880   26.2780    5.1070 N.4       1 LDP600      0.0000 
     12 H          -6.7506   24.0535    3.7463 H         1 LDP600      0.0000 
     13 H          -5.9590   25.0360    2.5021 H         1 LDP600      0.0000 
     14 H          -3.4888   24.5704    3.1510 H         1 LDP600      0.0000 
     15 H          -6.2235   25.9739    6.1648 H         1 LDP600      0.0000 
     16 H          -4.3455   26.3374    7.7264 H         1 LDP600      0.0000 
     17 H          -8.2692   25.8608    3.0034 H         1 LDP600      0.0000 
     18 H          -7.0358   27.0873    3.3416 H         1 LDP600      0.0000 
     19 H          -7.2612   26.5299    5.7460 H         1 LDP600      0.0000 
     20 H          -8.6986   26.9777    5.1807 H         1 LDP600      0.0000 
     21 H          -8.3847   25.4215    5.4372 H         1 LDP600      0.0000 
@<TRIPOS>BOND
     1    2    1 1    
     2   10    1 1    
     3   12    1 1    
     4   13    1 1    
     5    4    2 ar   
     6    5    2 ar   
     7    6    3 ar   
     8    7    3 ar   
     9    9    3 1    
    10    7    4 ar   
    11   14    4 1    
    12    6    5 ar   
    13   15    5 1    
    14   16    6 1    
    15    8    7 1    
    16   11   10 1    
    17   17   10 1    
    18   18   10 1    
    19   19   11 1    
    20   20   11 1    
    21   21   11 1    
@<TRIPOS>SUBSTRUCTURE
     1 LDP600      1 GROUP   
@<TRIPOS>SET

