#    Name: 1RQP_1_CAVITY_N1_6.mol2
#    Modification time : Tue Mar 11 06:21:20 2014

@<TRIPOS>MOLECULE
1RQP_1_CAVITY_N1_6.mol2
   49     0     5     0     0
SMALL
NO_CHARGES


@<TRIPOS>ATOM
      1 CZ         18.3151   38.6722   63.9346 C.ar      4 PHE5        0.0000 
      2 OG         17.3223   38.2903   64.9923 O.2       1 SER1        0.0000 
      3 NZ         18.2632   37.2784   63.3827 N.2       3 LYS4        0.0000 
      4 OG         17.2704   36.8965   64.4403 O.2       1 SER1        0.0000 
      5 NZ         18.2114   35.8846   62.8307 N.2       3 LYS4        0.0000 
      6 N          17.2186   35.5027   63.8884 N.2       2 ALA2        0.0000 
      7 CZ         18.1595   34.4908   62.2788 C.ar      4 PHE5        0.0000 
      8 N          17.1667   34.1089   63.3364 N.2       2 ALA2        0.0000 
      9 CZ         18.1077   33.0970   61.7268 C.ar      4 PHE5        0.0000 
     10 CZ         17.1149   32.7151   62.7844 C.ar      4 PHE5        0.0000 
     11 N          16.1221   32.3333   63.8421 N.2       2 ALA2        0.0000 
     12 N          15.1293   31.9514   64.8997 N.2       2 ALA2        0.0000 
     13 CZ         17.0630   31.3214   62.2325 C.ar      4 PHE5        0.0000 
     14 N          16.0703   30.9395   63.2901 N.2       2 ALA2        0.0000 
     15 N          15.0775   30.5576   64.3477 N.2       2 ALA2        0.0000 
     16 O          16.0184   29.5457   62.7382 O.2       2 ALA2        0.0000 
     17 NZ         19.3865   36.8766   64.2920 N.2       3 LYS4        0.0000 
     18 OG         18.3937   36.4947   65.3496 O.2       1 SER1        0.0000 
     19 CZ         17.4009   36.1128   66.4072 C.ar      4 PHE5        0.0000 
     20 NZ         19.3346   35.4828   63.7400 N.2       3 LYS4        0.0000 
     21 N          18.3419   35.1009   64.7976 N.2       2 ALA2        0.0000 
     22 N          17.3491   34.7190   65.8553 N.2       2 ALA2        0.0000 
     23 CZ         18.2900   33.7071   64.2457 C.ar      4 PHE5        0.0000 
     24 N          17.2972   33.3252   65.3033 N.2       2 ALA2        0.0000 
     25 N          16.3045   32.9433   66.3609 N.2       2 ALA2        0.0000 
     26 CZ         18.2382   32.3133   63.6937 C.ar      4 PHE5        0.0000 
     27 CZ         17.2454   31.9314   64.7513 C.ar      4 PHE5        0.0000 
     28 N          16.2526   31.5495   65.8090 N.2       2 ALA2        0.0000 
     29 CZ         17.1935   30.5376   64.1994 C.ar      4 PHE5        0.0000 
     30 OG         16.2008   30.1557   65.2570 O.2       1 SER1        0.0000 
     31 OG         20.5097   36.4747   65.2012 O.2       1 SER1        0.0000 
     32 OG         19.5170   36.0928   66.2589 O.2       1 SER1        0.0000 
     33 CZ         20.4579   35.0809   64.6493 C.ar      4 PHE5        0.0000 
     34 CA         19.4651   34.6990   65.7069 C.3       5 GLY6        0.0000 
     35 CZ         18.4723   34.3171   66.7645 C.ar      4 PHE5        0.0000 
     36 CA         19.4133   33.3052   65.1550 C.3       5 GLY6        0.0000 
     37 CA         18.4205   32.9233   66.2126 C.3       5 GLY6        0.0000 
     38 CA         18.3686   31.5295   65.6606 C.3       5 GLY6        0.0000 
     39 OG         17.3759   31.1476   66.7182 O.2       1 SER1        0.0000 
     40 NZ         17.1399   37.6803   62.4734 N.2       3 LYS4        0.0000 
     41 OG         16.1472   37.2984   63.5310 O.2       1 SER1        0.0000 
     42 CZ         17.0881   36.2865   61.9215 C.ar      4 PHE5        0.0000 
     43 CZ         16.0953   35.9046   62.9791 C.ar      4 PHE5        0.0000 
     44 CZ         17.0362   34.8927   61.3695 C.ar      4 PHE5        0.0000 
     45 O          16.9844   33.4989   60.8175 O.2       2 ALA2        0.0000 
     46 CZ         15.9916   33.1170   61.8752 C.ar      4 PHE5        0.0000 
     47 CZ         14.9989   32.7351   62.9328 C.ar      4 PHE5        0.0000 
     48 CZ         15.9398   31.7232   61.3232 C.ar      4 PHE5        0.0000 
     49 CA         14.9470   31.3413   62.3808 C.3       5 GLY6        0.0000 
@<TRIPOS>BOND
@<TRIPOS>SUBSTRUCTURE
     1 SER1        2 GROUP   
     2 ALA2        6 GROUP   
     3 LYS4        3 GROUP   
     4 PHE5        1 GROUP   
     5 GLY6       34 GROUP   
@<TRIPOS>SET

