#    Name: 1rqp_SAM_1_INTS_M
#    Modification time : Tue Mar 25 01:06:35 2014

@<TRIPOS>MOLECULE
1rqp_SAM_1_INTS_M
  105     0    15     0     0
SMALL
NO_CHARGES


@<TRIPOS>ATOM
      1 OD1        21.8455   36.6770   63.2970 O.co2     3 ASC3        0.0000 
      2 OD1        21.5960   36.3430   64.6100 O.co2    13 ASL3        0.0000 
      3 OD1        22.0950   37.0110   61.9840 O.co2     8 ASP3        0.0000 
      4 OD1        20.8530   36.5325   62.8630 O.co2     3 ASC3        0.0000 
      5 OD1        20.1100   36.7220   61.1160 O.co2     8 ASP3        0.0000 
      6 O          22.9685   37.0870   65.0955 O.2       1 ALC1        0.0000 
      7 O          21.5960   36.3430   64.6100 O.2      11 ALL1        0.0000 
      8 O          24.3410   37.8310   65.5810 O.2       6 ALP1        0.0000 
      9 O          22.0895   36.1390   66.0355 O.2       1 ALC1        0.0000 
     10 O          22.5830   35.9350   67.4610 O.2       6 ALP1        0.0000 
     11 O          21.8455   36.6770   63.2970 O.2       1 ALC1        0.0000 
     12 O          22.0950   37.0110   61.9840 O.2       6 ALP1        0.0000 
     13 O          22.3215   35.1745   64.5185 O.2       1 ALC1        0.0000 
     14 O          23.0470   34.0060   64.4270 O.2       6 ALP1        0.0000 
     15 CA         20.2880   38.0230   63.8950 C.3       5 GLC5        0.0000 
     16 CA         20.1620   36.1950   64.8790 C.3      15 GLL5        0.0000 
     17 CA         20.4140   39.8510   62.9110 C.3      10 GLP5        0.0000 
     18 NZ         20.5385   39.5460   66.8040 N.4       4 LYC4        0.0000 
     19 NZ         20.4060   38.2440   66.1360 N.4      14 LYL4        0.0000 
     20 NZ         21.9390   40.6960   67.7710 N.4       9 LYP4        0.0000 
     21 N          20.5385   39.5460   66.8040 N.am      2 SEC2        0.0000 
     22 N          20.4060   38.2440   66.1360 N.am     12 SEL2        0.0000 
     23 N          20.6710   40.8480   67.4720 N.am      7 SEP2        0.0000 
     24 N          21.4495   38.8660   66.8975 N.am      2 SEC2        0.0000 
     25 N          22.4930   39.4880   67.6590 N.am      7 SEP2        0.0000 
     26 N          18.0175   38.6745   66.3720 N.am      2 SEC2        0.0000 
     27 N          18.4700   37.8150   65.5880 N.am     12 SEL2        0.0000 
     28 N          17.5650   39.5340   67.1560 N.am      7 SEP2        0.0000 
     29 CA         21.4410   35.0100   67.1655 C.3       5 GLC5        0.0000 
     30 CA         20.0300   35.0780   65.9020 C.3      15 GLL5        0.0000 
     31 CA         22.8520   34.9420   68.4290 C.3      10 GLP5        0.0000 
     32 CA         19.5660   34.8685   67.8650 C.3       5 GLC5        0.0000 
     33 CA         19.1020   34.6590   69.8280 C.3      10 GLP5        0.0000 
     34 CA         17.7225   34.2940   67.6680 C.3       5 GLC5        0.0000 
     35 CA         18.5590   34.6830   66.0890 C.3      15 GLL5        0.0000 
     36 CA         16.8860   33.9050   69.2470 C.3      10 GLP5        0.0000 
     37 CA         16.1680   34.6850   61.9290 C.3       5 GLC5        0.0000 
     38 CA         17.7170   34.2490   63.3570 C.3      15 GLL5        0.0000 
     39 CA         14.6190   35.1210   60.5010 C.3      10 GLP5        0.0000 
     40 CA         16.8190   33.1650   67.4990 C.3       5 GLC5        0.0000 
     41 CA         16.7520   32.4250   65.7510 C.3      15 GLL5        0.0000 
     42 CA         16.7945   31.0145   67.4685 C.3       5 GLC5        0.0000 
     43 CA         16.8370   29.6040   69.1860 C.3      10 GLP5        0.0000 
     44 CA         14.9710   29.4875   65.6030 C.3       5 GLC5        0.0000 
     45 CA         16.2230   31.2060   64.9470 C.3      15 GLL5        0.0000 
     46 CA         13.7190   27.7690   66.2590 C.3      10 GLP5        0.0000 
     47 CA         14.1775   31.6150   64.3350 C.3       5 GLC5        0.0000 
     48 CA         12.1320   32.0240   63.7230 C.3      10 GLP5        0.0000 
     49 CA         18.8430   30.8550   66.0205 C.3       5 GLC5        0.0000 
     50 CA         17.3720   30.2520   64.6360 C.3      15 GLL5        0.0000 
     51 CA         20.3140   31.4580   67.4050 C.3      10 GLP5        0.0000 
     52 CA         18.8810   30.6930   63.6620 C.3       5 GLC5        0.0000 
     53 CA         20.3900   31.1340   62.6880 C.3      10 GLP5        0.0000 
     54 N          16.2390   27.7650   65.1760 N.am      2 SEC2        0.0000 
     55 N          17.2110   29.0830   65.4800 N.am     12 SEL2        0.0000 
     56 N          15.2670   26.4470   64.8720 N.am      7 SEP2        0.0000 
     57 N          16.8740   28.9415   66.7720 N.am      2 SEC2        0.0000 
     58 N          16.5370   28.8000   68.0640 N.am      7 SEP2        0.0000 
     59 O          18.3425   28.4365   65.3170 O.2       1 ALC1        0.0000 
     60 O          17.2110   29.0830   65.4800 O.2      11 ALL1        0.0000 
     61 O          19.4740   27.7900   65.1540 O.2       6 ALP1        0.0000 
     62 CA         16.8220   28.4475   61.5475 C.3       5 GLC5        0.0000 
     63 CA         17.0470   29.8900   63.1630 C.3      15 GLL5        0.0000 
     64 CA         16.5970   27.0050   59.9320 C.3      10 GLP5        0.0000 
     65 CA         18.6220   30.0690   62.4120 C.3       5 GLC5        0.0000 
     66 CA         20.1970   30.2480   61.6610 C.3      10 GLP5        0.0000 
     67 N          17.8510   27.7835   63.0855 N.am      2 SEC2        0.0000 
     68 N          16.7370   28.4970   63.0250 N.am     12 SEL2        0.0000 
     69 N          18.9650   27.0700   63.1460 N.am      7 SEP2        0.0000 
     70 N          16.8285   28.4110   61.3710 N.am      2 SEC2        0.0000 
     71 N          16.9200   28.3250   59.7170 N.am      7 SEP2        0.0000 
     72 N          16.0020   27.4720   63.9485 N.am      2 SEC2        0.0000 
     73 CA         13.9515   31.3755   63.2385 C.3       5 GLC5        0.0000 
     74 CA         15.7710   30.7270   62.7540 C.3      15 GLL5        0.0000 
     75 CA         14.7770   32.4660   61.9395 C.3       5 GLC5        0.0000 
     76 CA         13.7830   34.2050   61.1250 C.3      10 GLP5        0.0000 
     77 N          17.6470   33.9180   59.4840 N.am      2 SEC2        0.0000 
     78 N          16.9940   32.5920   59.8690 N.am     12 SEL2        0.0000 
     79 N          18.3000   35.2440   59.0990 N.am      7 SEP2        0.0000 
     80 CA         13.3750   32.6055   58.2220 C.3       5 GLC5        0.0000 
     81 CA         15.3400   31.9410   58.1300 C.3      15 GLL5        0.0000 
     82 CA         11.4100   33.2700   58.3140 C.3      10 GLP5        0.0000 
     83 CA         14.7845   30.2560   56.9390 C.3       5 GLC5        0.0000 
     84 CA         14.2290   28.5710   55.7480 C.3      10 GLP5        0.0000 
     85 O          16.8495   33.7440   57.0210 O.2       1 ALC1        0.0000 
     86 O          15.8420   32.6570   57.1360 O.2      11 ALL1        0.0000 
     87 O          17.8570   34.8310   56.9060 O.2       6 ALP1        0.0000 
     88 O          15.0990   32.6435   55.9125 O.2       1 ALC1        0.0000 
     89 O          14.3560   32.6300   54.6890 O.2       6 ALP1        0.0000 
     90 N          13.8265   30.4590   56.7735 N.am      2 SEC2        0.0000 
     91 N          14.2190   31.1410   57.9870 N.am     12 SEL2        0.0000 
     92 N          13.4340   29.7770   55.5600 N.am      7 SEP2        0.0000 
     93 CA         13.2515   28.9785   60.1645 C.3       5 GLC5        0.0000 
     94 CA         13.6720   30.3870   59.0050 C.3      15 GLL5        0.0000 
     95 CA         12.8310   27.5700   61.3240 C.3      10 GLP5        0.0000 
     96 CA         12.5410   31.8285   58.6595 C.3       5 GLC5        0.0000 
     97 CA         13.9505   29.4790   57.3765 C.3       5 GLC5        0.0000 
     98 CA         14.0720   29.3835   60.8460 C.3       5 GLC5        0.0000 
     99 CA         15.3130   31.1970   60.3680 C.3      15 GLL5        0.0000 
    100 CA         20.3175   34.0757   63.9078 C.3       5 GLC5        0.0000 
    101 CA         20.5390   32.5150   62.4250 C.3      10 GLP5        0.0000 
    102 CA         19.8043   33.1692   66.7003 C.3       5 GLC5        0.0000 
    103 CA         18.8560   32.1870   66.3600 C.3       5 GLC5        0.0000 
    104 CA         18.0440   33.4070   64.8790 C.3      15 GLL5        0.0000 
    105 CA         19.2097   33.1715   63.2715 C.3       5 GLC5        0.0000 
@<TRIPOS>BOND
@<TRIPOS>SUBSTRUCTURE
     1 ALC1        6 GROUP        1 X    ALC  0     ROOT ALC X 1
     2 SEC2       21 GROUP        1 X    SEC  0     **** SEC X 2
     3 ASC3        1 GROUP        1 X    ASC  0     **** ASC X 3
     4 LYC4       18 GROUP        1 X    LYC  0     **** LYC X 4
     5 GLC5       15 GROUP        1 X    GLC  0     **** GLC X 6
     6 ALP1        8 GROUP        1 Y    ALP  0     ROOT ALP Y 8
     7 SEP2       23 GROUP        1 Y    SEP  0     **** SEP Y 9
     8 ASP3        3 GROUP        1 Y    ASP  0     **** ASP Y 10
     9 LYP4       20 GROUP        1 Y    LYP  0     **** LYP Y 11
    10 GLP5       17 GROUP        1 Y    GLP  0     **** GLP Y 13
    11 ALL1        7 GROUP        1 Z    ALL  0     ROOT ALL Z 15
    12 SEL2       22 GROUP        1 Z    SEL  0     **** SEL Z 16
    13 ASL3        2 GROUP        1 Z    ASL  0     **** ASL Z 17
    14 LYL4       19 GROUP        1 Z    LYL  0     **** LYL Z 18
    15 GLL5       16 GROUP        1 Z    GLL  0     **** GLL Z 20
@<TRIPOS>SET

