#    Name: 1rqp_SAM_1_ligand
#    Modification time : Tue Mar 25 01:06:35 2014

@<TRIPOS>MOLECULE
1rqp_SAM_1_ligand
   50    52     1     0     0
SMALL
NO_CHARGES


@<TRIPOS>ATOM
      1 N          21.5960   36.3430   64.6100 N.4       1 SAM500      0.0000 
      2 CA         20.1620   36.1950   64.8790 C.3       1 SAM500      0.0000 
      3 C          19.6440   37.4930   65.5740 C.2       1 SAM500      0.0000 
      4 O          20.4060   38.2440   66.1360 O.co2     1 SAM500      0.0000 
      5 OXT        18.4700   37.8150   65.5880 O.co2     1 SAM500      0.0000 
      6 CB         20.0300   35.0780   65.9020 C.3       1 SAM500      0.0000 
      7 CG         18.5590   34.6830   66.0890 C.3       1 SAM500      0.0000 
      8 SD         18.0440   33.4070   64.8790 S.3       1 SAM500      0.0000 
      9 CE         17.7170   34.2490   63.3570 C.3       1 SAM500      0.0000 
     10 C5'        16.7520   32.4250   65.7510 C.3       1 SAM500      0.0000 
     11 C4'        16.2230   31.2060   64.9470 C.3       1 SAM500      0.0000 
     12 O4'        15.8140   31.7930   63.6890 O.3       1 SAM500      0.0000 
     13 C3'        17.3720   30.2520   64.6360 C.3       1 SAM500      0.0000 
     14 O3'        17.2110   29.0830   65.4800 O.3       1 SAM500      0.0000 
     15 C2'        17.0470   29.8900   63.1630 C.3       1 SAM500      0.0000 
     16 O2'        16.7370   28.4970   63.0250 O.3       1 SAM500      0.0000 
     17 C1'        15.7710   30.7270   62.7540 C.3       1 SAM500      0.0000 
     18 N9         16.0390   31.3970   61.4570 N.pl3     1 SAM500      0.0000 
     19 C8         17.0600   32.2200   61.1640 C.2       1 SAM500      0.0000 
     20 N7         16.9940   32.5920   59.8690 N.2       1 SAM500      0.0000 
     21 C5         15.9100   31.9550   59.3860 C.ar      1 SAM500      0.0000 
     22 C6         15.3400   31.9410   58.1300 C.ar      1 SAM500      0.0000 
     23 N6         15.8420   32.6570   57.1360 N.pl3     1 SAM500      0.0000 
     24 N1         14.2190   31.1410   57.9870 N.ar      1 SAM500      0.0000 
     25 C2         13.6720   30.3870   59.0050 C.ar      1 SAM500      0.0000 
     26 N3         14.1580   30.4420   60.2190 N.ar      1 SAM500      0.0000 
     27 C4         15.3130   31.1970   60.3680 C.ar      1 SAM500      0.0000 
     28 H          19.6039   35.9933   64.0401 H         1 SAM500      0.0000 
     29 H          20.4319   35.4098   66.8576 H         1 SAM500      0.0000 
     30 H          20.5904   34.2076   65.5655 H         1 SAM500      0.0000 
     31 H          17.8734   35.4732   65.8844 H         1 SAM500      0.0000 
     32 H          18.3591   34.2014   67.0187 H         1 SAM500      0.0000 
     33 H          15.9978   33.1669   65.9408 H         1 SAM500      0.0000 
     34 H          17.2570   32.1473   66.6583 H         1 SAM500      0.0000 
     35 H          15.4603   30.7508   65.4481 H         1 SAM500      0.0000 
     36 H          18.2605   30.7325   64.6940 H         1 SAM500      0.0000 
     37 H          17.8441   30.2079   62.5457 H         1 SAM500      0.0000 
     38 H          14.9531   30.1666   62.7804 H         1 SAM500      0.0000 
     39 H          17.7492   32.5079   61.7932 H         1 SAM500      0.0000 
     40 H          16.6377   33.2206   57.3578 H         1 SAM500      0.0000 
     41 H          15.3800   32.5693   56.2535 H         1 SAM500      0.0000 
     42 H          12.8547   29.7700   58.7704 H         1 SAM500      0.0000 
     43 H          21.9761   35.5320   64.1653 H         1 SAM500      0.0000 
     44 H          21.7830   37.1209   64.0102 H         1 SAM500      0.0000 
     45 H          22.1184   36.4884   65.4502 H         1 SAM500      0.0000 
     46 H          18.5251   34.7306   63.0179 H         1 SAM500      0.0000 
     47 H          17.4290   33.6171   62.6374 H         1 SAM500      0.0000 
     48 H          16.9910   34.9293   63.4575 H         1 SAM500      0.0000 
     49 H          17.7832   28.3793   65.0591 H         1 SAM500      0.0000 
     50 H          15.9319   28.4686   62.4326 H         1 SAM500      0.0000 
@<TRIPOS>BOND
     1    2    1 1    
     2   43    1 1    
     3   44    1 1    
     4   45    1 1    
     5    3    2 1    
     6    6    2 1    
     7   28    2 1    
     8    4    3 ar   
     9    5    3 ar   
    10    7    6 1    
    11   29    6 1    
    12   30    6 1    
    13    8    7 1    
    14   31    7 1    
    15   32    7 1    
    16    9    8 1    
    17   10    8 1    
    18   46    9 1    
    19   47    9 1    
    20   48    9 1    
    21   11   10 1    
    22   33   10 1    
    23   34   10 1    
    24   12   11 1    
    25   13   11 1    
    26   35   11 1    
    27   17   12 1    
    28   14   13 1    
    29   15   13 1    
    30   36   13 1    
    31   49   14 1    
    32   16   15 1    
    33   17   15 1    
    34   37   15 1    
    35   50   16 1    
    36   18   17 1    
    37   38   17 1    
    38   19   18 1    
    39   27   18 1    
    40   20   19 2    
    41   39   19 1    
    42   21   20 1    
    43   22   21 ar   
    44   27   21 ar   
    45   23   22 1    
    46   24   22 ar   
    47   40   23 1    
    48   41   23 1    
    49   25   24 ar   
    50   26   25 ar   
    51   42   25 1    
    52   27   26 ar   
@<TRIPOS>SUBSTRUCTURE
     1 SAM500      1 GROUP   
@<TRIPOS>SET

