#    Name: 3t6i_Z82_3_INTS_M
#    Modification time : Mon Mar 24 19:13:36 2014

@<TRIPOS>MOLECULE
3t6i_Z82_3_INTS_M
   20     0     3     0     0
SMALL
NO_CHARGES


@<TRIPOS>ATOM
      1 CA          3.9280    9.3575    7.8020 C.3       1 GLC5        0.0000 
      2 CA          2.4930   10.1130    8.8040 C.3       3 GLL5        0.0000 
      3 CA          5.3630    8.6020    6.8000 C.3       2 GLP5        0.0000 
      4 CA          2.9380   11.6815    7.4730 C.3       1 GLC5        0.0000 
      5 CA          3.3830   13.2500    6.1420 C.3       2 GLP5        0.0000 
      6 CA          0.2485    9.9800    6.9590 C.3       1 GLC5        0.0000 
      7 CA         -0.3180   10.4920    8.8410 C.3       3 GLL5        0.0000 
      8 CA          0.8150    9.4680    5.0770 C.3       2 GLP5        0.0000 
      9 CA         -2.8725   10.7010   10.4820 C.3       1 GLC5        0.0000 
     10 CA         -1.4890   11.2290    9.0120 C.3       3 GLL5        0.0000 
     11 CA         -4.2560   10.1730   11.9520 C.3       2 GLP5        0.0000 
     12 CA         -0.4240   13.2937    7.7540 C.3       1 GLC5        0.0000 
     13 CA         -1.4370   12.5860    9.3670 C.3       3 GLL5        0.0000 
     14 CA         -0.0390   13.6980    6.0490 C.3       2 GLP5        0.0000 
     15 CA          0.4575   12.7423    7.6270 C.3       1 GLC5        0.0000 
     16 CA          0.9960   12.4600    9.3820 C.3       3 GLL5        0.0000 
     17 CA          2.1685   12.5183    7.6735 C.3       1 GLC5        0.0000 
     18 CA          1.2588   10.0405    6.9965 C.3       1 GLC5        0.0000 
     19 CA          0.9120   11.1130    9.0280 C.3       3 GLL5        0.0000 
     20 CA         -0.4713   12.2793    7.4878 C.3       1 GLC5        0.0000 
@<TRIPOS>BOND
@<TRIPOS>SUBSTRUCTURE
     1 GLC5        1 GROUP        1 X    GLC  0     ROOT GLC X 6
     2 GLP5        3 GROUP        1 Y    GLP  0     ROOT GLP Y 13
     3 GLL5        2 GROUP        1 Z    GLL  0     ROOT GLL Z 20
@<TRIPOS>SET

