#    Name: 3t6i_Z82_3_ligand
#    Modification time : Mon Mar 24 19:13:36 2014

@<TRIPOS>MOLECULE
3t6i_Z82_3_ligand
   14    14     1     0     0
SMALL
NO_CHARGES


@<TRIPOS>ATOM
      1 C1         -1.4370   12.5860    9.3670 C.ar      1 Z822002     0.0000 
      2 O1         -2.5820   14.5880    9.9230 O.co2     1 Z822002     0.0000 
      3 C2         -0.1810   13.1930    9.5510 C.ar      1 Z822002     0.0000 
      4 C3          0.9960   12.4600    9.3820 C.ar      1 Z822002     0.0000 
      5 C4          0.9120   11.1130    9.0280 C.ar      1 Z822002     0.0000 
      6 BR4         2.4930   10.1130    8.8040 Br        1 Z822002     0.0000 
      7 C5         -0.3180   10.4920    8.8410 C.ar      1 Z822002     0.0000 
      8 C6         -1.4890   11.2290    9.0120 C.ar      1 Z822002     0.0000 
      9 C7         -2.7080   13.3780    9.5580 C.2       1 Z822002     0.0000 
     10 O2         -3.8020   12.7660    9.3530 O.co2     1 Z822002     0.0000 
     11 H          -0.1338   14.1872    9.8127 H         1 Z822002     0.0000 
     12 H           1.9046   12.9043    9.5158 H         1 Z822002     0.0000 
     13 H          -0.3650    9.5036    8.5804 H         1 Z822002     0.0000 
     14 H          -2.4050   10.7762    8.8772 H         1 Z822002     0.0000 
@<TRIPOS>BOND
     1    3    1 ar   
     2    8    1 ar   
     3    9    1 1    
     4    9    2 ar   
     5    4    3 ar   
     6   11    3 1    
     7    5    4 ar   
     8   12    4 1    
     9    6    5 1    
    10    7    5 ar   
    11    8    7 ar   
    12   13    7 1    
    13   14    8 1    
    14   10    9 ar   
@<TRIPOS>SUBSTRUCTURE
     1 Z822002     1 GROUP   
@<TRIPOS>SET

