#    Name: 4ju1_1NZ_2_INTS_M
#    Modification time : Tue Mar 25 06:21:49 2014

@<TRIPOS>MOLECULE
4ju1_1NZ_2_INTS_M
   85     0     6     0     0
SMALL
NO_CHARGES


@<TRIPOS>ATOM
      1 CA        -18.2595  -16.7645  -15.6445 C.3       2 GLC5        0.0000 
      2 CA        -18.4760  -18.8210  -16.4330 C.3       6 GLL5        0.0000 
      3 CA        -18.0430  -14.7080  -14.8560 C.3       4 GLP5        0.0000 
      4 N         -20.5750  -23.0655  -11.5375 N.am      1 SEC2        0.0000 
      5 N         -20.8520  -22.9890  -12.9660 N.am      5 SEL2        0.0000 
      6 N         -20.2980  -23.1420  -10.1090 N.am      3 SEP2        0.0000 
      7 CA        -25.5165  -22.9315  -13.4710 C.3       2 GLC5        0.0000 
      8 CA        -24.0890  -22.8630  -14.9390 C.3       6 GLL5        0.0000 
      9 CA        -26.9440  -23.0000  -12.0030 C.3       4 GLP5        0.0000 
     10 CA        -26.5775  -22.5800  -15.3885 C.3       2 GLC5        0.0000 
     11 CA        -24.5380  -22.8070  -16.2710 C.3       6 GLL5        0.0000 
     12 CA        -28.6170  -22.3530  -14.5060 C.3       4 GLP5        0.0000 
     13 N         -22.9445  -22.3725  -11.0405 N.am      1 SEC2        0.0000 
     14 N         -23.0650  -22.9810  -12.3400 N.am      5 SEL2        0.0000 
     15 N         -22.8240  -21.7640   -9.7410 N.am      3 SEP2        0.0000 
     16 CA        -24.6240  -19.6190  -20.0045 C.3       2 GLC5        0.0000 
     17 CA        -25.9690  -20.3410  -18.9640 C.3       6 GLL5        0.0000 
     18 CA        -23.2790  -18.8970  -21.0450 C.3       4 GLP5        0.0000 
     19 CA        -19.5130  -16.6780  -19.5175 C.3       2 GLC5        0.0000 
     20 CA        -18.7580  -17.2920  -18.2500 C.3       6 GLL5        0.0000 
     21 CA        -20.2680  -16.0640  -20.7850 C.3       4 GLP5        0.0000 
     22 CA        -17.4605  -17.6925  -19.2410 C.3       2 GLC5        0.0000 
     23 CA        -16.1630  -18.0930  -20.2320 C.3       4 GLP5        0.0000 
     24 CA        -29.8375  -19.8920  -18.7985 C.3       2 GLC5        0.0000 
     25 CA        -28.1500  -20.2200  -18.7780 C.3       6 GLL5        0.0000 
     26 CA        -31.5250  -19.5640  -18.8190 C.3       4 GLP5        0.0000 
     27 CA        -18.2730  -21.1185  -12.6875 C.3       2 GLC5        0.0000 
     28 CA        -18.2230  -20.3720  -14.6760 C.3       6 GLL5        0.0000 
     29 CA        -18.3230  -21.8650  -10.6990 C.3       4 GLP5        0.0000 
     30 CA        -19.4595  -19.6360  -13.5335 C.3       2 GLC5        0.0000 
     31 CA        -20.6960  -18.9000  -12.3910 C.3       4 GLP5        0.0000 
     32 CA        -20.9340  -22.1830  -20.3345 C.3       2 GLC5        0.0000 
     33 CA        -19.7740  -21.8580  -18.9820 C.3       6 GLL5        0.0000 
     34 CA        -22.0940  -22.5080  -21.6870 C.3       4 GLP5        0.0000 
     35 CA        -18.2395  -21.1140  -19.9150 C.3       2 GLC5        0.0000 
     36 CA        -16.7050  -20.3700  -20.8480 C.3       4 GLP5        0.0000 
     37 CA        -30.6020  -20.6010  -20.5745 C.3       2 GLC5        0.0000 
     38 CA        -29.6790  -21.6380  -22.3300 C.3       6 GLL5        0.0000 
     39 CA        -29.8985  -19.4920  -22.2810 C.3       2 GLC5        0.0000 
     40 CA        -30.1180  -17.3460  -22.2320 C.3       4 GLP5        0.0000 
     41 CA        -31.7370  -21.2305  -22.5815 C.3       2 GLC5        0.0000 
     42 CA        -33.7950  -20.8230  -22.8330 C.3       4 GLP5        0.0000 
     43 CA        -28.1840  -19.2955  -21.7420 C.3       2 GLC5        0.0000 
     44 CA        -28.3850  -21.1570  -22.5860 C.3       6 GLL5        0.0000 
     45 CA        -27.9830  -17.4340  -20.8980 C.3       4 GLP5        0.0000 
     46 CA        -29.1465  -17.9610  -25.1900 C.3       2 GLC5        0.0000 
     47 CA        -29.2060  -19.9430  -24.4740 C.3       6 GLL5        0.0000 
     48 CA        -29.0870  -15.9790  -25.9060 C.3       4 GLP5        0.0000 
     49 CA        -32.1425  -20.6430  -23.4980 C.3       2 GLC5        0.0000 
     50 CA        -30.4900  -20.4630  -24.1630 C.3       6 GLL5        0.0000 
     51 CA        -20.5615  -19.1502  -16.3080 C.3       2 GLC5        0.0000 
     52 CA        -22.6030  -18.8150  -16.4260 C.3       4 GLP5        0.0000 
     53 CA        -16.7957  -20.8140  -17.2763 C.3       2 GLC5        0.0000 
     54 CA        -18.5640  -20.1500  -15.9470 C.3       6 GLL5        0.0000 
     55 CA        -14.8060  -20.9380  -18.1870 C.3       4 GLP5        0.0000 
     56 CA        -20.8275  -18.9395  -17.3167 C.3       2 GLC5        0.0000 
     57 CA        -19.2700  -19.5820  -18.6350 C.3       6 GLL5        0.0000 
     58 CA        -18.5455  -16.1405  -17.6475 C.3       2 GLC5        0.0000 
     59 CA        -18.8340  -18.5460  -17.7800 C.3       6 GLL5        0.0000 
     60 CA        -18.2950  -14.3620  -17.2800 C.3       4 GLP5        0.0000 
     61 CA        -20.1960  -18.0640  -19.2838 C.3       2 GLC5        0.0000 
     62 CA        -21.3400  -17.0640  -20.3600 C.3       4 GLP5        0.0000 
     63 CA        -20.8915  -19.9410  -16.9437 C.3       2 GLC5        0.0000 
     64 CA        -19.3530  -20.9040  -18.1390 C.3       6 GLL5        0.0000 
     65 CA        -22.3913  -20.8462  -15.8048 C.3       2 GLC5        0.0000 
     66 CA        -21.6750  -22.8620  -15.7080 C.3       6 GLL5        0.0000 
     67 CA        -24.5592  -20.8795  -15.4165 C.3       2 GLC5        0.0000 
     68 CA        -24.8050  -18.9240  -15.2280 C.3       4 GLP5        0.0000 
     69 CA        -22.7420  -20.8020  -16.8092 C.3       2 GLC5        0.0000 
     70 CA        -23.5800  -22.7740  -17.3350 C.3       6 GLL5        0.0000 
     71 CA        -22.9115  -23.7365  -18.9963 C.3       2 GLC5        0.0000 
     72 CA        -22.1820  -22.8040  -17.0500 C.3       6 GLL5        0.0000 
     73 CA        -22.9420  -24.6840  -20.8000 C.3       4 GLP5        0.0000 
     74 CA        -27.7285  -22.6307  -16.2865 C.3       2 GLC5        0.0000 
     75 CA        -27.1300  -22.4650  -18.5660 C.3       6 GLL5        0.0000 
     76 CA        -27.8002  -21.5368  -16.1032 C.3       2 GLC5        0.0000 
     77 CA        -26.9150  -20.5250  -17.0470 C.3       6 GLL5        0.0000 
     78 CA        -25.7589  -19.7504  -16.5405 C.3       2 GLC5        0.0000 
     79 CA        -27.6847  -18.6267  -17.9443 C.3       2 GLC5        0.0000 
     80 CA        -27.9380  -16.8550  -17.5730 C.3       4 GLP5        0.0000 
     81 CA        -27.6566  -18.9291  -19.8083 C.3       2 GLC5        0.0000 
     82 CA        -27.7153  -21.3436  -25.1833 C.3       2 GLC5        0.0000 
     83 CA        -26.7080  -22.3530  -26.5680 C.3       4 GLP5        0.0000 
     84 CA        -29.8439  -18.8184  -23.1735 C.3       2 GLC5        0.0000 
     85 CA        -28.0930  -20.2940  -23.6600 C.3       6 GLL5        0.0000 
@<TRIPOS>BOND
@<TRIPOS>SUBSTRUCTURE
     1 SEC2        4 GROUP        1 X    SEC  0     ROOT SEC X 2
     2 GLC5        1 GROUP        1 X    GLC  0     **** GLC X 6
     3 SEP2        6 GROUP        1 Y    SEP  0     ROOT SEP Y 9
     4 GLP5        3 GROUP        1 Y    GLP  0     **** GLP Y 13
     5 SEL2        5 GROUP        1 Z    SEL  0     ROOT SEL Z 16
     6 GLL5        2 GROUP        1 Z    GLL  0     **** GLL Z 20
@<TRIPOS>SET

