#    Name: 4ju1_1NZ_2_ligand
#    Modification time : Tue Mar 25 06:21:50 2014

@<TRIPOS>MOLECULE
4ju1_1NZ_2_ligand
   55    60     1     0     0
SMALL
NO_CHARGES


@<TRIPOS>ATOM
      1 C1        -18.5640  -20.1500  -15.9470 C.ar      1 1NZ602      0.0000 
      2 C2        -18.4760  -18.8210  -16.4330 C.ar      1 1NZ602      0.0000 
      3 C3        -18.8340  -18.5460  -17.7800 C.ar      1 1NZ602      0.0000 
      4 C4        -19.2700  -19.5820  -18.6350 C.ar      1 1NZ602      0.0000 
      5 C5        -19.3530  -20.9040  -18.1390 C.ar      1 1NZ602      0.0000 
      6 C6        -19.0070  -21.2300  -16.7840 C.ar      1 1NZ602      0.0000 
      7 C7        -19.1170  -22.6660  -16.2700 C.3       1 1NZ602      0.0000 
      8 N8        -20.8520  -22.9890  -12.9660 N.2       1 1NZ602      0.0000 
      9 C9        -20.0020  -22.9610  -13.9570 C.2       1 1NZ602      0.0000 
     10 N10       -20.2630  -22.8940  -15.3220 N.pl3     1 1NZ602      0.0000 
     11 C11       -21.6750  -22.8620  -15.7080 C.ar      1 1NZ602      0.0000 
     12 C12       -22.6840  -22.8930  -14.6590 C.ar      1 1NZ602      0.0000 
     13 C13       -24.0890  -22.8630  -14.9390 C.ar      1 1NZ602      0.0000 
     14 C14       -24.5380  -22.8070  -16.2710 C.ar      1 1NZ602      0.0000 
     15 C15       -23.5800  -22.7740  -17.3350 C.ar      1 1NZ602      0.0000 
     16 C16       -22.1820  -22.8040  -17.0500 C.ar      1 1NZ602      0.0000 
     17 C17       -22.2190  -22.9560  -13.2360 C.2       1 1NZ602      0.0000 
     18 O18       -23.0650  -22.9810  -12.3400 O.2       1 1NZ602      0.0000 
     19 F19       -25.9690  -20.3410  -18.9640 F         1 1NZ602      0.0000 
     20 O20       -25.9300  -22.7860  -16.4360 O.3       1 1NZ602      0.0000 
     21 C21       -26.5500  -23.3520  -17.5680 C.ar      1 1NZ602      0.0000 
     22 C22       -26.6020  -24.7790  -17.7200 C.ar      1 1NZ602      0.0000 
     23 C23       -27.2170  -25.3670  -18.8470 C.ar      1 1NZ602      0.0000 
     24 C24       -27.7850  -24.5460  -19.8410 C.ar      1 1NZ602      0.0000 
     25 C25       -27.7630  -23.1140  -19.7400 C.ar      1 1NZ602      0.0000 
     26 C26       -27.1300  -22.4650  -18.5660 C.ar      1 1NZ602      0.0000 
     27 C27       -27.0520  -20.9160  -18.3540 C.3       1 1NZ602      0.0000 
     28 F28       -18.7580  -17.2920  -18.2500 F         1 1NZ602      0.0000 
     29 F29       -26.9150  -20.5250  -17.0470 F         1 1NZ602      0.0000 
     30 F30       -28.1500  -20.2200  -18.7780 F         1 1NZ602      0.0000 
     31 F31       -18.2230  -20.3720  -14.6760 F         1 1NZ602      0.0000 
     32 F32       -19.7740  -21.8580  -18.9820 F         1 1NZ602      0.0000 
     33 C33       -28.3970  -22.4270  -20.8660 C.2       1 1NZ602      0.0000 
     34 O34       -27.5590  -21.6650  -21.6420 O.3       1 1NZ602      0.0000 
     35 N35       -29.6700  -22.4460  -21.2360 N.2       1 1NZ602      0.0000 
     36 C36       -29.6790  -21.6380  -22.3300 C.ar      1 1NZ602      0.0000 
     37 C37       -28.3850  -21.1570  -22.5860 C.ar      1 1NZ602      0.0000 
     38 C38       -28.0930  -20.2940  -23.6600 C.ar      1 1NZ602      0.0000 
     39 C39       -29.2060  -19.9430  -24.4740 C.ar      1 1NZ602      0.0000 
     40 C40       -30.4900  -20.4630  -24.1630 C.ar      1 1NZ602      0.0000 
     41 N41       -30.7670  -21.3120  -23.1070 N.ar      1 1NZ602      0.0000 
     42 H         -18.1604  -18.0724  -15.8255 H         1 1NZ602      0.0000 
     43 H         -19.5223  -19.3803  -19.5990 H         1 1NZ602      0.0000 
     44 H         -18.1675  -22.9335  -15.7709 H         1 1NZ602      0.0000 
     45 H         -19.2174  -23.3426  -17.1385 H         1 1NZ602      0.0000 
     46 H         -18.9278  -22.9934  -13.7118 H         1 1NZ602      0.0000 
     47 H         -24.7521  -22.8826  -14.1669 H         1 1NZ602      0.0000 
     48 H         -23.9007  -22.7288  -18.3005 H         1 1NZ602      0.0000 
     49 H         -21.5104  -22.7835  -17.8318 H         1 1NZ602      0.0000 
     50 H         -26.1843  -25.3695  -16.9953 H         1 1NZ602      0.0000 
     51 H         -27.2491  -26.3821  -18.9396 H         1 1NZ602      0.0000 
     52 H         -28.2302  -24.9730  -20.6658 H         1 1NZ602      0.0000 
     53 H         -27.1855  -19.9538  -23.8408 H         1 1NZ602      0.0000 
     54 H         -29.0817  -19.3264  -25.2695 H         1 1NZ602      0.0000 
     55 H         -31.2876  -20.1696  -24.7971 H         1 1NZ602      0.0000 
@<TRIPOS>BOND
     1    2    1 ar   
     2    6    1 ar   
     3   31    1 1    
     4    3    2 ar   
     5   42    2 1    
     6    4    3 ar   
     7   28    3 1    
     8    5    4 ar   
     9   43    4 1    
    10    6    5 ar   
    11   32    5 1    
    12    7    6 1    
    13   10    7 1    
    14   44    7 1    
    15   45    7 1    
    16    9    8 2    
    17   17    8 1    
    18   10    9 1    
    19   46    9 1    
    20   11   10 1    
    21   12   11 ar   
    22   16   11 ar   
    23   13   12 ar   
    24   17   12 1    
    25   14   13 ar   
    26   47   13 1    
    27   15   14 ar   
    28   20   14 1    
    29   16   15 ar   
    30   48   15 1    
    31   49   16 1    
    32   18   17 2    
    33   27   19 1    
    34   21   20 1    
    35   22   21 ar   
    36   26   21 ar   
    37   23   22 ar   
    38   50   22 1    
    39   24   23 ar   
    40   51   23 1    
    41   25   24 ar   
    42   52   24 1    
    43   26   25 ar   
    44   33   25 1    
    45   27   26 1    
    46   29   27 1    
    47   30   27 1    
    48   34   33 1    
    49   35   33 2    
    50   37   34 1    
    51   36   35 1    
    52   37   36 ar   
    53   41   36 ar   
    54   38   37 ar   
    55   39   38 ar   
    56   53   38 1    
    57   40   39 ar   
    58   54   39 1    
    59   41   40 ar   
    60   55   40 1    
@<TRIPOS>SUBSTRUCTURE
     1 1NZ602      1 GROUP   
@<TRIPOS>SET

