#    Name: 4g16_0VM_1_INTS_M
#    Modification time : Mon Mar 24 21:08:55 2014

@<TRIPOS>MOLECULE
4g16_0VM_1_INTS_M
   71     0     9     0     0
SMALL
NO_CHARGES


@<TRIPOS>ATOM
      1 CA         35.2665  -13.1335   29.7360 C.3       3 GLC5        0.0000 
      2 CA         37.0640  -13.4960   28.8350 C.3       9 GLL5        0.0000 
      3 CA         33.4690  -12.7710   30.6370 C.3       6 GLP5        0.0000 
      4 CA         39.3320  -10.9270   29.6410 C.3       3 GLC5        0.0000 
      5 CA         37.7740  -12.2480   29.1050 C.3       9 GLL5        0.0000 
      6 CA         40.8900   -9.6060   30.1770 C.3       6 GLP5        0.0000 
      7 CA         35.8475  -11.7870   29.9870 C.3       3 GLC5        0.0000 
      8 CA         33.9210  -11.3260   30.8690 C.3       6 GLP5        0.0000 
      9 CA         39.0890   -9.8320   28.3380 C.3       3 GLC5        0.0000 
     10 CA         38.4240  -11.5270   27.9960 C.3       9 GLL5        0.0000 
     11 CA         39.7540   -8.1370   28.6800 C.3       6 GLP5        0.0000 
     12 N          35.8195  -14.0795   30.7940 N.am      2 SEC2        0.0000 
     13 N          36.3900  -14.3600   29.6300 N.am      8 SEL2        0.0000 
     14 N          35.2490  -13.7990   31.9580 N.am      5 SEP2        0.0000 
     15 CA         37.1510  -20.5410   26.1430 C.3       3 GLC5        0.0000 
     16 CA         36.5900  -19.6120   27.9300 C.3       9 GLL5        0.0000 
     17 CA         37.7120  -21.4700   24.3560 C.3       6 GLP5        0.0000 
     18 CA         36.8905  -20.2050   29.9175 C.3       3 GLC5        0.0000 
     19 CA         37.1910  -20.7980   31.9050 C.3       6 GLP5        0.0000 
     20 CA         38.1630  -17.3060   27.1005 C.3       3 GLC5        0.0000 
     21 CA         36.4900  -18.2130   28.2590 C.3       9 GLL5        0.0000 
     22 CA         39.8360  -16.3990   25.9420 C.3       6 GLP5        0.0000 
     23 CA         32.8080  -17.5235   30.2490 C.3       3 GLC5        0.0000 
     24 CA         34.3100  -18.6160   29.5280 C.3       9 GLL5        0.0000 
     25 CA         31.3060  -16.4310   30.9700 C.3       6 GLP5        0.0000 
     26 CA         33.9835  -21.4505   30.8820 C.3       3 GLC5        0.0000 
     27 CA         34.3930  -20.0360   29.2090 C.3       9 GLL5        0.0000 
     28 CA         33.5740  -22.8650   32.5550 C.3       6 GLP5        0.0000 
     29 O          34.5640  -16.2755   30.5390 O.2       1 ALC1        0.0000 
     30 O          35.1780  -16.4480   29.3960 O.2       7 ALL1        0.0000 
     31 O          33.9500  -16.1030   31.6820 O.2       4 ALP1        0.0000 
     32 CA         36.2365  -21.9645   25.7745 C.3       3 GLC5        0.0000 
     33 CA         34.7610  -22.4590   27.1930 C.3       9 GLL5        0.0000 
     34 CA         38.3655  -22.8905   28.1050 C.3       3 GLC5        0.0000 
     35 CA         36.7680  -24.3650   28.1550 C.3       9 GLL5        0.0000 
     36 CA         39.9630  -21.4160   28.0550 C.3       6 GLP5        0.0000 
     37 CA         37.0570  -23.7525   30.1555 C.3       3 GLC5        0.0000 
     38 CA         37.3460  -23.1400   32.1560 C.3       6 GLP5        0.0000 
     39 CA         34.2465  -24.0270   30.7855 C.3       3 GLC5        0.0000 
     40 CA         34.9190  -25.1890   29.0160 C.3       9 GLL5        0.0000 
     41 CA         36.1325  -24.1645   30.5860 C.3       3 GLC5        0.0000 
     42 CA         40.0708  -13.2007   25.8060 C.3       3 GLC5        0.0000 
     43 CA         38.3130  -12.1150   26.6580 C.3       9 GLL5        0.0000 
     44 CA         41.5200  -14.6200   25.4820 C.3       6 GLP5        0.0000 
     45 CA         40.1337  -10.6088   26.9600 C.3       3 GLC5        0.0000 
     46 CA         41.6460   -9.4360   27.7900 C.3       6 GLP5        0.0000 
     47 CA         38.5615  -15.0583   26.4322 C.3       3 GLC5        0.0000 
     48 CA         37.6040  -13.3660   26.3650 C.3       9 GLL5        0.0000 
     49 CA         38.6695  -13.8507   29.2018 C.3       3 GLC5        0.0000 
     50 CA         36.9700  -14.0690   27.4800 C.3       9 GLL5        0.0000 
     51 CA         40.3220  -13.9190   30.2460 C.3       6 GLP5        0.0000 
     52 CA         37.3845  -13.2660   31.0745 C.3       3 GLC5        0.0000 
     53 CA         37.3500  -13.6600   33.1790 C.3       6 GLP5        0.0000 
     54 CA         35.4022  -13.5509   27.2699 C.3       3 GLC5        0.0000 
     55 CA         33.6290  -13.4950   26.6610 C.3       6 GLP5        0.0000 
     56 CA         39.1966  -12.9767   29.2310 C.3       3 GLC5        0.0000 
     57 CA         38.1685  -19.0237   28.6538 C.3       3 GLC5        0.0000 
     58 CA         39.7970  -19.1350   29.2130 C.3       6 GLP5        0.0000 
     59 CA         36.9155  -17.2362   30.3877 C.3       3 GLC5        0.0000 
     60 CA         37.9100  -16.4930   32.1230 C.3       6 GLP5        0.0000 
     61 CA         35.2236  -20.3489   30.5619 C.3       3 GLC5        0.0000 
     62 CA         35.8100  -21.2610   31.9540 C.3       6 GLP5        0.0000 
     63 CA         36.7636  -11.9966   24.9854 C.3       3 GLC5        0.0000 
     64 CA         35.0830  -11.8990   23.9140 C.3       6 GLP5        0.0000 
     65 CA         31.6390  -23.3592   26.7162 C.3       3 GLC5        0.0000 
     66 CA         33.0220  -22.1660   25.5110 C.3       9 GLL5        0.0000 
     67 CA         30.3370  -23.8360   27.9960 C.3       6 GLP5        0.0000 
     68 CA         32.9669  -23.7586   27.9120 C.3       3 GLC5        0.0000 
     69 CA         33.6870  -24.4440   26.1560 C.3       9 GLL5        0.0000 
     70 CA         31.4660  -24.2060   28.9160 C.3       6 GLP5        0.0000 
     71 CA         33.3483  -24.6148   28.6777 C.3       3 GLC5        0.0000 
@<TRIPOS>BOND
@<TRIPOS>SUBSTRUCTURE
     1 ALC1       29 GROUP        1 X    ALC  0     ROOT ALC X 1
     2 SEC2       12 GROUP        1 X    SEC  0     **** SEC X 2
     3 GLC5        1 GROUP        1 X    GLC  0     **** GLC X 6
     4 ALP1       31 GROUP        1 Y    ALP  0     ROOT ALP Y 8
     5 SEP2       14 GROUP        1 Y    SEP  0     **** SEP Y 9
     6 GLP5        3 GROUP        1 Y    GLP  0     **** GLP Y 13
     7 ALL1       30 GROUP        1 Z    ALL  0     ROOT ALL Z 15
     8 SEL2       13 GROUP        1 Z    SEL  0     **** SEL Z 16
     9 GLL5        2 GROUP        1 Z    GLL  0     **** GLL Z 20
@<TRIPOS>SET

