#    Name: 4g16_0VM_1_ligand
#    Modification time : Mon Mar 24 21:08:56 2014

@<TRIPOS>MOLECULE
4g16_0VM_1_ligand
   41    44     1     0     0
SMALL
NO_CHARGES


@<TRIPOS>ATOM
      1 C8         38.3130  -12.1150   26.6580 C.ar      1 0VM401      0.0000 
      2 C9         37.6040  -13.3660   26.3650 C.ar      1 0VM401      0.0000 
      3 C10        36.9700  -14.0690   27.4800 C.ar      1 0VM401      0.0000 
      4 C11        37.0640  -13.4960   28.8350 C.ar      1 0VM401      0.0000 
      5 C13        37.7740  -12.2480   29.1050 C.ar      1 0VM401      0.0000 
      6 C14        38.4240  -11.5270   27.9960 C.ar      1 0VM401      0.0000 
      7 N3         36.2740  -15.1900   27.5750 N.pl3     1 0VM401      0.0000 
      8 C12        35.9500  -15.3230   28.8750 C.2       1 0VM401      0.0000 
      9 N4         36.3900  -14.3600   29.6300 N.2       1 0VM401      0.0000 
     10 C15        35.5360  -20.4790   28.4140 C.ar      1 0VM401      0.0000 
     11 C16        36.5900  -19.6120   27.9300 C.ar      1 0VM401      0.0000 
     12 C17        36.4900  -18.2130   28.2590 C.ar      1 0VM401      0.0000 
     13 C18        35.3520  -17.7460   29.0460 C.ar      1 0VM401      0.0000 
     14 C19        34.3100  -18.6160   29.5280 C.ar      1 0VM401      0.0000 
     15 C20        34.3930  -20.0360   29.2090 C.ar      1 0VM401      0.0000 
     16 N1         35.1780  -16.4480   29.3960 N.pl3     1 0VM401      0.0000 
     17 C7         38.9300  -11.4480   25.6020 C.1       1 0VM401      0.0000 
     18 N2         39.4330  -10.9230   24.7110 N.1       1 0VM401      0.0000 
     19 C1         32.8600  -23.5990   25.3620 C.ar      1 0VM401      0.0000 
     20 C2         33.6870  -24.4440   26.1560 C.ar      1 0VM401      0.0000 
     21 C3         34.6620  -23.8830   27.0900 C.ar      1 0VM401      0.0000 
     22 C4         34.7610  -22.4590   27.1930 C.ar      1 0VM401      0.0000 
     23 N5         33.9520  -21.6510   26.4070 N.ar      1 0VM401      0.0000 
     24 C6         33.0220  -22.1660   25.5110 C.ar      1 0VM401      0.0000 
     25 O1         35.6440  -21.8750   28.0960 O.3       1 0VM401      0.0000 
     26 C5         35.5420  -24.8580   27.8630 C.3       1 0VM401      0.0000 
     27 F1         36.7680  -24.3650   28.1550 F         1 0VM401      0.0000 
     28 F3         35.7040  -25.9740   27.0940 F         1 0VM401      0.0000 
     29 F2         34.9190  -25.1890   29.0160 F         1 0VM401      0.0000 
     30 H          37.5577  -13.7199   25.4442 H         1 0VM401      0.0000 
     31 H          37.8218  -11.8810   30.0333 H         1 0VM401      0.0000 
     32 H          38.9099  -10.6886   28.1509 H         1 0VM401      0.0000 
     33 H          36.0401  -15.7948   26.8700 H         1 0VM401      0.0000 
     34 H          37.3436  -19.9678   27.3975 H         1 0VM401      0.0000 
     35 H          37.1884  -17.5611   27.9556 H         1 0VM401      0.0000 
     36 H          33.5489  -18.2640   30.0661 H         1 0VM401      0.0000 
     37 H          33.7064  -20.6729   29.5166 H         1 0VM401      0.0000 
     38 H          34.4308  -16.1858   30.1028 H         1 0VM401      0.0000 
     39 H          32.1904  -23.9678   24.7235 H         1 0VM401      0.0000 
     40 H          33.6104  -25.4571   26.0840 H         1 0VM401      0.0000 
     41 H          32.4361  -21.5518   24.9415 H         1 0VM401      0.0000 
@<TRIPOS>BOND
     1    2    1 ar   
     2    6    1 ar   
     3   17    1 1    
     4    3    2 ar   
     5   30    2 1    
     6    4    3 ar   
     7    7    3 1    
     8    5    4 ar   
     9    9    4 1    
    10    6    5 ar   
    11   31    5 1    
    12   32    6 1    
    13    8    7 1    
    14   33    7 1    
    15    9    8 2    
    16   16    8 1    
    17   11   10 ar   
    18   15   10 ar   
    19   25   10 1    
    20   12   11 ar   
    21   34   11 1    
    22   13   12 ar   
    23   35   12 1    
    24   14   13 ar   
    25   16   13 1    
    26   15   14 ar   
    27   36   14 1    
    28   37   15 1    
    29   38   16 1    
    30   18   17 3    
    31   20   19 ar   
    32   24   19 ar   
    33   39   19 1    
    34   21   20 ar   
    35   40   20 1    
    36   22   21 ar   
    37   26   21 1    
    38   23   22 ar   
    39   25   22 1    
    40   24   23 ar   
    41   41   24 1    
    42   27   26 1    
    43   28   26 1    
    44   29   26 1    
@<TRIPOS>SUBSTRUCTURE
     1 0VM401      1 GROUP   
@<TRIPOS>SET

