#    Name: 2pkn_ACP_1_INTS_M
#    Modification time : Mon Mar 24 19:05:51 2014

@<TRIPOS>MOLECULE
2pkn_ACP_1_INTS_M
   49     0     6     0     0
SMALL
NO_CHARGES


@<TRIPOS>ATOM
      1 N          14.5615   64.5005   11.4165 N.am      1 SEC2        0.0000 
      2 N          15.7530   65.2990   10.6470 N.am      5 SEL2        0.0000 
      3 N          13.3700   63.7020   12.1860 N.am      3 SEP2        0.0000 
      4 CA         17.3115   69.3515   10.8805 C.3       2 GLC5        0.0000 
      5 CA         17.6240   67.2610   10.7090 C.3       6 GLL5        0.0000 
      6 CA         16.9990   71.4420   11.0520 C.3       4 GLP5        0.0000 
      7 N          12.8900   67.6070    8.5705 N.am      1 SEC2        0.0000 
      8 N          13.8680   66.9240    7.6320 N.am      5 SEL2        0.0000 
      9 N          11.9120   68.2900    9.5090 N.am      3 SEP2        0.0000 
     10 N          13.5820   66.4360    6.4240 N.am      1 SEC2        0.0000 
     11 N          13.2960   65.9480    5.2160 N.am      3 SEP2        0.0000 
     12 N          13.5335   67.9410    9.5790 N.am      1 SEC2        0.0000 
     13 N          15.1550   67.5920    9.6490 N.am      5 SEL2        0.0000 
     14 CA         16.0245   70.6625    9.3500 C.3       2 GLC5        0.0000 
     15 CA         15.0500   69.8830    7.6480 C.3       6 GLL5        0.0000 
     16 CA         17.1945   70.8175    6.5885 C.3       2 GLC5        0.0000 
     17 CA         15.0030   70.7140    6.3690 C.3       6 GLL5        0.0000 
     18 CA         19.3860   70.9210    6.8080 C.3       4 GLP5        0.0000 
     19 CA         16.3000   72.3860    5.8220 C.3       2 GLC5        0.0000 
     20 CA         17.5970   74.0580    5.2750 C.3       4 GLP5        0.0000 
     21 CA         14.4130   67.9395    4.9315 C.3       2 GLC5        0.0000 
     22 CA         14.1970   70.0900    5.2280 C.3       6 GLL5        0.0000 
     23 CA         14.6290   65.7890    4.6350 C.3       4 GLP5        0.0000 
     24 CA         14.6035   70.1910    2.2085 C.3       2 GLC5        0.0000 
     25 CA         14.8210   70.7560    4.0080 C.3       6 GLL5        0.0000 
     26 CA         14.3860   69.6260    0.4090 C.3       4 GLP5        0.0000 
     27 CA         17.8400   70.9070    5.6010 C.3       2 GLC5        0.0000 
     28 CA         16.2940   70.8930    4.3940 C.3       6 GLL5        0.0000 
     29 CA         20.2310   68.5270   -0.2760 C.3       2 GLC5        0.0000 
     30 CA         18.8740   68.1210    1.1020 C.3       6 GLL5        0.0000 
     31 CA         21.5880   68.9330   -1.6540 C.3       4 GLP5        0.0000 
     32 CA         16.7245   70.4800   -0.0535 C.3       2 GLC5        0.0000 
     33 CA         18.4300   70.3560    0.4590 C.3       6 GLL5        0.0000 
     34 CA         15.0190   70.6040   -0.5660 C.3       4 GLP5        0.0000 
     35 CA         20.0090   69.6445   -0.5975 C.3       2 GLC5        0.0000 
     36 CA         19.7070   71.7860    0.1315 C.3       2 GLC5        0.0000 
     37 CA         20.9840   73.2160   -0.1960 C.3       4 GLP5        0.0000 
     38 CA         20.1750   69.8040    1.3065 C.3       2 GLC5        0.0000 
     39 CA         21.9200   69.2520    2.1540 C.3       4 GLP5        0.0000 
     40 CA         14.8783   72.2852    7.5693 C.3       2 GLC5        0.0000 
     41 CA         14.7300   74.2720    8.1300 C.3       4 GLP5        0.0000 
     42 CA         13.0449   69.6271    7.2521 C.3       2 GLC5        0.0000 
     43 CA         11.4780   69.0600    8.3860 C.3       4 GLP5        0.0000 
     44 CA         16.5772   72.4413    4.7380 C.3       2 GLC5        0.0000 
     45 CA         16.8903   67.0695    1.3015 C.3       2 GLC5        0.0000 
     46 CA         18.1670   68.3770    2.3860 C.3       6 GLL5        0.0000 
     47 CA         15.2600   65.8900    0.8590 C.3       4 GLP5        0.0000 
     48 CA         16.1372   69.3397    1.4478 C.3       2 GLC5        0.0000 
     49 CA         19.9926   69.1207    2.1597 C.3       2 GLC5        0.0000 
@<TRIPOS>BOND
@<TRIPOS>SUBSTRUCTURE
     1 SEC2        1 GROUP        1 X    SEC  0     ROOT SEC X 2
     2 GLC5        4 GROUP        1 X    GLC  0     **** GLC X 6
     3 SEP2        3 GROUP        1 Y    SEP  0     ROOT SEP Y 9
     4 GLP5        6 GROUP        1 Y    GLP  0     **** GLP Y 13
     5 SEL2        2 GROUP        1 Z    SEL  0     ROOT SEL Z 16
     6 GLL5        5 GROUP        1 Z    GLL  0     **** GLL Z 20
@<TRIPOS>SET

