#    Name: 2pkn_ACP_1_ligand
#    Modification time : Mon Mar 24 19:05:51 2014

@<TRIPOS>MOLECULE
2pkn_ACP_1_ligand
   45    47     1     0     0
SMALL
NO_CHARGES


@<TRIPOS>ATOM
      1 PG         18.5460   67.0430   12.2540 P.3       1 ACP325      0.0000 
      2 O1G        17.5470   66.9650   13.3930 O.co2     1 ACP325      0.0000 
      3 O2G        19.2890   65.7440   12.0490 O.co2     1 ACP325      0.0000 
      4 O3G        19.4070   68.2900   12.2390 O.co2     1 ACP325      0.0000 
      5 PB         15.8820   66.7950   10.8560 P.3       1 ACP325      0.0000 
      6 O1B        15.7530   65.2990   10.6470 O.co2     1 ACP325      0.0000 
      7 O2B        15.2980   67.3860   12.1220 O.co2     1 ACP325      0.0000 
      8 C3B        17.6240   67.2610   10.7090 C.3       1 ACP325      0.0000 
      9 PA         15.2790   67.2580    8.0730 P.3       1 ACP325      0.0000 
     10 O1A        16.4010   66.2800    7.8140 O.co2     1 ACP325      0.0000 
     11 O2A        13.8680   66.9240    7.6320 O.co2     1 ACP325      0.0000 
     12 O3A        15.1550   67.5920    9.6490 O.3       1 ACP325      0.0000 
     13 O5'        15.7480   68.6560    7.4140 O.3       1 ACP325      0.0000 
     14 C5'        15.0500   69.8830    7.6480 C.3       1 ACP325      0.0000 
     15 C4'        15.0030   70.7140    6.3690 C.3       1 ACP325      0.0000 
     16 O4'        16.3140   70.9050    5.8280 O.3       1 ACP325      0.0000 
     17 C3'        14.1970   70.0900    5.2280 C.3       1 ACP325      0.0000 
     18 O3'        12.7900   70.3190    5.3520 O.3       1 ACP325      0.0000 
     19 C2'        14.8210   70.7560    4.0080 C.3       1 ACP325      0.0000 
     20 O2'        14.2660   72.0630    3.7550 O.3       1 ACP325      0.0000 
     21 C1'        16.2940   70.8930    4.3940 C.3       1 ACP325      0.0000 
     22 N9         17.0260   69.7300    3.7960 N.pl3     1 ACP325      0.0000 
     23 C8         17.1760   68.4950    4.3280 C.2       1 ACP325      0.0000 
     24 N7         17.8670   67.6690    3.4910 N.2       1 ACP325      0.0000 
     25 C5         18.1670   68.3770    2.3860 C.ar      1 ACP325      0.0000 
     26 C6         18.8740   68.1210    1.1020 C.ar      1 ACP325      0.0000 
     27 N6         19.4290   66.9070    0.8310 N.pl3     1 ACP325      0.0000 
     28 N1         18.9580   69.1430    0.2100 N.ar      1 ACP325      0.0000 
     29 C2         18.4300   70.3560    0.4590 C.ar      1 ACP325      0.0000 
     30 N3         17.7750   70.6540    1.6020 N.ar      1 ACP325      0.0000 
     31 C4         17.6100   69.7300    2.5870 C.ar      1 ACP325      0.0000 
     32 H          18.0505   66.6178   10.0124 H         1 ACP325      0.0000 
     33 H          17.6468   68.2765   10.4873 H         1 ACP325      0.0000 
     34 H          15.5410   70.4865    8.4225 H         1 ACP325      0.0000 
     35 H          14.0160   69.7051    7.9708 H         1 ACP325      0.0000 
     36 H          14.5582   71.6825    6.5885 H         1 ACP325      0.0000 
     37 H          14.4621   69.0476    5.1929 H         1 ACP325      0.0000 
     38 H          14.7556   70.0995    3.1850 H         1 ACP325      0.0000 
     39 H          16.6474   71.8082    3.9805 H         1 ACP325      0.0000 
     40 H          16.8323   68.2215    5.2069 H         1 ACP325      0.0000 
     41 H          19.3206   66.2063    1.5362 H         1 ACP325      0.0000 
     42 H          19.8960   66.8233   -0.0493 H         1 ACP325      0.0000 
     43 H          18.5324   71.1163   -0.2773 H         1 ACP325      0.0000 
     44 H          12.6400   71.2266    4.9597 H         1 ACP325      0.0000 
     45 H          15.0422   72.6903    3.8182 H         1 ACP325      0.0000 
@<TRIPOS>BOND
     1    2    1 ar   
     2    3    1 ar   
     3    4    1 ar   
     4    8    1 1    
     5    6    5 ar   
     6    7    5 ar   
     7    8    5 1    
     8   12    5 1    
     9   32    8 1    
    10   33    8 1    
    11   10    9 ar   
    12   11    9 ar   
    13   12    9 1    
    14   13    9 1    
    15   14   13 1    
    16   15   14 1    
    17   34   14 1    
    18   35   14 1    
    19   16   15 1    
    20   17   15 1    
    21   36   15 1    
    22   21   16 1    
    23   18   17 1    
    24   19   17 1    
    25   37   17 1    
    26   44   18 1    
    27   20   19 1    
    28   21   19 1    
    29   38   19 1    
    30   45   20 1    
    31   22   21 1    
    32   39   21 1    
    33   23   22 1    
    34   31   22 1    
    35   24   23 2    
    36   40   23 1    
    37   25   24 1    
    38   26   25 ar   
    39   31   25 ar   
    40   27   26 1    
    41   28   26 ar   
    42   41   27 1    
    43   42   27 1    
    44   29   28 ar   
    45   30   29 ar   
    46   43   29 1    
    47   31   30 ar   
@<TRIPOS>SUBSTRUCTURE
     1 ACP325      1 GROUP   
@<TRIPOS>SET

