#    Name: 1z48_FMN_1_INTS_M
#    Modification time : Tue Mar 25 11:28:13 2014

@<TRIPOS>MOLECULE
1z48_FMN_1_INTS_M
   69     0    12     0     0
SMALL
NO_CHARGES


@<TRIPOS>ATOM
      1 N          11.0130   59.0090   22.4495 N.am      2 SEC2        0.0000 
      2 N          11.6450   58.4860   23.5800 N.am     10 SEL2        0.0000 
      3 N          10.3810   59.5320   21.3190 N.am      6 SEP2        0.0000 
      4 O          12.1730   57.4595   21.2925 O.2       1 ALC1        0.0000 
      5 O          12.6650   56.8120   22.4200 O.2       9 ALL1        0.0000 
      6 O          11.6810   58.1070   20.1650 O.2       5 ALP1        0.0000 
      7 N          12.9835   55.2185   19.7995 N.am      2 SEC2        0.0000 
      8 N          13.6690   55.1770   21.2310 N.am     10 SEL2        0.0000 
      9 N          12.2980   55.2600   18.3680 N.am      6 SEP2        0.0000 
     10 N          13.7945   52.7110   22.6840 N.am      2 SEC2        0.0000 
     11 N          14.1060   53.6320   23.6350 N.am     10 SEL2        0.0000 
     12 N          13.4830   51.7900   21.7330 N.am      6 SEP2        0.0000 
     13 CA         12.7665   50.7775   24.9710 C.3       4 GLC5        0.0000 
     14 CA         14.5660   50.6540   25.9570 C.3      12 GLL5        0.0000 
     15 CA         10.9670   50.9010   23.9850 C.3       8 GLP5        0.0000 
     16 CA         15.7275   48.4610   27.8725 C.3       4 GLC5        0.0000 
     17 CA         15.0730   49.1940   25.9400 C.3      12 GLL5        0.0000 
     18 CA         16.3820   47.7280   29.8050 C.3       8 GLP5        0.0000 
     19 CA         12.7710   49.9015   29.8660 C.3       4 GLC5        0.0000 
     20 CA         13.9900   50.4130   28.5410 C.3      12 GLL5        0.0000 
     21 CA         11.5520   49.3900   31.1910 C.3       8 GLP5        0.0000 
     22 CA         15.1860   49.0705   29.1730 C.3       4 GLC5        0.0000 
     23 CA         10.7595   53.2000   26.3600 C.3       4 GLC5        0.0000 
     24 CA         11.1470   54.9450   27.4300 C.3      12 GLL5        0.0000 
     25 CA         10.3720   51.4550   25.2900 C.3       8 GLP5        0.0000 
     26 N           8.9005   55.4955   26.3900 N.am      2 SEC2        0.0000 
     27 N          10.2360   55.2660   26.3640 N.am     10 SEL2        0.0000 
     28 N           7.5650   55.7250   26.4160 N.am      6 SEP2        0.0000 
     29 N          10.1370   56.8590   26.2035 N.am      2 SEC2        0.0000 
     30 N          10.0380   58.4520   26.0430 N.am      6 SEP2        0.0000 
     31 O          10.3315   54.8490   25.0570 O.2       1 ALC1        0.0000 
     32 O          10.2360   55.2660   26.3640 O.2       9 ALL1        0.0000 
     33 O          10.4270   54.4320   23.7500 O.2       5 ALP1        0.0000 
     34 CA          8.5910   54.9660   27.5485 C.3       4 GLC5        0.0000 
     35 CA         10.3980   55.3910   28.6940 C.3      12 GLL5        0.0000 
     36 CA          6.7840   54.5410   26.4030 C.3       8 GLP5        0.0000 
     37 CA          8.7050   56.2555   29.3420 C.3       4 GLC5        0.0000 
     38 CA          7.0120   57.1200   29.9900 C.3       8 GLP5        0.0000 
     39 N          10.0770   57.6370   27.3210 N.am      2 SEC2        0.0000 
     40 N          10.1160   56.8220   28.5990 N.am     10 SEL2        0.0000 
     41 CA          8.7405   56.3230   30.5895 C.3       4 GLC5        0.0000 
     42 CA         10.4690   55.5260   31.1890 C.3      12 GLL5        0.0000 
     43 CA          9.3590   56.2870   32.6345 C.3       4 GLC5        0.0000 
     44 CA          8.2490   57.0480   34.0800 C.3       8 GLP5        0.0000 
     45 NZ         10.8125   53.2075   33.8055 N.4       3 LYC4        0.0000 
     46 NZ          9.3970   53.3840   33.4400 N.4      11 LYL4        0.0000 
     47 NZ         12.7230   51.8880   33.7170 N.4       7 LYP4        0.0000 
     48 N           8.8100   54.1740   34.3640 N.am      2 SEC2        0.0000 
     49 N           9.3970   53.3840   33.4400 N.am     10 SEL2        0.0000 
     50 N           8.2230   54.9640   35.2880 N.am      6 SEP2        0.0000 
     51 N          10.8125   53.2075   33.8055 N.am      2 SEC2        0.0000 
     52 N          12.2280   53.0310   34.1710 N.am      6 SEP2        0.0000 
     53 NZ         10.9580   51.7090   32.0370 N.4       3 LYC4        0.0000 
     54 NZ          9.8680   52.2340   31.2590 N.4      11 LYL4        0.0000 
     55 N           9.2795   51.1165   30.7565 N.am      2 SEC2        0.0000 
     56 N           9.8680   52.2340   31.2590 N.am     10 SEL2        0.0000 
     57 N           8.6910   49.9990   30.2540 N.am      6 SEP2        0.0000 
     58 N          10.9580   51.7090   32.0370 N.am      2 SEC2        0.0000 
     59 N          12.0480   51.1840   32.8150 N.am      6 SEP2        0.0000 
     60 N           6.8755   52.5315   30.6765 N.am      2 SEC2        0.0000 
     61 N           7.5010   53.0380   31.8190 N.am     10 SEL2        0.0000 
     62 N           6.2500   52.0250   29.5340 N.am      6 SEP2        0.0000 
     63 CA         12.8610   52.0690   23.8840 C.3       4 GLC5        0.0000 
     64 CA         14.0860   52.8730   24.8080 C.3      12 GLL5        0.0000 
     65 CA         11.3920   51.9690   22.9570 C.3       8 GLP5        0.0000 
     66 CA         14.3800   51.7115   22.7815 C.3       4 GLC5        0.0000 
     67 CA         14.4300   51.2540   20.7520 C.3       8 GLP5        0.0000 
     68 CA         12.0339   52.0504   25.9841 C.3       4 GLC5        0.0000 
     69 CA         14.0420   51.2200   27.2550 C.3      12 GLL5        0.0000 
@<TRIPOS>BOND
@<TRIPOS>SUBSTRUCTURE
     1 ALC1        4 GROUP        1 X    ALC  0     ROOT ALC X 1
     2 SEC2        1 GROUP        1 X    SEC  0     **** SEC X 2
     3 LYC4       45 GROUP        1 X    LYC  0     **** LYC X 4
     4 GLC5       13 GROUP        1 X    GLC  0     **** GLC X 6
     5 ALP1        6 GROUP        1 Y    ALP  0     ROOT ALP Y 8
     6 SEP2        3 GROUP        1 Y    SEP  0     **** SEP Y 9
     7 LYP4       47 GROUP        1 Y    LYP  0     **** LYP Y 11
     8 GLP5       15 GROUP        1 Y    GLP  0     **** GLP Y 13
     9 ALL1        5 GROUP        1 Z    ALL  0     ROOT ALL Z 15
    10 SEL2        2 GROUP        1 Z    SEL  0     **** SEL Z 16
    11 LYL4       46 GROUP        1 Z    LYL  0     **** LYL Z 18
    12 GLL5       14 GROUP        1 Z    GLL  0     **** GLL Z 20
@<TRIPOS>SET

