#    Name: 1z48_FMN_1_ligand
#    Modification time : Tue Mar 25 11:28:13 2014

@<TRIPOS>MOLECULE
1z48_FMN_1_ligand
   50    52     1     0     0
SMALL
NO_CHARGES


@<TRIPOS>ATOM
      1 N1         12.3500   56.7100   24.8050 N.2       1 FMN1500     0.0000 
      2 C2         12.1810   57.4070   23.6410 C.2       1 FMN1500     0.0000 
      3 O2         11.6450   58.4860   23.5800 O.2       1 FMN1500     0.0000 
      4 N3         12.6650   56.8120   22.4200 N.am      1 FMN1500     0.0000 
      5 C4         13.3000   55.5930   22.3260 C.2       1 FMN1500     0.0000 
      6 O4         13.6690   55.1770   21.2310 O.2       1 FMN1500     0.0000 
      7 C4A        13.4950   54.8400   23.5980 C.2       1 FMN1500     0.0000 
      8 N5         14.1060   53.6320   23.6350 N.2       1 FMN1500     0.0000 
      9 C5A        14.0860   52.8730   24.8080 C.ar      1 FMN1500     0.0000 
     10 C6         14.5740   51.4650   24.8140 C.ar      1 FMN1500     0.0000 
     11 C7         14.5660   50.6540   25.9570 C.ar      1 FMN1500     0.0000 
     12 C7M        15.0730   49.1940   25.9400 C.3       1 FMN1500     0.0000 
     13 C8         14.0420   51.2200   27.2550 C.ar      1 FMN1500     0.0000 
     14 C8M        13.9900   50.4130   28.5410 C.3       1 FMN1500     0.0000 
     15 C9         13.5830   52.5490   27.2560 C.ar      1 FMN1500     0.0000 
     16 C9A        13.5790   53.4070   26.1010 C.ar      1 FMN1500     0.0000 
     17 N10        13.0990   54.7900   26.0440 N.pl3     1 FMN1500     0.0000 
     18 C10        12.9620   55.5030   24.8290 C.2       1 FMN1500     0.0000 
     19 C1'        12.6120   55.4720   27.2640 C.3       1 FMN1500     0.0000 
     20 C2'        11.1470   54.9450   27.4300 C.3       1 FMN1500     0.0000 
     21 O2'        10.2360   55.2660   26.3640 O.3       1 FMN1500     0.0000 
     22 C3'        10.3980   55.3910   28.6940 C.3       1 FMN1500     0.0000 
     23 O3'        10.1160   56.8220   28.5990 O.3       1 FMN1500     0.0000 
     24 C4'        11.2260   55.1170   29.9420 C.3       1 FMN1500     0.0000 
     25 O4'        11.5480   53.7070   30.0320 O.3       1 FMN1500     0.0000 
     26 C5'        10.4690   55.5260   31.1890 C.3       1 FMN1500     0.0000 
     27 O5'         9.3060   54.6770   31.3560 O.3       1 FMN1500     0.0000 
     28 P           9.0420   53.2660   31.9920 P.3       1 FMN1500     0.0000 
     29 O1P         9.3970   53.3840   33.4400 O.co2     1 FMN1500     0.0000 
     30 O2P         9.8680   52.2340   31.2590 O.co2     1 FMN1500     0.0000 
     31 O3P         7.5010   53.0380   31.8190 O.co2     1 FMN1500     0.0000 
     32 H          12.5076   57.3777   21.5372 H         1 FMN1500     0.0000 
     33 H          14.9289   51.1018   23.9128 H         1 FMN1500     0.0000 
     34 H          13.2166   52.9539   28.1518 H         1 FMN1500     0.0000 
     35 H          12.5709   56.5255   27.1332 H         1 FMN1500     0.0000 
     36 H          13.1665   55.1814   28.1224 H         1 FMN1500     0.0000 
     37 H          11.2015   53.8273   27.5035 H         1 FMN1500     0.0000 
     38 H           9.4794   54.8336   28.7567 H         1 FMN1500     0.0000 
     39 H          12.1323   55.7051   29.8871 H         1 FMN1500     0.0000 
     40 H          10.1779   56.5764   31.0880 H         1 FMN1500     0.0000 
     41 H          11.1440   55.4416   32.0466 H         1 FMN1500     0.0000 
     42 H          16.0351   49.1380   25.6731 H         1 FMN1500     0.0000 
     43 H          14.9925   48.7624   26.8385 H         1 FMN1500     0.0000 
     44 H          14.5569   48.6291   25.2962 H         1 FMN1500     0.0000 
     45 H          14.8985   50.1042   28.8227 H         1 FMN1500     0.0000 
     46 H          13.6135   50.9458   29.2989 H         1 FMN1500     0.0000 
     47 H          13.4199   49.5971   28.4447 H         1 FMN1500     0.0000 
     48 H          10.6296   54.8390   25.5499 H         1 FMN1500     0.0000 
     49 H          10.6013   57.2331   29.3707 H         1 FMN1500     0.0000 
     50 H          10.6637   53.2404   30.0509 H         1 FMN1500     0.0000 
@<TRIPOS>BOND
     1    2    1 1    
     2   18    1 2    
     3    3    2 2    
     4    4    2 am   
     5    5    4 am   
     6   32    4 1    
     7    6    5 2    
     8    7    5 1    
     9    8    7 2    
    10   18    7 1    
    11    9    8 1    
    12   10    9 ar   
    13   16    9 ar   
    14   11   10 ar   
    15   33   10 1    
    16   12   11 1    
    17   13   11 ar   
    18   42   12 1    
    19   43   12 1    
    20   44   12 1    
    21   14   13 1    
    22   15   13 ar   
    23   45   14 1    
    24   46   14 1    
    25   47   14 1    
    26   16   15 ar   
    27   34   15 1    
    28   17   16 1    
    29   18   17 1    
    30   19   17 1    
    31   20   19 1    
    32   35   19 1    
    33   36   19 1    
    34   21   20 1    
    35   22   20 1    
    36   37   20 1    
    37   48   21 1    
    38   23   22 1    
    39   24   22 1    
    40   38   22 1    
    41   49   23 1    
    42   25   24 1    
    43   26   24 1    
    44   39   24 1    
    45   50   25 1    
    46   27   26 1    
    47   40   26 1    
    48   41   26 1    
    49   28   27 1    
    50   29   28 ar   
    51   30   28 ar   
    52   31   28 ar   
@<TRIPOS>SUBSTRUCTURE
     1 FMN1500     1 GROUP   
@<TRIPOS>SET

