#    Name: 2ew5_Y12_1_INTS_M
#    Modification time : Tue Mar 25 12:07:03 2014

@<TRIPOS>MOLECULE
2ew5_Y12_1_INTS_M
   60     0     9     0     0
SMALL
NO_CHARGES


@<TRIPOS>ATOM
      1 CA        -77.0260  -66.3290   58.6225 C.3       3 GLC5        0.0000 
      2 CA        -77.0170  -65.6160   56.5700 C.3       9 GLL5        0.0000 
      3 CA        -77.0350  -67.0420   60.6750 C.3       6 GLP5        0.0000 
      4 CA        -78.4740  -63.4205   57.4370 C.3       3 GLC5        0.0000 
      5 CA        -78.4160  -64.9790   56.6230 C.3       9 GLL5        0.0000 
      6 CA        -78.5320  -61.8620   58.2510 C.3       6 GLP5        0.0000 
      7 CA        -79.1485  -67.3985   55.0315 C.3       3 GLC5        0.0000 
      8 CA        -79.2440  -65.5160   55.4410 C.3       9 GLL5        0.0000 
      9 CA        -79.0530  -69.2810   54.6220 C.3       6 GLP5        0.0000 
     10 CA        -80.8635  -66.2835   56.1005 C.3       3 GLC5        0.0000 
     11 CA        -82.4830  -67.0510   56.7600 C.3       6 GLP5        0.0000 
     12 O         -77.8365  -63.7595   53.9275 O.2       1 ALC1        0.0000 
     13 O         -78.9060  -64.8820   54.1500 O.2       7 ALL1        0.0000 
     14 O         -76.7670  -62.6370   53.7050 O.2       4 ALP1        0.0000 
     15 N         -81.0110  -67.4735   53.1490 N.am      2 SEC2        0.0000 
     16 N         -80.3970  -66.2240   53.1270 N.am      8 SEL2        0.0000 
     17 N         -81.6250  -68.7230   53.1710 N.am      5 SEP2        0.0000 
     18 N         -81.2540  -67.0005   54.3425 N.am      2 SEC2        0.0000 
     19 N         -82.1110  -67.7770   55.5580 N.am      5 SEP2        0.0000 
     20 CA        -79.0410  -62.9585   52.1020 C.3       3 GLC5        0.0000 
     21 CA        -79.2790  -64.7070   51.6880 C.3       9 GLL5        0.0000 
     22 CA        -78.8030  -61.2100   52.5160 C.3       6 GLP5        0.0000 
     23 CA        -81.2230  -66.4815   50.8165 C.3       3 GLC5        0.0000 
     24 CA        -79.8960  -65.1140   50.5320 C.3       9 GLL5        0.0000 
     25 CA        -82.5500  -67.8490   51.1010 C.3       6 GLP5        0.0000 
     26 CA        -84.8965  -65.3625   45.7105 C.3       3 GLC5        0.0000 
     27 CA        -83.6150  -64.2640   44.4840 C.3       9 GLL5        0.0000 
     28 CA        -86.1780  -66.4610   46.9370 C.3       6 GLP5        0.0000 
     29 CA        -77.5495  -60.8040   43.8415 C.3       3 GLC5        0.0000 
     30 CA        -78.8320  -62.2120   42.9880 C.3       9 GLL5        0.0000 
     31 CA        -76.2670  -59.3960   44.6950 C.3       6 GLP5        0.0000 
     32 CA        -78.7660  -62.3675   50.6795 C.3       3 GLC5        0.0000 
     33 CA        -78.7290  -63.5250   48.8430 C.3       9 GLL5        0.0000 
     34 CA        -74.2980  -63.6005   55.9315 C.3       3 GLC5        0.0000 
     35 CA        -75.8540  -64.8140   56.3860 C.3       9 GLL5        0.0000 
     36 CA        -72.7420  -62.3870   55.4770 C.3       6 GLP5        0.0000 
     37 CA        -73.3550  -64.5750   56.5742 C.3       3 GLC5        0.0000 
     38 CA        -74.5640  -65.4260   56.3300 C.3       9 GLL5        0.0000 
     39 CA        -72.2140  -63.0220   56.7540 C.3       6 GLP5        0.0000 
     40 CA        -74.2890  -68.8708   56.8678 C.3       3 GLC5        0.0000 
     41 CA        -74.4280  -66.8300   56.4590 C.3       9 GLL5        0.0000 
     42 CA        -73.5700  -70.5100   57.1830 C.3       6 GLP5        0.0000 
     43 CA        -73.5735  -65.9960   58.0722 C.3       3 GLC5        0.0000 
     44 CA        -72.6510  -65.8640   59.7500 C.3       6 GLP5        0.0000 
     45 CA        -76.9348  -68.5892   55.6525 C.3       3 GLC5        0.0000 
     46 CA        -75.5880  -67.6330   56.6460 C.3       9 GLL5        0.0000 
     47 CA        -77.6380  -69.8490   54.6320 C.3       6 GLP5        0.0000 
     48 CA        -76.9832  -67.8197   58.4245 C.3       3 GLC5        0.0000 
     49 CA        -76.8750  -67.0260   56.7000 C.3       9 GLL5        0.0000 
     50 CA        -77.7350  -68.3100   60.1760 C.3       6 GLP5        0.0000 
     51 CA        -76.8597  -63.6605   57.5990 C.3       3 GLC5        0.0000 
     52 CA        -77.2840  -62.1060   58.7200 C.3       6 GLP5        0.0000 
     53 CA        -81.4903  -64.2552   51.0755 C.3       3 GLC5        0.0000 
     54 CA        -83.3930  -63.6000   51.0410 C.3       6 GLP5        0.0000 
     55 CA        -81.9483  -64.1395   48.6362 C.3       3 GLC5        0.0000 
     56 CA        -79.7640  -64.4780   49.1260 C.3       9 GLL5        0.0000 
     57 CA        -83.4520  -63.8770   49.5690 C.3       6 GLP5        0.0000 
     58 CA        -79.2485  -61.0772   46.9327 C.3       3 GLC5        0.0000 
     59 CA        -79.6200  -63.2120   46.5170 C.3       9 GLL5        0.0000 
     60 CA        -79.3640  -59.1030   46.8350 C.3       6 GLP5        0.0000 
@<TRIPOS>BOND
@<TRIPOS>SUBSTRUCTURE
     1 ALC1       12 GROUP        1 X    ALC  0     ROOT ALC X 1
     2 SEC2       15 GROUP        1 X    SEC  0     **** SEC X 2
     3 GLC5        1 GROUP        1 X    GLC  0     **** GLC X 6
     4 ALP1       14 GROUP        1 Y    ALP  0     ROOT ALP Y 8
     5 SEP2       17 GROUP        1 Y    SEP  0     **** SEP Y 9
     6 GLP5        3 GROUP        1 Y    GLP  0     **** GLP Y 13
     7 ALL1       13 GROUP        1 Z    ALL  0     ROOT ALL Z 15
     8 SEL2       16 GROUP        1 Z    SEL  0     **** SEL Z 16
     9 GLL5        2 GROUP        1 Z    GLL  0     **** GLL Z 20
@<TRIPOS>SET

