#    Name: 2ew5_Y12_1_ligand
#    Modification time : Tue Mar 25 12:07:03 2014

@<TRIPOS>MOLECULE
2ew5_Y12_1_ligand
   48    49     1     0     0
SMALL
NO_CHARGES


@<TRIPOS>ATOM
      1 C2        -74.4280  -66.8300   56.4590 C.ar      1 Y12200      0.0000 
      2 C3        -75.5880  -67.6330   56.6460 C.ar      1 Y12200      0.0000 
      3 C4        -76.8750  -67.0260   56.7000 C.ar      1 Y12200      0.0000 
      4 C5        -77.0170  -65.6160   56.5700 C.ar      1 Y12200      0.0000 
      5 C7        -78.4160  -64.9790   56.6230 C.3       1 Y12200      0.0000 
      6 C8        -79.2440  -65.5160   55.4410 C.3       1 Y12200      0.0000 
      7 N9        -78.9060  -64.8820   54.1500 N.am      1 Y12200      0.0000 
      8 C10       -79.5560  -65.3170   53.0320 C.2       1 Y12200      0.0000 
      9 O27       -80.3970  -66.2240   53.1270 O.2       1 Y12200      0.0000 
     10 C11       -79.2790  -64.7070   51.6880 C.2       1 Y12200      0.0000 
     11 C12       -79.8960  -65.1140   50.5320 C.2       1 Y12200      0.0000 
     12 C13       -79.7640  -64.4780   49.1260 C.ar      1 Y12200      0.0000 
     13 C18       -80.7100  -64.7880   48.0900 C.ar      1 Y12200      0.0000 
     14 C17       -80.6520  -64.1710   46.7990 C.ar      1 Y12200      0.0000 
     15 O23       -81.6310  -64.5190   45.8150 O.3       1 Y12200      0.0000 
     16 C24       -82.7120  -63.7130   45.5380 C.2       1 Y12200      0.0000 
     17 O26       -82.9700  -62.6200   46.0790 O.2       1 Y12200      0.0000 
     18 C25       -83.6150  -64.2640   44.4840 C.3       1 Y12200      0.0000 
     19 C16       -79.6200  -63.2120   46.5170 C.ar      1 Y12200      0.0000 
     20 O19       -79.5680  -62.5670   45.2400 O.3       1 Y12200      0.0000 
     21 C20       -78.7610  -63.0120   44.2500 C.2       1 Y12200      0.0000 
     22 O22       -78.0240  -63.9750   44.3370 O.2       1 Y12200      0.0000 
     23 C21       -78.8320  -62.2120   42.9880 C.3       1 Y12200      0.0000 
     24 C15       -78.6460  -62.8910   47.5440 C.ar      1 Y12200      0.0000 
     25 C14       -78.7290  -63.5250   48.8430 C.ar      1 Y12200      0.0000 
     26 C6        -75.8540  -64.8140   56.3860 C.ar      1 Y12200      0.0000 
     27 C1        -74.5640  -65.4260   56.3300 C.ar      1 Y12200      0.0000 
     28 H         -73.5108  -67.2633   56.4187 H         1 Y12200      0.0000 
     29 H         -75.4980  -68.6423   56.7413 H         1 Y12200      0.0000 
     30 H         -77.7037  -67.6084   56.8333 H         1 Y12200      0.0000 
     31 H         -78.3257  -63.9094   56.5384 H         1 Y12200      0.0000 
     32 H         -78.8974  -65.2491   57.5475 H         1 Y12200      0.0000 
     33 H         -80.3119  -65.3612   55.6770 H         1 Y12200      0.0000 
     34 H         -79.0870  -66.6080   55.3854 H         1 Y12200      0.0000 
     35 H         -78.2104  -64.1559   54.1502 H         1 Y12200      0.0000 
     36 H         -78.5761  -63.9415   51.6889 H         1 Y12200      0.0000 
     37 H         -80.5487  -65.9512   50.5337 H         1 Y12200      0.0000 
     38 H         -81.4509  -65.4745   48.2835 H         1 Y12200      0.0000 
     39 H         -77.9124  -62.2265   47.3514 H         1 Y12200      0.0000 
     40 H         -78.0459  -63.2894   49.5568 H         1 Y12200      0.0000 
     41 H         -75.9400  -63.8052   56.2943 H         1 Y12200      0.0000 
     42 H         -73.7371  -64.8419   56.1958 H         1 Y12200      0.0000 
     43 H         -83.1355  -64.3971   43.6166 H         1 Y12200      0.0000 
     44 H         -83.9958  -65.1504   44.7474 H         1 Y12200      0.0000 
     45 H         -84.3875  -63.6557   44.3016 H         1 Y12200      0.0000 
     46 H         -78.5756  -61.2572   43.1386 H         1 Y12200      0.0000 
     47 H         -78.2194  -62.5726   42.2847 H         1 Y12200      0.0000 
     48 H         -79.7540  -62.2103   42.6007 H         1 Y12200      0.0000 
@<TRIPOS>BOND
     1    2    1 ar   
     2   27    1 ar   
     3   28    1 1    
     4    3    2 ar   
     5   29    2 1    
     6    4    3 ar   
     7   30    3 1    
     8    5    4 1    
     9   26    4 ar   
    10    6    5 1    
    11   31    5 1    
    12   32    5 1    
    13    7    6 1    
    14   33    6 1    
    15   34    6 1    
    16    8    7 am   
    17   35    7 1    
    18    9    8 2    
    19   10    8 1    
    20   11   10 2    
    21   36   10 1    
    22   12   11 1    
    23   37   11 1    
    24   13   12 ar   
    25   25   12 ar   
    26   14   13 ar   
    27   38   13 1    
    28   15   14 1    
    29   19   14 ar   
    30   16   15 1    
    31   17   16 2    
    32   18   16 1    
    33   43   18 1    
    34   44   18 1    
    35   45   18 1    
    36   20   19 1    
    37   24   19 ar   
    38   21   20 1    
    39   22   21 2    
    40   23   21 1    
    41   46   23 1    
    42   47   23 1    
    43   48   23 1    
    44   25   24 ar   
    45   39   24 1    
    46   40   25 1    
    47   27   26 ar   
    48   41   26 1    
    49   42   27 1    
@<TRIPOS>SUBSTRUCTURE
     1 Y12200      1 GROUP   
@<TRIPOS>SET

