#    Name: 1ndz_FR5_1_INTS_M
#    Modification time : Mon Mar 24 18:05:09 2014

@<TRIPOS>MOLECULE
1ndz_FR5_1_INTS_M
   73     0     9     0     0
SMALL
NO_CHARGES


@<TRIPOS>ATOM
      1 N          50.8720   52.7635   24.1845 N.am      2 SEC2        0.0000 
      2 N          51.0260   53.3560   23.0160 N.am      8 SEL2        0.0000 
      3 N          50.7180   52.1710   25.3530 N.am      5 SEP2        0.0000 
      4 O          51.1475   50.6120   23.1475 O.2       1 ALC1        0.0000 
      5 O          50.8470   50.9090   21.6410 O.2       7 ALL1        0.0000 
      6 O          51.4480   50.3150   24.6540 O.2       4 ALP1        0.0000 
      7 CA         49.5925   55.9470   23.1340 C.3       3 GLC5        0.0000 
      8 CA         51.1410   56.8020   21.8880 C.3       9 GLL5        0.0000 
      9 CA         48.0440   55.0920   24.3800 C.3       6 GLP5        0.0000 
     10 CA         53.3035   59.5220   21.0945 C.3       3 GLC5        0.0000 
     11 CA         52.5180   57.6040   21.7930 C.3       9 GLL5        0.0000 
     12 CA         54.0890   61.4400   20.3960 C.3       6 GLP5        0.0000 
     13 CA         51.3405   59.2575   20.9955 C.3       3 GLC5        0.0000 
     14 CA         50.1630   60.9110   20.1980 C.3       6 GLP5        0.0000 
     15 N          53.9830   55.8615   22.7095 N.am      2 SEC2        0.0000 
     16 N          53.6000   57.3210   22.6900 N.am      8 SEL2        0.0000 
     17 N          54.3660   54.4020   22.7290 N.am      5 SEP2        0.0000 
     18 O          53.1005   57.3830   23.9355 O.2       1 ALC1        0.0000 
     19 O          53.6000   57.3210   22.6900 O.2       7 ALL1        0.0000 
     20 O          52.6010   57.4450   25.1810 O.2       4 ALP1        0.0000 
     21 O          52.3375   57.9695   23.4545 O.2       1 ALC1        0.0000 
     22 O          51.0750   58.6180   24.2190 O.2       4 ALP1        0.0000 
     23 CA         47.9470   55.6800   22.0690 C.3       3 GLC5        0.0000 
     24 CA         48.8920   56.6160   20.6120 C.3       9 GLL5        0.0000 
     25 CA         47.0020   54.7440   23.5260 C.3       6 GLP5        0.0000 
     26 CA         48.9635   59.4225   19.4465 C.3       3 GLC5        0.0000 
     27 CA         47.7640   57.9340   18.6950 C.3       9 GLL5        0.0000 
     28 CA         48.6410   47.8200   14.9915 C.3       3 GLC5        0.0000 
     29 CA         48.5860   48.9020   16.6980 C.3       9 GLL5        0.0000 
     30 CA         48.6960   46.7380   13.2850 C.3       6 GLP5        0.0000 
     31 CA         46.5645   46.1270   19.2475 C.3       3 GLC5        0.0000 
     32 CA         45.6270   47.6310   18.4380 C.3       9 GLL5        0.0000 
     33 CA         47.5020   44.6230   20.0570 C.3       6 GLP5        0.0000 
     34 CA         43.0165   48.5375   17.9335 C.3       3 GLC5        0.0000 
     35 CA         44.4090   47.0580   18.7170 C.3       9 GLL5        0.0000 
     36 CA         41.6240   50.0170   17.1500 C.3       6 GLP5        0.0000 
     37 CA         44.6365   48.3805   15.4605 C.3       3 GLC5        0.0000 
     38 CA         46.0040   47.4390   15.9250 C.3       9 GLL5        0.0000 
     39 CA         43.2690   49.3220   14.9960 C.3       6 GLP5        0.0000 
     40 CA         47.3500   47.0885   14.6050 C.3       3 GLC5        0.0000 
     41 CA         52.7218   53.7018   22.5465 C.3       3 GLC5        0.0000 
     42 CA         51.0190   53.2330   21.6000 C.3       9 GLL5        0.0000 
     43 CA         54.3030   53.5900   23.7700 C.3       6 GLP5        0.0000 
     44 CA         49.8972   58.9080   20.4093 C.3       3 GLC5        0.0000 
     45 CA         50.3710   57.1940   20.6290 C.3       9 GLL5        0.0000 
     46 CA         50.2998   57.5615   18.9573 C.3       3 GLC5        0.0000 
     47 CA         50.9680   58.2180   17.2940 C.3       6 GLP5        0.0000 
     48 CA         45.9450   55.8085   18.0418 C.3       3 GLC5        0.0000 
     49 CA         47.2130   57.6920   17.5170 C.3       9 GLL5        0.0000 
     50 CA         44.6150   54.6450   18.6610 C.3       6 GLP5        0.0000 
     51 CA         47.2870   54.2255   14.3392 C.3       3 GLC5        0.0000 
     52 CA         47.4630   54.2100   16.3080 C.3       9 GLL5        0.0000 
     53 CA         47.2820   53.6090   12.3940 C.3       6 GLP5        0.0000 
     54 CA         43.5425   46.4032   22.2390 C.3       3 GLC5        0.0000 
     55 CA         44.6010   47.6190   21.1320 C.3       9 GLL5        0.0000 
     56 CA         42.8170   45.4990   23.8730 C.3       6 GLP5        0.0000 
     57 CA         42.3540   47.4142   21.5135 C.3       3 GLC5        0.0000 
     58 CA         40.4400   47.5210   22.4220 C.3       6 GLP5        0.0000 
     59 CA         44.3236   49.1920   20.6154 C.3       3 GLC5        0.0000 
     60 CA         42.9070   50.2630   21.0050 C.3       6 GLP5        0.0000 
     61 CA         46.8926   46.7605   20.7679 C.3       3 GLC5        0.0000 
     62 CA         48.0450   45.4000   21.3100 C.3       6 GLP5        0.0000 
     63 CA         43.5395   48.6450   20.2012 C.3       3 GLC5        0.0000 
     64 CA         43.9350   46.9960   20.0780 C.3       9 GLL5        0.0000 
     65 CA         45.2205   45.4290   19.8992 C.3       3 GLC5        0.0000 
     66 CA         46.2690   43.8310   20.4010 C.3       6 GLP5        0.0000 
     67 CA         49.2816   57.5610   17.6367 C.3       3 GLC5        0.0000 
     68 CA         47.3370   56.2520   17.3280 C.3       9 GLL5        0.0000 
     69 CA         46.1731   54.6355   17.8778 C.3       3 GLC5        0.0000 
     70 CA         47.1210   55.4740   16.2610 C.3       9 GLL5        0.0000 
     71 CA         49.3110   54.9139   16.3494 C.3       3 GLC5        0.0000 
     72 CA         48.0670   55.7380   18.3780 C.3       9 GLL5        0.0000 
     73 CA         50.7500   55.0710   15.2020 C.3       6 GLP5        0.0000 
@<TRIPOS>BOND
@<TRIPOS>SUBSTRUCTURE
     1 ALC1        4 GROUP        1 X    ALC  0     ROOT ALC X 1
     2 SEC2        1 GROUP        1 X    SEC  0     **** SEC X 2
     3 GLC5        7 GROUP        1 X    GLC  0     **** GLC X 6
     4 ALP1        6 GROUP        1 Y    ALP  0     ROOT ALP Y 8
     5 SEP2        3 GROUP        1 Y    SEP  0     **** SEP Y 9
     6 GLP5        9 GROUP        1 Y    GLP  0     **** GLP Y 13
     7 ALL1        5 GROUP        1 Z    ALL  0     ROOT ALL Z 15
     8 SEL2        2 GROUP        1 Z    SEL  0     **** SEL Z 16
     9 GLL5        8 GROUP        1 Z    GLL  0     **** GLL Z 20
@<TRIPOS>SET

