#    Name: 1ndz_FR5_1_ligand
#    Modification time : Mon Mar 24 18:05:09 2014

@<TRIPOS>MOLECULE
1ndz_FR5_1_ligand
   66    70     1     0     0
SMALL
NO_CHARGES


@<TRIPOS>ATOM
      1 C1         51.2620   54.3940   21.0460 C.2       1 FR51001     0.0000 
      2 N2         51.2380   55.3230   22.0730 N.pl3     1 FR51001     0.0000 
      3 C3         51.1550   54.5960   23.2290 C.2       1 FR51001     0.0000 
      4 N4         51.0260   53.3560   23.0160 N.2       1 FR51001     0.0000 
      5 C5         51.0190   53.2330   21.6000 C.2       1 FR51001     0.0000 
      6 C8         50.8310   51.9830   20.8660 C.2       1 FR51001     0.0000 
      7 O9         50.5770   51.9510   19.6320 O.2       1 FR51001     0.0000 
      8 N10        50.8470   50.9090   21.6410 N.am      1 FR51001     0.0000 
      9 C13        51.1410   56.8020   21.8880 C.3       1 FR51001     0.0000 
     10 C14        52.5180   57.6040   21.7930 C.3       1 FR51001     0.0000 
     11 O15        53.6000   57.3210   22.6900 O.3       1 FR51001     0.0000 
     12 C18        50.3710   57.1940   20.6290 C.3       1 FR51001     0.0000 
     13 C19        48.8920   56.6160   20.6120 C.3       1 FR51001     0.0000 
     14 N22        48.2320   56.7680   19.2010 N.pl3     1 FR51001     0.0000 
     15 C27        47.7640   57.9340   18.6950 C.2       1 FR51001     0.0000 
     16 C28        47.2130   57.6920   17.5170 C.2       1 FR51001     0.0000 
     17 C29        47.3370   56.2520   17.3280 C.ar      1 FR51001     0.0000 
     18 C30        48.0670   55.7380   18.3780 C.ar      1 FR51001     0.0000 
     19 C31        47.1210   55.4740   16.2610 C.ar      1 FR51001     0.0000 
     20 C32        47.4630   54.2100   16.3080 C.ar      1 FR51001     0.0000 
     21 C33        48.1200   53.7120   17.3910 C.ar      1 FR51001     0.0000 
     22 C34        48.3740   54.4780   18.4590 C.ar      1 FR51001     0.0000 
     23 N1         48.4400   52.4840   17.5570 N.am      1 FR51001     0.0000 
     24 C2         48.2950   51.5180   16.7830 C.2       1 FR51001     0.0000 
     25 O1         47.6070   51.5150   15.7840 O.2       1 FR51001     0.0000 
     26 C4         49.1440   50.2820   17.1240 C.3       1 FR51001     0.0000 
     27 C6         48.5860   48.9020   16.6980 C.3       1 FR51001     0.0000 
     28 C9         44.6010   47.6190   21.1320 C.ar      1 FR51001     0.0000 
     29 C15        45.8280   48.2110   20.7930 C.ar      1 FR51001     0.0000 
     30 C10        46.2660   48.3270   19.4890 C.ar      1 FR51001     0.0000 
     31 C16        45.6270   47.6310   18.4380 C.ar      1 FR51001     0.0000 
     32 C11        44.4090   47.0580   18.7170 C.ar      1 FR51001     0.0000 
     33 C17        43.9350   46.9960   20.0780 C.ar      1 FR51001     0.0000 
     34 N11        47.4050   48.8850   18.9480 N.2       1 FR51001     0.0000 
     35 C12        47.4170   48.5800   17.6420 C.2       1 FR51001     0.0000 
     36 N13        46.3460   47.8930   17.2600 N.pl3     1 FR51001     0.0000 
     37 C7         46.0040   47.4390   15.9250 C.3       1 FR51001     0.0000 
     38 H          51.4270   54.6049   20.1315 H         1 FR51001     0.0000 
     39 H          51.1976   55.0512   24.1254 H         1 FR51001     0.0000 
     40 H          50.9790   51.0737   22.6185 H         1 FR51001     0.0000 
     41 H          50.7256   50.0308   21.1784 H         1 FR51001     0.0000 
     42 H          50.5985   57.2615   22.7333 H         1 FR51001     0.0000 
     43 H          52.2211   58.7028   21.8430 H         1 FR51001     0.0000 
     44 H          52.8464   57.4947   20.7075 H         1 FR51001     0.0000 
     45 H          50.8838   56.8158   19.7441 H         1 FR51001     0.0000 
     46 H          50.3023   58.2798   20.5556 H         1 FR51001     0.0000 
     47 H          48.3058   57.1591   21.3403 H         1 FR51001     0.0000 
     48 H          48.9329   55.5682   20.8757 H         1 FR51001     0.0000 
     49 H          47.8309   58.7956   19.1382 H         1 FR51001     0.0000 
     50 H          46.8152   58.2533   16.8902 H         1 FR51001     0.0000 
     51 H          46.6826   55.8831   15.4037 H         1 FR51001     0.0000 
     52 H          47.2389   53.5579   15.5159 H         1 FR51001     0.0000 
     53 H          48.7989   54.0645   19.3076 H         1 FR51001     0.0000 
     54 H          48.9235   52.2546   18.5542 H         1 FR51001     0.0000 
     55 H          49.3179   50.2626   18.2238 H         1 FR51001     0.0000 
     56 H          50.1519   50.4059   16.6669 H         1 FR51001     0.0000 
     57 H          49.3517   48.1634   16.8073 H         1 FR51001     0.0000 
     58 H          48.2305   48.9613   15.6910 H         1 FR51001     0.0000 
     59 H          44.2393   47.6449   22.0544 H         1 FR51001     0.0000 
     60 H          46.4289   48.5768   21.5686 H         1 FR51001     0.0000 
     61 H          43.8162   46.6670   17.9806 H         1 FR51001     0.0000 
     62 H          43.0638   46.4626   20.2580 H         1 FR51001     0.0000 
     63 H          46.6658   47.7539   15.2447 H         1 FR51001     0.0000 
     64 H          45.9770   46.4410   15.8676 H         1 FR51001     0.0000 
     65 H          45.1065   47.7735   15.6375 H         1 FR51001     0.0000 
     66 H          53.1922   57.3443   23.6028 H         1 FR51001     0.0000 
@<TRIPOS>BOND
     1    2    1 1    
     2    5    1 2    
     3   38    1 1    
     4    3    2 1    
     5    9    2 1    
     6    4    3 2    
     7   39    3 1    
     8    5    4 1    
     9    6    5 1    
    10    7    6 2    
    11    8    6 am   
    12   40    8 1    
    13   41    8 1    
    14   10    9 1    
    15   12    9 1    
    16   42    9 1    
    17   11   10 1    
    18   43   10 1    
    19   44   10 1    
    20   66   11 1    
    21   13   12 1    
    22   45   12 1    
    23   46   12 1    
    24   14   13 1    
    25   47   13 1    
    26   48   13 1    
    27   15   14 1    
    28   18   14 1    
    29   16   15 2    
    30   49   15 1    
    31   17   16 1    
    32   50   16 1    
    33   18   17 ar   
    34   19   17 ar   
    35   22   18 ar   
    36   20   19 ar   
    37   51   19 1    
    38   21   20 ar   
    39   52   20 1    
    40   22   21 ar   
    41   23   21 1    
    42   53   22 1    
    43   24   23 am   
    44   54   23 1    
    45   25   24 2    
    46   26   24 1    
    47   27   26 1    
    48   55   26 1    
    49   56   26 1    
    50   35   27 1    
    51   57   27 1    
    52   58   27 1    
    53   29   28 ar   
    54   33   28 ar   
    55   59   28 1    
    56   30   29 ar   
    57   60   29 1    
    58   31   30 ar   
    59   34   30 1    
    60   32   31 ar   
    61   36   31 1    
    62   33   32 ar   
    63   61   32 1    
    64   62   33 1    
    65   35   34 2    
    66   36   35 1    
    67   37   36 1    
    68   63   37 1    
    69   64   37 1    
    70   65   37 1    
@<TRIPOS>SUBSTRUCTURE
     1 FR51001     1 GROUP   
@<TRIPOS>SET

