#    Name: 1zgd_NAP_1_INTS_M
#    Modification time : Tue Mar 25 11:45:57 2014

@<TRIPOS>MOLECULE
1zgd_NAP_1_INTS_M
  104     0    12     0     0
SMALL
NO_CHARGES


@<TRIPOS>ATOM
      1 N          36.9430  -18.0830   49.6250 N.am      2 SEC2        0.0000 
      2 N          38.2120  -18.7280   49.5540 N.am     10 SEL2        0.0000 
      3 N          35.6740  -17.4380   49.6960 N.am      6 SEP2        0.0000 
      4 N          39.0765  -17.8380   50.3735 N.am      2 SEC2        0.0000 
      5 N          39.9410  -16.9480   51.1930 N.am      6 SEP2        0.0000 
      6 N          38.0965  -22.6485   48.7705 N.am      2 SEC2        0.0000 
      7 N          38.2230  -21.2020   49.0280 N.am     10 SEL2        0.0000 
      8 N          37.9700  -24.0950   48.5130 N.am      6 SEP2        0.0000 
      9 CA         40.1800  -23.1550   50.0205 C.3       4 GLC5        0.0000 
     10 CA         40.0460  -21.5030   51.4820 C.3      12 GLL5        0.0000 
     11 CA         40.3140  -24.8070   48.5590 C.3       8 GLP5        0.0000 
     12 CA         39.8140  -19.8570   54.0600 C.3       4 GLC5        0.0000 
     13 CA         40.3510  -21.4680   52.9590 C.3      12 GLL5        0.0000 
     14 CA         39.2770  -18.2460   55.1610 C.3       8 GLP5        0.0000 
     15 O          43.0320  -23.1960   54.1290 O.2       1 ALC1        0.0000 
     16 O          42.0430  -22.3350   54.4510 O.2       9 ALL1        0.0000 
     17 O          44.0210  -24.0570   53.8070 O.2       5 ALP1        0.0000 
     18 CA         39.1860  -25.3975   52.9860 C.3       4 GLC5        0.0000 
     19 CA         39.9790  -23.5800   53.9320 C.3      12 GLL5        0.0000 
     20 CA         38.3930  -27.2150   52.0400 C.3       8 GLP5        0.0000 
     21 CA         39.1335  -20.4120   54.8465 C.3       4 GLC5        0.0000 
     22 CA         38.9900  -22.5780   54.5320 C.3      12 GLL5        0.0000 
     23 N          34.6915  -24.6150   52.6870 N.am      2 SEC2        0.0000 
     24 N          35.6100  -23.8850   53.7560 N.am     10 SEL2        0.0000 
     25 N          33.7730  -25.3450   51.6180 N.am      6 SEP2        0.0000 
     26 CA         32.9885  -21.7185   55.2920 C.3       4 GLC5        0.0000 
     27 CA         34.2440  -23.0050   55.7150 C.3      12 GLL5        0.0000 
     28 CA         31.7330  -20.4320   54.8690 C.3       8 GLP5        0.0000 
     29 O          32.5475  -23.9590   54.0225 O.2       1 ALC1        0.0000 
     30 O          33.0650  -23.5130   55.3670 O.2       9 ALL1        0.0000 
     31 O          32.0300  -24.4050   52.6780 O.2       5 ALP1        0.0000 
     32 CA         35.8810  -23.5170   57.5760 C.3       4 GLC5        0.0000 
     33 CA         35.5640  -21.7400   57.2240 C.3      12 GLL5        0.0000 
     34 CA         36.1980  -25.2940   57.9280 C.3       8 GLP5        0.0000 
     35 NZ         43.4575  -18.7055   47.6560 N.4       3 LYC4        0.0000 
     36 NZ         42.2140  -19.1970   47.4010 N.4      11 LYL4        0.0000 
     37 NZ         44.7010  -18.2140   47.9110 N.4       7 LYP4        0.0000 
     38 N          41.6650  -17.9065   46.9635 N.am      2 SEC2        0.0000 
     39 N          42.2140  -19.1970   47.4010 N.am     10 SEL2        0.0000 
     40 N          41.1160  -16.6160   46.5260 N.am      6 SEP2        0.0000 
     41 N          43.4575  -18.7055   47.6560 N.am      2 SEC2        0.0000 
     42 N          44.7010  -18.2140   47.9110 N.am      6 SEP2        0.0000 
     43 N          39.3555  -19.0470   46.0120 N.am      2 SEC2        0.0000 
     44 N          40.0010  -20.1100   46.5460 N.am     10 SEL2        0.0000 
     45 N          38.7100  -17.9840   45.4780 N.am      6 SEP2        0.0000 
     46 CA         42.4380  -25.2470   44.5860 C.3       4 GLC5        0.0000 
     47 CA         41.5590  -23.4610   43.8930 C.3      12 GLL5        0.0000 
     48 CA         43.3170  -27.0330   45.2790 C.3       8 GLP5        0.0000 
     49 N          41.3450  -25.2785   43.9940 N.am      2 SEC2        0.0000 
     50 N          40.5980  -24.1910   43.1370 N.am     10 SEL2        0.0000 
     51 N          42.0920  -26.3660   44.8510 N.am      6 SEP2        0.0000 
     52 O          40.7030  -24.1115   41.7310 O.2       1 ALC1        0.0000 
     53 O          40.5980  -24.1910   43.1370 O.2       9 ALL1        0.0000 
     54 O          40.8080  -24.0320   40.3250 O.2       5 ALP1        0.0000 
     55 O          43.3305  -22.2750   41.2430 O.2       1 ALC1        0.0000 
     56 O          42.3010  -22.9340   41.6800 O.2       9 ALL1        0.0000 
     57 O          44.3600  -21.6160   40.8060 O.2       5 ALP1        0.0000 
     58 CA         40.2925  -19.8115   42.7365 C.3       4 GLC5        0.0000 
     59 CA         41.2600  -21.2640   43.1070 C.3      12 GLL5        0.0000 
     60 CA         39.3250  -18.3590   42.3660 C.3       8 GLP5        0.0000 
     61 CA         39.2585  -21.8575   42.7100 C.3       4 GLC5        0.0000 
     62 CA         37.2570  -22.4510   42.3130 C.3       8 GLP5        0.0000 
     63 N          45.1920  -18.2610   39.1890 N.am      2 SEC2        0.0000 
     64 N          44.1740  -17.0690   39.8140 N.am     10 SEL2        0.0000 
     65 N          46.2100  -19.4530   38.5640 N.am      6 SEP2        0.0000 
     66 N          44.0670  -16.0575   38.7530 N.am      2 SEC2        0.0000 
     67 N          43.9600  -15.0460   37.6920 N.am      6 SEP2        0.0000 
     68 O          42.3990  -18.0210   37.7610 O.2       1 ALC1        0.0000 
     69 O          42.9330  -18.6780   38.9830 O.2       9 ALL1        0.0000 
     70 O          41.8650  -17.3640   36.5390 O.2       5 ALP1        0.0000 
     71 O          41.5940  -19.5220   39.2005 O.2       1 ALC1        0.0000 
     72 O          40.2550  -20.3660   39.4180 O.2       5 ALP1        0.0000 
     73 CA         43.8950  -20.9270   44.6385 C.3       4 GLC5        0.0000 
     74 CA         42.6650  -19.3370   44.0440 C.3      12 GLL5        0.0000 
     75 CA         45.1250  -22.5170   45.2330 C.3       8 GLP5        0.0000 
     76 NZ         38.9490  -25.0700   58.1225 N.4       3 LYC4        0.0000 
     77 NZ         39.8260  -23.7220   57.1650 N.4      11 LYL4        0.0000 
     78 NZ         38.0720  -26.4180   59.0800 N.4       7 LYP4        0.0000 
     79 NZ         39.9625  -26.4740   57.9005 N.4       3 LYC4        0.0000 
     80 NZ         40.6160  -26.0490   56.7590 N.4      11 LYL4        0.0000 
     81 N          39.0785  -25.9570   57.3760 N.am      2 SEC2        0.0000 
     82 N          40.6160  -26.0490   56.7590 N.am     10 SEL2        0.0000 
     83 N          37.5410  -25.8650   57.9930 N.am      6 SEP2        0.0000 
     84 N          39.9625  -26.4740   57.9005 N.am      2 SEC2        0.0000 
     85 N          39.3090  -26.8990   59.0420 N.am      6 SEP2        0.0000 
     86 CA         38.4502  -20.3522   52.1148 C.3       4 GLC5        0.0000 
     87 CA         36.7020  -19.2190   52.0090 C.3       8 GLP5        0.0000 
     88 CA         40.5798  -19.6448   52.0038 C.3       4 GLC5        0.0000 
     89 CA         40.9610  -17.8040   51.7870 C.3       8 GLP5        0.0000 
     90 CA         35.9440  -24.0834   56.6430 C.3       4 GLC5        0.0000 
     91 CA         35.3980  -23.2080   54.9330 C.3      12 GLL5        0.0000 
     92 CA         43.3257  -22.4817   45.4285 C.3       4 GLC5        0.0000 
     93 CA         42.0580  -22.2880   46.1850 C.3      12 GLL5        0.0000 
     94 CA         40.9202  -23.6268   47.0915 C.3       4 GLC5        0.0000 
     95 CA         40.4830  -24.5090   44.6785 C.3       4 GLC5        0.0000 
     96 CA         40.9950  -22.6050   45.0630 C.3      12 GLL5        0.0000 
     97 CA         39.6890  -25.9850   44.8790 C.3       8 GLP5        0.0000 
     98 CA         43.5053  -22.7455   44.3413 C.3       4 GLC5        0.0000 
     99 CA         43.3787  -23.4210   42.4047 C.3       4 GLC5        0.0000 
    100 CA         42.2120  -22.4870   43.0060 C.3      12 GLL5        0.0000 
    101 CA         44.8720  -23.8680   41.3600 C.3       8 GLP5        0.0000 
    102 CA         41.0388  -18.7230   41.9430 C.3       4 GLC5        0.0000 
    103 CA         42.3370  -19.6620   41.6320 C.3      12 GLL5        0.0000 
    104 CA         41.2238  -18.5230   42.9857 C.3       4 GLC5        0.0000 
@<TRIPOS>BOND
@<TRIPOS>SUBSTRUCTURE
     1 ALC1       15 GROUP        1 X    ALC  0     ROOT ALC X 1
     2 SEC2        1 GROUP        1 X    SEC  0     **** SEC X 2
     3 LYC4       35 GROUP        1 X    LYC  0     **** LYC X 4
     4 GLC5        9 GROUP        1 X    GLC  0     **** GLC X 6
     5 ALP1       17 GROUP        1 Y    ALP  0     ROOT ALP Y 8
     6 SEP2        3 GROUP        1 Y    SEP  0     **** SEP Y 9
     7 LYP4       37 GROUP        1 Y    LYP  0     **** LYP Y 11
     8 GLP5       11 GROUP        1 Y    GLP  0     **** GLP Y 13
     9 ALL1       16 GROUP        1 Z    ALL  0     ROOT ALL Z 15
    10 SEL2        2 GROUP        1 Z    SEL  0     **** SEL Z 16
    11 LYL4       36 GROUP        1 Z    LYL  0     **** LYL Z 18
    12 GLL5       10 GROUP        1 Z    GLL  0     **** GLL Z 20
@<TRIPOS>SET

