#    Name: 1zgd_NAP_1_ligand
#    Modification time : Tue Mar 25 11:45:57 2014

@<TRIPOS>MOLECULE
1zgd_NAP_1_ligand
   73    77     1     0     0
SMALL
NO_CHARGES


@<TRIPOS>ATOM
      1 PA         38.9010  -20.0460   49.5860 P.3       1 NAP755      0.0000 
      2 O1A        38.2120  -18.7280   49.5540 O.co2     1 NAP755      0.0000 
      3 O2A        38.2230  -21.2020   49.0280 O.co2     1 NAP755      0.0000 
      4 O5B        39.3460  -20.3010   51.1180 O.3       1 NAP755      0.0000 
      5 C5B        40.0460  -21.5030   51.4820 C.3       1 NAP755      0.0000 
      6 C4B        40.3510  -21.4680   52.9590 C.3       1 NAP755      0.0000 
      7 O4B        39.0970  -21.4440   53.6600 O.3       1 NAP755      0.0000 
      8 C3B        41.0860  -22.6720   53.4260 C.3       1 NAP755      0.0000 
      9 O3B        42.0430  -22.3350   54.4510 O.3       1 NAP755      0.0000 
     10 C2B        39.9790  -23.5800   53.9320 C.3       1 NAP755      0.0000 
     11 O2B        40.3810  -24.6670   54.8370 O.3       1 NAP755      0.0000 
     12 C1B        38.9900  -22.5780   54.5320 C.3       1 NAP755      0.0000 
     13 N9A        37.5420  -22.9720   54.4710 N.pl3     1 NAP755      0.0000 
     14 C8A        36.8810  -23.7280   53.5100 C.2       1 NAP755      0.0000 
     15 N7A        35.6100  -23.8850   53.7560 N.2       1 NAP755      0.0000 
     16 C5A        35.3980  -23.2080   54.9330 C.ar      1 NAP755      0.0000 
     17 C6A        34.2440  -23.0050   55.7150 C.ar      1 NAP755      0.0000 
     18 N6A        33.0650  -23.5130   55.3670 N.pl3     1 NAP755      0.0000 
     19 N1A        34.3630  -22.2630   56.8590 N.ar      1 NAP755      0.0000 
     20 C2A        35.5640  -21.7400   57.2240 C.ar      1 NAP755      0.0000 
     21 N3A        36.7090  -21.8850   56.5430 N.ar      1 NAP755      0.0000 
     22 C4A        36.5590  -22.6390   55.3920 C.ar      1 NAP755      0.0000 
     23 O3         40.3820  -19.8420   48.9450 O.3       1 NAP755      0.0000 
     24 PN         41.1260  -20.1780   47.5620 P.3       1 NAP755      0.0000 
     25 O1N        42.2140  -19.1970   47.4010 O.co2     1 NAP755      0.0000 
     26 O2N        40.0010  -20.1100   46.5460 O.co2     1 NAP755      0.0000 
     27 O5D        41.5550  -21.7230   47.4770 O.3       1 NAP755      0.0000 
     28 C5D        42.0580  -22.2880   46.1850 C.3       1 NAP755      0.0000 
     29 C4D        40.9950  -22.6050   45.0630 C.3       1 NAP755      0.0000 
     30 O4D        40.5850  -21.3930   44.3820 O.3       1 NAP755      0.0000 
     31 C3D        41.5590  -23.4610   43.8930 C.3       1 NAP755      0.0000 
     32 O3D        40.5980  -24.1910   43.1370 O.3       1 NAP755      0.0000 
     33 C2D        42.2120  -22.4870   43.0060 C.3       1 NAP755      0.0000 
     34 O2D        42.3010  -22.9340   41.6800 O.3       1 NAP755      0.0000 
     35 C1D        41.2600  -21.2640   43.1070 C.3       1 NAP755      0.0000 
     36 N1N        42.1040  -20.0550   42.9730 N.pl3     1 NAP755      0.0000 
     37 C2N        42.3370  -19.6620   41.6320 C.ar      1 NAP755      0.0000 
     38 C3N        43.1680  -18.5120   41.4080 C.ar      1 NAP755      0.0000 
     39 C7N        43.4550  -18.0470   40.0470 C.2       1 NAP755      0.0000 
     40 O7N        44.1740  -17.0690   39.8140 O.2       1 NAP755      0.0000 
     41 N7N        42.9330  -18.6780   38.9830 N.am      1 NAP755      0.0000 
     42 C4N        43.6990  -17.8440   42.5240 C.ar      1 NAP755      0.0000 
     43 C5N        43.4610  -18.2300   43.8100 C.ar      1 NAP755      0.0000 
     44 C6N        42.6650  -19.3370   44.0440 C.ar      1 NAP755      0.0000 
     45 P2B        40.7370  -24.6250   56.4070 P.3       1 NAP755      0.0000 
     46 O1X        39.8260  -23.7220   57.1650 O.co2     1 NAP755      0.0000 
     47 O2X        42.1430  -24.1880   56.3400 O.co2     1 NAP755      0.0000 
     48 O3X        40.6160  -26.0490   56.7590 O.co2     1 NAP755      0.0000 
     49 H          40.9895  -21.5946   50.9357 H         1 NAP755      0.0000 
     50 H          39.4438  -22.3924   51.2738 H         1 NAP755      0.0000 
     51 H          40.9151  -20.5853   53.1842 H         1 NAP755      0.0000 
     52 H          41.5375  -23.1449   52.5780 H         1 NAP755      0.0000 
     53 H          39.4767  -23.9796   53.0303 H         1 NAP755      0.0000 
     54 H          39.2807  -22.3188   55.5064 H         1 NAP755      0.0000 
     55 H          37.3734  -24.0966   52.7213 H         1 NAP755      0.0000 
     56 H          32.9045  -23.6204   54.3858 H         1 NAP755      0.0000 
     57 H          32.4454  -23.7417   56.1179 H         1 NAP755      0.0000 
     58 H          35.5888  -21.1643   58.1347 H         1 NAP755      0.0000 
     59 H          42.6188  -23.2353   46.3760 H         1 NAP755      0.0000 
     60 H          42.8087  -21.5951   45.7327 H         1 NAP755      0.0000 
     61 H          40.1653  -23.1081   45.4770 H         1 NAP755      0.0000 
     62 H          42.3292  -24.0972   44.3088 H         1 NAP755      0.0000 
     63 H          43.1390  -22.1826   43.4326 H         1 NAP755      0.0000 
     64 H          40.5785  -21.3464   42.2877 H         1 NAP755      0.0000 
     65 H          41.9409  -20.1617   40.8618 H         1 NAP755      0.0000 
     66 H          43.1586  -18.2923   38.0884 H         1 NAP755      0.0000 
     67 H          42.3653  -19.4772   39.1803 H         1 NAP755      0.0000 
     68 H          44.3093  -17.0051   42.3403 H         1 NAP755      0.0000 
     69 H          43.8634  -17.7115   44.6010 H         1 NAP755      0.0000 
     70 H          42.4753  -19.6465   45.0093 H         1 NAP755      0.0000 
     71 H          42.7146  -23.0757   54.4315 H         1 NAP755      0.0000 
     72 H          40.8259  -24.0058   42.1811 H         1 NAP755      0.0000 
     73 H          42.8891  -22.2678   41.2213 H         1 NAP755      0.0000 
@<TRIPOS>BOND
     1    2    1 ar   
     2    3    1 ar   
     3    4    1 1    
     4   23    1 1    
     5    5    4 1    
     6    6    5 1    
     7   49    5 1    
     8   50    5 1    
     9    7    6 1    
    10    8    6 1    
    11   51    6 1    
    12   12    7 1    
    13    9    8 1    
    14   10    8 1    
    15   52    8 1    
    16   71    9 1    
    17   11   10 1    
    18   12   10 1    
    19   53   10 1    
    20   45   11 1    
    21   13   12 1    
    22   54   12 1    
    23   14   13 1    
    24   22   13 1    
    25   15   14 2    
    26   55   14 1    
    27   16   15 1    
    28   17   16 ar   
    29   22   16 ar   
    30   18   17 1    
    31   19   17 ar   
    32   56   18 1    
    33   57   18 1    
    34   20   19 ar   
    35   21   20 ar   
    36   58   20 1    
    37   22   21 ar   
    38   24   23 1    
    39   25   24 ar   
    40   26   24 ar   
    41   27   24 1    
    42   28   27 1    
    43   29   28 1    
    44   59   28 1    
    45   60   28 1    
    46   30   29 1    
    47   31   29 1    
    48   61   29 1    
    49   35   30 1    
    50   32   31 1    
    51   33   31 1    
    52   62   31 1    
    53   72   32 1    
    54   34   33 1    
    55   35   33 1    
    56   63   33 1    
    57   73   34 1    
    58   36   35 1    
    59   64   35 1    
    60   37   36 ar   
    61   44   36 ar   
    62   38   37 ar   
    63   65   37 1    
    64   39   38 1    
    65   42   38 ar   
    66   40   39 2    
    67   41   39 am   
    68   66   41 1    
    69   67   41 1    
    70   43   42 ar   
    71   68   42 1    
    72   44   43 ar   
    73   69   43 1    
    74   70   44 1    
    75   46   45 ar   
    76   47   45 ar   
    77   48   45 ar   
@<TRIPOS>SUBSTRUCTURE
     1 NAP755      1 GROUP   
@<TRIPOS>SET

