#    Name: 4asj_N6A_4_INTS_M
#    Modification time : Tue Mar 25 06:06:37 2014

@<TRIPOS>MOLECULE
4asj_N6A_4_INTS_M
   58     0     9     0     0
SMALL
NO_CHARGES


@<TRIPOS>ATOM
      1 CA         22.6680   28.7370   57.9435 C.3       3 GLC5        0.0000 
      2 CA         20.9690   27.7040   58.1130 C.3       9 GLL5        0.0000 
      3 CA         24.3670   29.7700   57.7740 C.3       6 GLP5        0.0000 
      4 CA         22.4290   28.5935   56.5905 C.3       3 GLC5        0.0000 
      5 CA         20.8470   27.4760   56.7560 C.3       9 GLL5        0.0000 
      6 CA         24.0110   29.7110   56.4250 C.3       6 GLP5        0.0000 
      7 CA         20.7250   25.0730   54.6110 C.3       3 GLC5        0.0000 
      8 CA         20.4190   26.2600   56.3130 C.3       9 GLL5        0.0000 
      9 CA         21.0310   23.8860   52.9090 C.3       6 GLP5        0.0000 
     10 CA         20.1360   26.9460   54.2455 C.3       3 GLC5        0.0000 
     11 CA         19.8530   27.6320   52.1780 C.3       6 GLP5        0.0000 
     12 CA         20.3645   23.6260   55.9250 C.3       3 GLC5        0.0000 
     13 CA         20.1050   25.2600   57.2260 C.3       9 GLL5        0.0000 
     14 CA         20.6240   21.9920   54.6240 C.3       6 GLP5        0.0000 
     15 O          20.0490   19.9245   57.9465 O.2       1 ALC1        0.0000 
     16 O          20.8390   20.8820   58.3340 O.2       7 ALL1        0.0000 
     17 O          19.2590   18.9670   57.5590 O.2       4 ALP1        0.0000 
     18 N          22.6685   18.4620   57.9545 N.am      2 SEC2        0.0000 
     19 N          22.6880   19.5670   58.8160 N.am      8 SEL2        0.0000 
     20 N          22.6490   17.3570   57.0930 N.am      5 SEP2        0.0000 
     21 CA         25.0405   19.3845   62.4550 C.3       3 GLC5        0.0000 
     22 CA         23.5700   20.4480   61.5800 C.3       9 GLL5        0.0000 
     23 CA         26.5110   18.3210   63.3300 C.3       6 GLP5        0.0000 
     24 CA         24.1830   18.6185   60.6810 C.3       3 GLC5        0.0000 
     25 CA         24.7960   16.7890   59.7820 C.3       6 GLP5        0.0000 
     26 N          27.5165   21.3830   61.8405 N.am      2 SEC2        0.0000 
     27 N          26.2140   21.4250   60.9350 N.am      8 SEL2        0.0000 
     28 N          28.8190   21.3410   62.7460 N.am      5 SEP2        0.0000 
     29 CA         25.7175   23.3285   57.0600 C.3       3 GLC5        0.0000 
     30 CA         24.9740   21.4970   57.2250 C.3       9 GLL5        0.0000 
     31 CA         26.4610   25.1600   56.8950 C.3       6 GLP5        0.0000 
     32 CA         23.9980   19.0935   55.8160 C.3       3 GLC5        0.0000 
     33 CA         25.2360   20.8400   56.0230 C.3       9 GLL5        0.0000 
     34 CA         22.7600   17.3470   55.6090 C.3       6 GLP5        0.0000 
     35 CA         27.7310   19.5620   59.9965 C.3       3 GLC5        0.0000 
     36 CA         26.2540   19.8770   58.4180 C.3       9 GLL5        0.0000 
     37 CA         29.2080   19.2470   61.5750 C.3       6 GLP5        0.0000 
     38 CA         22.3842   26.2688   57.5030 C.3       3 GLC5        0.0000 
     39 CA         20.6560   26.7010   59.0130 C.3       9 GLL5        0.0000 
     40 CA         23.9560   25.3350   56.4430 C.3       6 GLP5        0.0000 
     41 CA         22.2945   26.1015   56.4887 C.3       3 GLC5        0.0000 
     42 CA         18.3250   25.9875   56.3443 C.3       3 GLC5        0.0000 
     43 CA         16.3880   26.2150   55.9190 C.3       6 GLP5        0.0000 
     44 CA         22.0583   25.3427   57.1792 C.3       3 GLC5        0.0000 
     45 CA         18.0847   25.0165   58.6407 C.3       3 GLC5        0.0000 
     46 CA         20.2160   25.4410   58.6050 C.3       9 GLL5        0.0000 
     47 CA         16.1200   25.1050   58.2050 C.3       6 GLP5        0.0000 
     48 CA         23.5695   21.3117   55.5985 C.3       3 GLC5        0.0000 
     49 CA         22.0340   21.4550   54.5730 C.3       6 GLP5        0.0000 
     50 CA         24.9540   19.7148   54.4275 C.3       3 GLC5        0.0000 
     51 CA         24.2770   19.1550   52.8360 C.3       6 GLP5        0.0000 
     52 CA         26.7810   21.0633   54.3205 C.3       3 GLC5        0.0000 
     53 CA         26.0260   19.7090   56.0150 C.3       9 GLL5        0.0000 
     54 CA         27.9310   21.8520   52.6220 C.3       6 GLP5        0.0000 
     55 CA         25.1760   18.0933   55.8932 C.3       3 GLC5        0.0000 
     56 CA         24.0810   16.7170   55.1680 C.3       6 GLP5        0.0000 
     57 CA         25.4941   18.3135   58.8006 C.3       3 GLC5        0.0000 
     58 CA         26.5160   19.2300   57.2220 C.3       9 GLL5        0.0000 
@<TRIPOS>BOND
@<TRIPOS>SUBSTRUCTURE
     1 ALC1       15 GROUP        1 X    ALC  0     ROOT ALC X 1
     2 SEC2       18 GROUP        1 X    SEC  0     **** SEC X 2
     3 GLC5        1 GROUP        1 X    GLC  0     **** GLC X 6
     4 ALP1       17 GROUP        1 Y    ALP  0     ROOT ALP Y 8
     5 SEP2       20 GROUP        1 Y    SEP  0     **** SEP Y 9
     6 GLP5        3 GROUP        1 Y    GLP  0     **** GLP Y 13
     7 ALL1       16 GROUP        1 Z    ALL  0     ROOT ALL Z 15
     8 SEL2       19 GROUP        1 Z    SEL  0     **** SEL Z 16
     9 GLL5        2 GROUP        1 Z    GLL  0     **** GLL Z 20
@<TRIPOS>SET

