#    Name: 4asj_N6A_4_ligand
#    Modification time : Tue Mar 25 06:06:37 2014

@<TRIPOS>MOLECULE
4asj_N6A_4_ligand
   45    47     1     0     0
SMALL
NO_CHARGES


@<TRIPOS>ATOM
      1 CAW        20.6560   26.7010   59.0130 C.ar      1 N6A1294     0.0000 
      2 CAX        20.9690   27.7040   58.1130 C.ar      1 N6A1294     0.0000 
      3 CBA        20.8470   27.4760   56.7560 C.ar      1 N6A1294     0.0000 
      4 CAZ        20.4190   26.2600   56.3130 C.ar      1 N6A1294     0.0000 
      5 CAY        20.1050   25.2600   57.2260 C.ar      1 N6A1294     0.0000 
      6 CAV        20.2160   25.4410   58.6050 C.ar      1 N6A1294     0.0000 
      7 CAU        19.8830   24.4150   59.5480 C.3       1 N6A1294     0.0000 
      8 NAN        20.6780   23.0880   59.3570 N.am      1 N6A1294     0.0000 
      9 CAO        21.8810   22.8370   59.9870 C.2       1 N6A1294     0.0000 
     10 NAP        22.4750   23.7370   60.7940 N.pl3     1 N6A1294     0.0000 
     11 CAM        20.1680   22.1440   58.5640 C.2       1 N6A1294     0.0000 
     12 OAL        19.0760   22.3790   58.0460 O.2       1 N6A1294     0.0000 
     13 NAD        20.8390   20.8820   58.3340 N.am      1 N6A1294     0.0000 
     14 CAE        22.0790   20.6330   58.9660 C.2       1 N6A1294     0.0000 
     15 OAA        22.6880   19.5670   58.8160 O.2       1 N6A1294     0.0000 
     16 CAF        22.5880   21.6450   59.7670 C.2       1 N6A1294     0.0000 
     17 NAG        23.7100   21.3690   60.4180 N.pl3     1 N6A1294     0.0000 
     18 CAB        23.5700   20.4480   61.5800 C.3       1 N6A1294     0.0000 
     19 SAH        25.1480   21.8430   59.9170 S.o2      1 N6A1294     0.0000 
     20 OAQ        25.0780   23.3360   59.7480 O.2       1 N6A1294     0.0000 
     21 OAC        26.2140   21.4250   60.9350 O.2       1 N6A1294     0.0000 
     22 CAI        25.4830   21.0150   58.4150 C.ar      1 N6A1294     0.0000 
     23 CAJ        24.9740   21.4970   57.2250 C.ar      1 N6A1294     0.0000 
     24 CAK        25.2360   20.8400   56.0230 C.ar      1 N6A1294     0.0000 
     25 CAT        26.0260   19.7090   56.0150 C.ar      1 N6A1294     0.0000 
     26 CAS        26.5160   19.2300   57.2220 C.ar      1 N6A1294     0.0000 
     27 CAR        26.2540   19.8770   58.4180 C.ar      1 N6A1294     0.0000 
     28 H          20.7508   26.8887   60.0371 H         1 N6A1294     0.0000 
     29 H          21.2929   28.6205   58.4557 H         1 N6A1294     0.0000 
     30 H          21.0805   28.2271   56.0883 H         1 N6A1294     0.0000 
     31 H          20.3241   26.0699   55.3024 H         1 N6A1294     0.0000 
     32 H          19.7726   24.3357   56.8678 H         1 N6A1294     0.0000 
     33 H          18.8045   24.1493   59.4994 H         1 N6A1294     0.0000 
     34 H          20.0640   24.7463   60.5937 H         1 N6A1294     0.0000 
     35 H          21.8640   24.3538   61.2902 H         1 N6A1294     0.0000 
     36 H          23.4741   23.7082   60.8251 H         1 N6A1294     0.0000 
     37 H          20.4136   20.1969   57.7262 H         1 N6A1294     0.0000 
     38 H          24.3932   22.3516   57.2189 H         1 N6A1294     0.0000 
     39 H          24.8375   21.2036   55.1469 H         1 N6A1294     0.0000 
     40 H          26.2481   19.2308   55.1402 H         1 N6A1294     0.0000 
     41 H          27.0935   18.3645   57.2269 H         1 N6A1294     0.0000 
     42 H          26.6348   19.5059   59.2976 H         1 N6A1294     0.0000 
     43 H          24.4478   20.2802   62.0287 H         1 N6A1294     0.0000 
     44 H          22.9518   20.8170   62.2740 H         1 N6A1294     0.0000 
     45 H          23.2057   19.5578   61.3065 H         1 N6A1294     0.0000 
@<TRIPOS>BOND
     1    2    1 ar   
     2    6    1 ar   
     3   28    1 1    
     4    3    2 ar   
     5   29    2 1    
     6    4    3 ar   
     7   30    3 1    
     8    5    4 ar   
     9   31    4 1    
    10    6    5 ar   
    11   32    5 1    
    12    7    6 1    
    13    8    7 1    
    14   33    7 1    
    15   34    7 1    
    16    9    8 1    
    17   11    8 1    
    18   10    9 1    
    19   16    9 2    
    20   35   10 1    
    21   36   10 1    
    22   12   11 2    
    23   13   11 1    
    24   14   13 1    
    25   37   13 1    
    26   15   14 2    
    27   16   14 1    
    28   17   16 1    
    29   18   17 1    
    30   19   17 1    
    31   43   18 1    
    32   44   18 1    
    33   45   18 1    
    34   20   19 2    
    35   21   19 2    
    36   22   19 1    
    37   23   22 ar   
    38   27   22 ar   
    39   24   23 ar   
    40   38   23 1    
    41   25   24 ar   
    42   39   24 1    
    43   26   25 ar   
    44   40   25 1    
    45   27   26 ar   
    46   41   26 1    
    47   42   27 1    
@<TRIPOS>SUBSTRUCTURE
     1 N6A1294     1 GROUP   
@<TRIPOS>SET

