#    Name: 1j51_TCZ_2_INTS_M
#    Modification time : Tue Mar 25 08:37:41 2014

@<TRIPOS>MOLECULE
1j51_TCZ_2_INTS_M
   30     0     3     0     0
SMALL
NO_CHARGES


@<TRIPOS>ATOM
      1 CA         60.9590  -12.8575  -96.2530 C.3       1 GLC5        0.0000 
      2 CA         60.1250  -12.1480  -97.7980 C.3       3 GLL5        0.0000 
      3 CA         61.7930  -13.5670  -94.7080 C.3       2 GLP5        0.0000 
      4 CA         59.7650  -13.1370  -99.3965 C.3       1 GLC5        0.0000 
      5 CA         59.4050  -14.1260 -100.9950 C.3       2 GLP5        0.0000 
      6 CA         55.2720  -12.1235  -99.6890 C.3       1 GLC5        0.0000 
      7 CA         54.7650  -11.5340  -97.9920 C.3       3 GLL5        0.0000 
      8 CA         55.7790  -12.7130 -101.3860 C.3       2 GLP5        0.0000 
      9 CA         53.1455  -11.0280  -98.1945 C.3       1 GLC5        0.0000 
     10 CA         51.5260  -10.5220  -98.3970 C.3       2 GLP5        0.0000 
     11 CA         53.7015  -13.2105  -98.0250 C.3       1 GLC5        0.0000 
     12 CA         52.6380  -14.8870  -98.0580 C.3       2 GLP5        0.0000 
     13 CA         56.3420  -15.3680  -93.3535 C.3       1 GLC5        0.0000 
     14 CA         57.1700  -14.0070  -93.7600 C.3       3 GLL5        0.0000 
     15 CA         55.5140  -16.7290  -92.9470 C.3       2 GLP5        0.0000 
     16 CA         57.9470  -14.8120  -92.3245 C.3       1 GLC5        0.0000 
     17 CA         58.7240  -15.6170  -90.8890 C.3       2 GLP5        0.0000 
     18 CA         57.9005  -15.6010  -94.8385 C.3       1 GLC5        0.0000 
     19 CA         58.6310  -17.1950  -95.9170 C.3       2 GLP5        0.0000 
     20 CA         60.1752  -13.1177  -95.6043 C.3       1 GLC5        0.0000 
     21 CA         58.5130  -12.9980  -95.8710 C.3       3 GLL5        0.0000 
     22 CA         58.7133  -13.1127  -99.2368 C.3       1 GLC5        0.0000 
     23 CA         58.6020  -12.3390  -97.1300 C.3       3 GLL5        0.0000 
     24 CA         56.2930  -12.3388  -99.4528 C.3       1 GLC5        0.0000 
     25 CA         57.4410  -11.8600  -97.8270 C.3       3 GLL5        0.0000 
     26 CA         54.0543  -11.6698  -96.2963 C.3       1 GLC5        0.0000 
     27 CA         56.1730  -12.0690  -97.2120 C.3       3 GLL5        0.0000 
     28 CA         51.9890  -10.9380  -96.0160 C.3       2 GLP5        0.0000 
     29 CA         58.2578  -15.1457  -95.7458 C.3       1 GLC5        0.0000 
     30 CA         57.2560  -13.1950  -95.2780 C.3       3 GLL5        0.0000 
@<TRIPOS>BOND
@<TRIPOS>SUBSTRUCTURE
     1 GLC5        1 GROUP        1 X    GLC  0     ROOT GLC X 6
     2 GLP5        3 GROUP        1 Y    GLP  0     ROOT GLP Y 13
     3 GLL5        2 GROUP        1 Z    GLL  0     ROOT GLL Z 20
@<TRIPOS>SET

