#    Name: 1j51_TCZ_2_ligand
#    Modification time : Tue Mar 25 08:37:41 2014

@<TRIPOS>MOLECULE
1j51_TCZ_2_ligand
   12    12     1     0     0
SMALL
NO_CHARGES


@<TRIPOS>ATOM
      1 C1         58.6020  -12.3390  -97.1300 C.ar      1 TCZ2450     0.0000 
      2 C2         57.4410  -11.8600  -97.8270 C.ar      1 TCZ2450     0.0000 
      3 C3         56.1730  -12.0690  -97.2120 C.ar      1 TCZ2450     0.0000 
      4 C4         56.0660  -12.7340  -95.9410 C.ar      1 TCZ2450     0.0000 
      5 C5         57.2560  -13.1950  -95.2780 C.ar      1 TCZ2450     0.0000 
      6 C6         58.5130  -12.9980  -95.8710 C.ar      1 TCZ2450     0.0000 
      7 CL1        60.1250  -12.1480  -97.7980 Cl        1 TCZ2450     0.0000 
      8 CL3        54.7650  -11.5340  -97.9920 Cl        1 TCZ2450     0.0000 
      9 CL5        57.1700  -14.0070  -93.7600 Cl        1 TCZ2450     0.0000 
     10 H          57.5250  -11.3997  -98.7070 H         1 TCZ2450     0.0000 
     11 H          55.1609  -12.8762  -95.5170 H         1 TCZ2450     0.0000 
     12 H          59.3615  -13.3212  -95.4107 H         1 TCZ2450     0.0000 
@<TRIPOS>BOND
     1    2    1 ar   
     2    6    1 ar   
     3    7    1 1    
     4    3    2 ar   
     5   10    2 1    
     6    4    3 ar   
     7    8    3 1    
     8    5    4 ar   
     9   11    4 1    
    10    6    5 ar   
    11    9    5 1    
    12   12    6 1    
@<TRIPOS>SUBSTRUCTURE
     1 TCZ2450     1 GROUP   
@<TRIPOS>SET

