#    Name: 2RHQ_1_CAVITY_N1_6.mol2
#    Modification time : Mon Mar 10 13:17:49 2014

@<TRIPOS>MOLECULE
2RHQ_1_CAVITY_N1_6.mol2
  112     0     6     0     0
SMALL
NO_CHARGES


@<TRIPOS>ATOM
      1 CA        103.1490  -12.7536   16.2906 C.3       5 GLY6        0.0000 
      2 CA        101.4162  -12.6802   17.5121 C.3       5 GLY6        0.0000 
      3 OG        101.8506  -12.0038   16.2457 O.2       1 SER1        0.0000 
      4 CA         99.2490  -13.2830   20.0001 C.3       5 GLY6        0.0000 
      5 CA         99.6834  -12.6067   18.7337 C.3       5 GLY6        0.0000 
      6 CZ        100.1178  -11.9304   17.4672 C.ar      4 PHE5        0.0000 
      7 N          97.1922   -7.7059   22.2729 N.2       2 ALA2        0.0000 
      8 CA         97.6266   -7.0296   21.0064 C.3       5 GLY6        0.0000 
      9 O          95.8938   -6.9561   22.2279 O.2       2 ALA2        0.0000 
     10 O          96.3282   -6.2798   20.9615 O.2       2 ALA2        0.0000 
     11 O          93.7266   -7.5589   24.7159 O.2       2 ALA2        0.0000 
     12 O          94.1610   -6.8826   23.4494 O.2       2 ALA2        0.0000 
     13 DU         94.5954   -6.2063   22.1830 H         6 CUB7        0.0000 
     14 DU         95.0298   -5.5300   20.9165 H         6 CUB7        0.0000 
     15 O          95.4642   -4.8537   19.6501 O.2       2 ALA2        0.0000 
     16 O          95.8986   -4.1774   18.3836 O.2       2 ALA2        0.0000 
     17 NZ         92.8627   -6.1328   23.4045 N.2       3 LYS4        0.0000 
     18 DU         94.1658   -4.1039   19.6051 H         6 CUB7        0.0000 
     19 O          98.3122   -8.8886   20.2488 O.2       2 ALA2        0.0000 
     20 O          98.7466   -8.2123   18.9824 O.2       2 ALA2        0.0000 
     21 CA         96.5794   -8.8151   21.4703 C.3       5 GLY6        0.0000 
     22 O          97.0138   -8.1388   20.2039 O.2       2 ALA2        0.0000 
     23 O          97.4482   -7.4625   18.9374 O.2       2 ALA2        0.0000 
     24 O          94.8466   -8.7416   22.6918 O.2       2 ALA2        0.0000 
     25 O          95.2810   -8.0653   21.4254 O.2       2 ALA2        0.0000 
     26 DU         95.7154   -7.3890   20.1589 H         6 CUB7        0.0000 
     27 O          96.1498   -6.7127   18.8925 O.2       2 ALA2        0.0000 
     28 O          96.5842   -6.0364   17.6260 O.2       2 ALA2        0.0000 
     29 CA         97.0186   -5.3601   16.3596 C.3       5 GLY6        0.0000 
     30 CZ         92.5787   -9.9670   17.7064 C.ar      4 PHE5        0.0000 
     31 CZ         93.0131   -9.2907   16.4399 C.ar      4 PHE5        0.0000 
     32 O          96.0722   -6.5231   24.2969 O.2       2 ALA2        0.0000 
     33 N          96.5066   -5.8468   23.0305 N.2       2 ALA2        0.0000 
     34 O          96.9410   -5.1705   21.7640 O.2       2 ALA2        0.0000 
     35 O          97.3754   -4.4942   20.4975 O.2       2 ALA2        0.0000 
     36 O          94.3394   -6.4497   25.5184 O.2       2 ALA2        0.0000 
     37 O          94.7738   -5.7734   24.2520 O.2       2 ALA2        0.0000 
     38 DU         95.2082   -5.0971   22.9855 H         6 CUB7        0.0000 
     39 DU         95.6426   -4.4207   21.7191 H         6 CUB7        0.0000 
     40 O          96.0770   -3.7444   20.4526 O.2       2 ALA2        0.0000 
     41 CA         96.5114   -3.0681   19.1861 C.3       5 GLY6        0.0000 
     42 NZ         93.0410   -5.6999   25.4735 N.2       3 LYS4        0.0000 
     43 NZ         93.4754   -5.0236   24.2070 N.2       3 LYS4        0.0000 
     44 DU         94.7786   -2.9947   20.4076 H         6 CUB7        0.0000 
     45 CZ         95.2130   -2.3184   19.1412 C.ar      4 PHE5        0.0000 
     46 N          95.3866   -4.6641   25.0545 N.2       2 ALA2        0.0000 
     47 O          95.8210   -3.9878   23.7880 O.2       2 ALA2        0.0000 
     48 O          96.2554   -3.3115   22.5216 O.2       2 ALA2        0.0000 
     49 CA         96.6898   -2.6352   21.2551 C.3       5 GLY6        0.0000 
     50 CA         97.1242   -1.9589   19.9887 C.3       5 GLY6        0.0000 
     51 DU         94.9570   -2.5617   22.4766 H         6 CUB7        0.0000 
     52 CZ         95.3914   -1.8854   21.2102 C.ar      4 PHE5        0.0000 
     53 DU         94.0603   -7.5051   15.9760 H         6 CUB7        0.0000 
     54 CA         93.1139   -8.6682   23.9134 C.3       5 GLY6        0.0000 
     55 O          93.5483   -7.9919   22.6469 O.2       2 ALA2        0.0000 
     56 DU         93.9827   -7.3156   21.3804 H         6 CUB7        0.0000 
     57 DU         94.4170   -6.6393   20.1140 H         6 CUB7        0.0000 
     58 DU         94.8514   -5.9629   18.8475 H         6 CUB7        0.0000 
     59 O          95.2858   -5.2866   17.5811 O.2       2 ALA2        0.0000 
     60 N          95.7202   -4.6103   16.3146 N.2       2 ALA2        0.0000 
     61 NZ         91.8155   -7.9184   23.8684 N.2       3 LYS4        0.0000 
     62 CA        102.0290  -11.5709   18.3147 C.3       5 GLY6        0.0000 
     63 O         100.2962  -11.4974   19.5362 O.2       2 ALA2        0.0000 
     64 NZ        100.7306  -10.8211   18.2697 N.2       3 LYS4        0.0000 
     65 N          98.5634  -11.4239   20.7577 N.2       2 ALA2        0.0000 
     66 O          98.9978  -10.7476   19.4912 O.2       2 ALA2        0.0000 
     67 NZ         99.4322  -10.0713   18.2248 N.2       3 LYS4        0.0000 
     68 N          97.2650  -10.6742   20.7128 N.2       2 ALA2        0.0000 
     69 CZ         97.6994   -9.9979   19.4463 C.ar      4 PHE5        0.0000 
     70 CZ         98.1338   -9.3215   18.1798 C.ar      4 PHE5        0.0000 
     71 NZ         98.5682   -8.6452   16.9134 N.2       3 LYS4        0.0000 
     72 CA        101.9234  -14.9721   14.6856 C.3       5 GLY6        0.0000 
     73 CA         95.5323  -10.6007   21.9343 C.3       5 GLY6        0.0000 
     74 CZ         95.9666   -9.9244   20.6678 C.ar      4 PHE5        0.0000 
     75 DU         96.4010   -9.2481   19.4013 H         6 CUB7        0.0000 
     76 O          96.8354   -8.5718   18.1349 O.2       2 ALA2        0.0000 
     77 O          97.2698   -7.8955   16.8684 O.2       2 ALA2        0.0000 
     78 CZ         94.2339   -9.8509   21.8893 C.ar      4 PHE5        0.0000 
     79 CZ         94.6683   -9.1746   20.6229 C.ar      4 PHE5        0.0000 
     80 DU         95.1027   -8.4983   19.3564 H         6 CUB7        0.0000 
     81 DU         95.5370   -7.8220   18.0899 H         6 CUB7        0.0000 
     82 O          95.9714   -7.1457   16.8235 O.2       2 ALA2        0.0000 
     83 O          96.4058   -6.4694   15.5570 O.2       2 ALA2        0.0000 
     84 CZ         92.9355   -9.1011   21.8444 C.ar      4 PHE5        0.0000 
     85 CZ         93.3699   -8.4248   20.5779 C.ar      4 PHE5        0.0000 
     86 DU         93.8043   -7.7485   19.3114 H         6 CUB7        0.0000 
     87 DU         94.6731   -6.3959   16.7785 H         6 CUB7        0.0000 
     88 OG        100.5522  -11.2541   16.2007 O.2       1 SER1        0.0000 
     89 CA         97.9506  -12.5332   19.9552 C.3       5 GLY6        0.0000 
     90 CZ         98.3850  -11.8569   18.6887 C.ar      4 PHE5        0.0000 
     91 CZ         98.8194  -11.1806   17.4222 C.ar      4 PHE5        0.0000 
     92 OG         99.2538  -10.5043   16.1558 O.2       1 SER1        0.0000 
     93 CZ         96.6522  -11.7834   19.9102 C.ar      4 PHE5        0.0000 
     94 CZ         97.0866  -11.1071   18.6438 C.ar      4 PHE5        0.0000 
     95 CZ         97.9554   -9.7545   16.1108 C.ar      4 PHE5        0.0000 
     96 CZ         95.3539  -11.0336   19.8653 C.ar      4 PHE5        0.0000 
     97 CZ         95.7883  -10.3573   18.5988 C.ar      4 PHE5        0.0000 
     98 CZ         96.2226   -9.6810   17.3324 C.ar      4 PHE5        0.0000 
     99 CZ         96.6570   -9.0047   16.0659 C.ar      4 PHE5        0.0000 
    100 CZ         94.4899   -9.6075   18.5539 C.ar      4 PHE5        0.0000 
    101 CZ         94.9243   -8.9312   17.2874 C.ar      4 PHE5        0.0000 
    102 CZ         95.3587   -8.2549   16.0209 C.ar      4 PHE5        0.0000 
    103 DU         93.6259   -8.1814   17.2425 H         6 CUB7        0.0000 
    104 CA        103.8346  -14.6127   15.5331 C.3       5 GLY6        0.0000 
    105 CA        104.2690  -13.9364   14.2666 C.3       5 GLY6        0.0000 
    106 CA        102.1018  -14.5392   16.7546 C.3       5 GLY6        0.0000 
    107 DU        102.5362  -13.8629   15.4881 H         6 CUB7        0.0000 
    108 CA        102.9706  -13.1866   14.2216 C.3       5 GLY6        0.0000 
    109 CZ        100.8034  -13.7894   16.7096 C.ar      4 PHE5        0.0000 
    110 CA        101.2378  -13.1131   15.4432 C.3       5 GLY6        0.0000 
    111 CA         99.0706  -13.7159   17.9311 C.3       5 GLY6        0.0000 
    112 CZ         99.9394  -12.3633   15.3982 C.ar      4 PHE5        0.0000 
@<TRIPOS>BOND
@<TRIPOS>SUBSTRUCTURE
     1 SER1        3 GROUP   
     2 ALA2        7 GROUP   
     3 LYS4       17 GROUP   
     4 PHE5        6 GROUP   
     5 GLY6        1 GROUP   
     6 CUB7       13 GROUP   
@<TRIPOS>SET

