#    Name: 2rhq_GAX_1_INTS_M
#    Modification time : Mon Mar 24 23:58:19 2014

@<TRIPOS>MOLECULE
2rhq_GAX_1_INTS_M
   70     0     9     0     0
SMALL
NO_CHARGES


@<TRIPOS>ATOM
      1 O         101.1110   -9.8775   17.8010 O.2       1 ALC1        0.0000 
      2 O         100.4610  -11.1280   18.2180 O.2       7 ALL1        0.0000 
      3 O         101.7610   -8.6270   17.3840 O.2       4 ALP1        0.0000 
      4 O         101.7625  -10.2415   15.8685 O.2       1 ALC1        0.0000 
      5 O         101.9050  -11.5200   16.4960 O.2       7 ALL1        0.0000 
      6 O         101.6200   -8.9630   15.2410 O.2       4 ALP1        0.0000 
      7 O         101.8330  -10.0735   16.9400 O.2       1 ALC1        0.0000 
      8 N         104.4745  -10.9460   15.9835 N.am      2 SEC2        0.0000 
      9 N         103.7300  -11.7910   15.0110 N.am      8 SEL2        0.0000 
     10 N         105.2190  -10.1010   16.9560 N.am      5 SEP2        0.0000 
     11 N          98.1710   -6.3770   19.5350 N.am      2 SEC2        0.0000 
     12 N          97.4090   -7.3620   20.4430 N.am      8 SEL2        0.0000 
     13 N          98.9330   -5.3920   18.6270 N.am      5 SEP2        0.0000 
     14 CA        105.5980  -11.3200   14.4470 C.3       3 GLC5        0.0000 
     15 CA        104.3940  -12.7580   14.3010 C.3       9 GLL5        0.0000 
     16 CA        106.8020   -9.8820   14.5930 C.3       6 GLP5        0.0000 
     17 CA        106.1700  -13.1345   15.0225 C.3       3 GLC5        0.0000 
     18 CA        107.9460  -13.5110   15.7440 C.3       6 GLP5        0.0000 
     19 CA        103.6300  -16.1480   15.0070 C.3       3 GLC5        0.0000 
     20 CA        103.8710  -14.0250   14.5040 C.3       9 GLL5        0.0000 
     21 CA        103.3890  -18.2710   15.5100 C.3       6 GLP5        0.0000 
     22 CA        101.9910  -13.0440   13.7515 C.3       3 GLC5        0.0000 
     23 CA        102.5150  -14.0220   15.6020 C.3       9 GLL5        0.0000 
     24 CA        101.4670  -12.0660   11.9010 C.3       6 GLP5        0.0000 
     25 CA        103.2395  -15.6410   16.6715 C.3       3 GLC5        0.0000 
     26 CA        103.9640  -17.2600   17.7410 C.3       6 GLP5        0.0000 
     27 CA        102.8705  -13.7910   17.5445 C.3       3 GLC5        0.0000 
     28 CA        103.2260  -13.5600   19.4870 C.3       6 GLP5        0.0000 
     29 CA        101.0670  -13.0080   19.4780 C.3       3 GLC5        0.0000 
     30 CA         98.9080  -12.4560   19.4690 C.3       9 GLL5        0.0000 
     31 CA         95.5835   -9.6745   16.0080 C.3       3 GLC5        0.0000 
     32 CA         95.2230   -7.9500   16.7360 C.3       9 GLL5        0.0000 
     33 CA         95.9440  -11.3990   15.2800 C.3       6 GLP5        0.0000 
     34 CA         93.3320  -10.7500   18.6695 C.3       3 GLC5        0.0000 
     35 CA         93.5830   -9.2290   18.0830 C.3       9 GLL5        0.0000 
     36 CA         93.0810  -12.2710   19.2560 C.3       6 GLP5        0.0000 
     37 CA         94.7635  -10.3140   16.6815 C.3       3 GLC5        0.0000 
     38 CA         93.5165  -10.1765   19.9255 C.3       3 GLC5        0.0000 
     39 CA         94.2030   -8.6230   19.3470 C.3       9 GLL5        0.0000 
     40 CA         92.8300  -11.7300   20.5040 C.3       6 GLP5        0.0000 
     41 CA         94.1445  -10.1245   11.4895 C.3       3 GLC5        0.0000 
     42 CA         93.2310   -9.2790   13.3060 C.3       9 GLL5        0.0000 
     43 CA         95.0580  -10.9700    9.6730 C.3       6 GLP5        0.0000 
     44 CA         92.7255  -11.3945   11.7335 C.3       3 GLC5        0.0000 
     45 CA         92.2730  -10.2640   13.4670 C.3       9 GLL5        0.0000 
     46 CA         93.1780  -12.5250   10.0000 C.3       6 GLP5        0.0000 
     47 CA         91.6320   -9.8545   11.4210 C.3       3 GLC5        0.0000 
     48 CA         90.9910   -9.4450    9.3750 C.3       6 GLP5        0.0000 
     49 CA         96.7657  -10.5740   22.3237 C.3       3 GLC5        0.0000 
     50 CA         97.5160  -10.0170   20.0730 C.3       9 GLL5        0.0000 
     51 CA         96.2240  -10.5000   24.3360 C.3       6 GLP5        0.0000 
     52 CA         99.1470   -8.7080   20.8563 C.3       3 GLC5        0.0000 
     53 CA        100.2120   -7.3810   22.0450 C.3       6 GLP5        0.0000 
     54 CA         98.6955  -14.2882   19.3150 C.3       3 GLC5        0.0000 
     55 CA         97.7580  -12.4590   20.2450 C.3       9 GLL5        0.0000 
     56 CA         99.0580  -16.1190   18.7730 C.3       6 GLP5        0.0000 
     57 CA        102.7997  -12.7287   13.1517 C.3       3 GLC5        0.0000 
     58 CA        105.4758  -14.1822   13.4058 C.3       3 GLC5        0.0000 
     59 CA        106.8190  -14.9730   12.4090 C.3       6 GLP5        0.0000 
     60 CA        104.8685  -14.3652   16.2200 C.3       3 GLC5        0.0000 
     61 CA        106.5440  -14.7070   17.3870 C.3       6 GLP5        0.0000 
     62 CA        103.0320  -15.3903   13.7415 C.3       3 GLC5        0.0000 
     63 CA        102.8710  -16.7570   12.4300 C.3       6 GLP5        0.0000 
     64 CA         98.3511  -12.8062   21.7321 C.3       3 GLC5        0.0000 
     65 CA         98.5340  -13.4500   23.5310 C.3       6 GLP5        0.0000 
     66 CA        100.2087  -11.2523   20.9401 C.3       3 GLC5        0.0000 
     67 CA        101.4660  -10.9530   22.5870 C.3       6 GLP5        0.0000 
     68 CA         92.4718  -12.3107   14.2700 C.3       3 GLC5        0.0000 
     69 CA         91.8560  -10.5910   14.7530 C.3       9 GLL5        0.0000 
     70 CA         92.8790  -14.1940   14.4300 C.3       6 GLP5        0.0000 
@<TRIPOS>BOND
@<TRIPOS>SUBSTRUCTURE
     1 ALC1        1 GROUP        1 X    ALC  0     ROOT ALC X 1
     2 SEC2        8 GROUP        1 X    SEC  0     **** SEC X 2
     3 GLC5       14 GROUP        1 X    GLC  0     **** GLC X 6
     4 ALP1        3 GROUP        1 Y    ALP  0     ROOT ALP Y 8
     5 SEP2       10 GROUP        1 Y    SEP  0     **** SEP Y 9
     6 GLP5       16 GROUP        1 Y    GLP  0     **** GLP Y 13
     7 ALL1        2 GROUP        1 Z    ALL  0     ROOT ALL Z 15
     8 SEL2        9 GROUP        1 Z    SEL  0     **** SEL Z 16
     9 GLL5       15 GROUP        1 Z    GLL  0     **** GLL Z 20
@<TRIPOS>SET

