#    Name: 2rhq_GAX_1_ligand
#    Modification time : Mon Mar 24 23:58:19 2014

@<TRIPOS>MOLECULE
2rhq_GAX_1_ligand
   50    53     1     0     0
SMALL
NO_CHARGES


@<TRIPOS>ATOM
      1 N6         92.3610   -9.9800   15.8350 N.ar      1 GAX352      0.0000 
      2 N1        100.4610  -11.1280   18.2180 N.am      1 GAX352      0.0000 
      3 C2         99.3420  -11.2410   18.9730 C.ar      1 GAX352      0.0000 
      4 N2        101.9050  -11.5200   16.4960 N.am      1 GAX352      0.0000 
      5 N3        103.7300  -11.7910   15.0110 N.2       1 GAX352      0.0000 
      6 C4         97.5160  -10.0170   20.0730 C.ar      1 GAX352      0.0000 
      7 N4         95.6460   -8.5170   19.1170 N.pl3     1 GAX352      0.0000 
      8 C5         97.0990  -11.2790   20.5500 C.ar      1 GAX352      0.0000 
      9 C6         97.7580  -12.4590   20.2450 C.ar      1 GAX352      0.0000 
     10 O1         95.9300   -8.7130   21.6170 O.2       1 GAX352      0.0000 
     11 O2         97.4090   -7.3620   20.4430 O.2       1 GAX352      0.0000 
     12 O3        100.6120  -13.1600   17.3180 O.2       1 GAX352      0.0000 
     13 C7        100.9560  -11.9990   17.3300 C.2       1 GAX352      0.0000 
     14 C8        102.7370  -12.3140   15.7630 C.2       1 GAX352      0.0000 
     15 C10       104.3940  -12.7580   14.3010 C.2       1 GAX352      0.0000 
     16 C9        103.8710  -14.0250   14.5040 C.2       1 GAX352      0.0000 
     17 S2        102.5150  -14.0220   15.6020 S.3       1 GAX352      0.0000 
     18 C3         98.6480  -10.0530   19.2620 C.ar      1 GAX352      0.0000 
     19 C1         98.9080  -12.4560   19.4690 C.ar      1 GAX352      0.0000 
     20 S1         96.6790   -8.6040   20.3990 S.o2      1 GAX352      0.0000 
     21 C14        95.9230   -7.5420   18.0390 C.3       1 GAX352      0.0000 
     22 C13        95.2230   -7.9500   16.7360 C.3       1 GAX352      0.0000 
     23 N5         93.8100   -8.3770   16.8950 N.3       1 GAX352      0.0000 
     24 C12        93.5830   -9.2290   18.0830 C.3       1 GAX352      0.0000 
     25 C11        94.2030   -8.6230   19.3470 C.3       1 GAX352      0.0000 
     26 C15        93.3040   -9.0150   15.7230 C.ar      1 GAX352      0.0000 
     27 C19        93.7480   -8.6560   14.4440 C.ar      1 GAX352      0.0000 
     28 C18        93.2310   -9.2790   13.3060 C.ar      1 GAX352      0.0000 
     29 C17        92.2730  -10.2640   13.4670 C.ar      1 GAX352      0.0000 
     30 C16        91.8560  -10.5910   14.7530 C.ar      1 GAX352      0.0000 
     31 H         101.0332  -10.1977   18.3568 H         1 GAX352      0.0000 
     32 H         102.0134  -10.4653   16.4022 H         1 GAX352      0.0000 
     33 H          96.2499  -11.3131   21.1628 H         1 GAX352      0.0000 
     34 H          97.3865  -13.3588   20.6019 H         1 GAX352      0.0000 
     35 H         105.1588  -12.5796   13.7101 H         1 GAX352      0.0000 
     36 H         104.0800  -14.8709   14.1878 H         1 GAX352      0.0000 
     37 H          99.0012   -9.1603   18.8475 H         1 GAX352      0.0000 
     38 H          99.4098  -13.3146   19.2743 H         1 GAX352      0.0000 
     39 H          96.9983   -7.4788   17.8464 H         1 GAX352      0.0000 
     40 H          95.5687   -6.5463   18.3224 H         1 GAX352      0.0000 
     41 H          95.8146   -8.7662   16.2706 H         1 GAX352      0.0000 
     42 H          95.2822   -7.0929   16.0327 H         1 GAX352      0.0000 
     43 H          94.0201  -10.2246   17.9288 H         1 GAX352      0.0000 
     44 H          92.5071   -9.3628   18.2578 H         1 GAX352      0.0000 
     45 H          93.7609   -7.6505   19.5126 H         1 GAX352      0.0000 
     46 H          93.9869   -9.2759   20.1810 H         1 GAX352      0.0000 
     47 H          94.4658   -7.9222   14.3432 H         1 GAX352      0.0000 
     48 H          93.5566   -9.0093   12.3789 H         1 GAX352      0.0000 
     49 H          91.8766  -10.7448   12.6577 H         1 GAX352      0.0000 
     50 H          91.1269  -11.3375   14.8567 H         1 GAX352      0.0000 
@<TRIPOS>BOND
     1   26    1 ar   
     2   30    1 ar   
     3    3    2 1    
     4   13    2 am   
     5   31    2 1    
     6   18    3 ar   
     7   19    3 ar   
     8   13    4 am   
     9   14    4 1    
    10   32    4 1    
    11   14    5 2    
    12   15    5 1    
    13    8    6 ar   
    14   18    6 ar   
    15   20    6 1    
    16   20    7 1    
    17   21    7 1    
    18   25    7 1    
    19    9    8 ar   
    20   33    8 1    
    21   19    9 ar   
    22   34    9 1    
    23   20   10 2    
    24   20   11 2    
    25   13   12 2    
    26   17   14 1    
    27   16   15 2    
    28   35   15 1    
    29   17   16 1    
    30   36   16 1    
    31   37   18 1    
    32   38   19 1    
    33   22   21 1    
    34   39   21 1    
    35   40   21 1    
    36   23   22 1    
    37   41   22 1    
    38   42   22 1    
    39   24   23 1    
    40   26   23 1    
    41   25   24 1    
    42   43   24 1    
    43   44   24 1    
    44   45   25 1    
    45   46   25 1    
    46   27   26 ar   
    47   28   27 ar   
    48   47   27 1    
    49   29   28 ar   
    50   48   28 1    
    51   30   29 ar   
    52   49   29 1    
    53   50   30 1    
@<TRIPOS>SUBSTRUCTURE
     1 GAX352      1 GROUP   
@<TRIPOS>SET

