#    Name: 1jnq_EGT_1_INTS_M
#    Modification time : Tue Mar 25 09:08:05 2014

@<TRIPOS>MOLECULE
1jnq_EGT_1_INTS_M
   52     0     9     0     0
SMALL
NO_CHARGES


@<TRIPOS>ATOM
      1 CA         18.7980    6.6990   20.6195 C.3       3 GLC5        0.0000 
      2 CA         20.0180    5.3470   21.0750 C.3       9 GLL5        0.0000 
      3 CA         17.5780    8.0510   20.1640 C.3       6 GLP5        0.0000 
      4 CA         18.2475    5.9075   19.4500 C.3       3 GLC5        0.0000 
      5 CA         19.1680    4.5750   20.0110 C.3       9 GLL5        0.0000 
      6 CA         17.3270    7.2400   18.8890 C.3       6 GLP5        0.0000 
      7 CA         20.5440    6.3030   14.9940 C.3       3 GLC5        0.0000 
      8 CA         20.2280    4.7180   16.3390 C.3       9 GLL5        0.0000 
      9 CA         20.8600    7.8880   13.6490 C.3       6 GLP5        0.0000 
     10 CA         21.9575    6.4905   15.2280 C.3       3 GLC5        0.0000 
     11 CA         21.5970    4.8980   16.4780 C.3       9 GLL5        0.0000 
     12 CA         22.3180    8.0830   13.9780 C.3       6 GLP5        0.0000 
     13 CA         21.5885    1.5735   23.0150 C.3       3 GLC5        0.0000 
     14 CA         20.9770    2.9530   21.4330 C.3       9 GLL5        0.0000 
     15 CA         22.2000    0.1940   24.5970 C.3       6 GLP5        0.0000 
     16 CA         18.9605    3.4445   21.9485 C.3       3 GLC5        0.0000 
     17 CA         16.9440    3.9360   22.4640 C.3       6 GLP5        0.0000 
     18 CA         20.3660    2.1375   24.1550 C.3       3 GLC5        0.0000 
     19 CA         20.2410    2.4680   22.5170 C.3       9 GLL5        0.0000 
     20 CA         20.4910    1.8070   25.7930 C.3       6 GLP5        0.0000 
     21 CA         20.0520    1.0460   18.5360 C.3       3 GLC5        0.0000 
     22 CA         20.9800    0.7250   20.4940 C.3       9 GLL5        0.0000 
     23 CA         19.1240    1.3670   16.5780 C.3       6 GLP5        0.0000 
     24 Zn         23.3060    4.2000   15.3725 Zn        2 ZIC7        0.0000 
     25 Zn         22.3440    5.1750   15.3970 Zn        8 ZIL7        0.0000 
     26 Zn         24.2680    3.2250   15.3480 Zn        5 ZIP7        0.0000 
     27 O          20.0345   -1.5585   20.1690 O.2       1 ALC1        0.0000 
     28 O          19.8380   -1.0450   21.5810 O.2       7 ALL1        0.0000 
     29 O          20.2310   -2.0720   18.7570 O.2       4 ALP1        0.0000 
     30 O          20.8180   -1.0975   19.1415 O.2       1 ALC1        0.0000 
     31 O          21.4050   -0.1230   19.5260 O.2       7 ALL1        0.0000 
     32 CA         22.8182    4.5168   21.9937 C.3       3 GLC5        0.0000 
     33 CA         21.2800    4.4580   21.3100 C.3       9 GLL5        0.0000 
     34 CA         24.5080    5.3280   22.6160 C.3       6 GLP5        0.0000 
     35 CA         18.2685    4.4485   21.5035 C.3       3 GLC5        0.0000 
     36 CA         19.4205    2.9435   17.3402 C.3       3 GLC5        0.0000 
     37 CA         19.4280    4.5220   17.4660 C.3       9 GLL5        0.0000 
     38 CA         19.1047    6.1760   17.4989 C.3       3 GLC5        0.0000 
     39 CA         20.0060    4.5180   18.7390 C.3       9 GLL5        0.0000 
     40 CA         18.2370    7.7330   17.7770 C.3       6 GLP5        0.0000 
     41 CA         20.0003    3.3160   15.7687 C.3       3 GLC5        0.0000 
     42 CA         19.0880    1.8240   15.1290 C.3       6 GLP5        0.0000 
     43 CA         23.8395    5.0587   17.3315 C.3       3 GLC5        0.0000 
     44 CA         25.7840    5.2360   17.5570 C.3       6 GLP5        0.0000 
     45 CA         21.1574    4.0059   23.6076 C.3       3 GLC5        0.0000 
     46 CA         21.6300    4.9250   25.2710 C.3       6 GLP5        0.0000 
     47 CA         18.8080    2.9603   23.1877 C.3       3 GLC5        0.0000 
     48 CA         17.5610    4.1260   23.8330 C.3       6 GLP5        0.0000 
     49 CA         21.3580    0.4495   22.9372 C.3       3 GLC5        0.0000 
     50 CA         19.8690    1.1210   22.5680 C.3       9 GLL5        0.0000 
     51 CA         22.9515    1.2975   19.8777 C.3       3 GLC5        0.0000 
     52 CA         24.7450    1.2010   19.2850 C.3       6 GLP5        0.0000 
@<TRIPOS>BOND
@<TRIPOS>SUBSTRUCTURE
     1 ALC1       27 GROUP        1 X    ALC  0     ROOT ALC X 1
     2 ZIC7       24 GROUP        1 X    ZIC  0     **** ZIC X 5
     3 GLC5        1 GROUP        1 X    GLC  0     **** GLC X 6
     4 ALP1       29 GROUP        1 Y    ALP  0     ROOT ALP Y 8
     5 ZIP7       26 GROUP        1 Y    ZIP  0     **** ZIP Y 12
     6 GLP5        3 GROUP        1 Y    GLP  0     **** GLP Y 13
     7 ALL1       28 GROUP        1 Z    ALL  0     ROOT ALL Z 15
     8 ZIL7       25 GROUP        1 Z    ZIL  0     **** ZIL Z 19
     9 GLL5        2 GROUP        1 Z    GLL  0     **** GLL Z 20
@<TRIPOS>SET

