#    Name: 1jnq_EGT_1_ligand
#    Modification time : Tue Mar 25 09:08:05 2014

@<TRIPOS>MOLECULE
1jnq_EGT_1_ligand
   35    37     1     0     0
SMALL
NO_CHARGES


@<TRIPOS>ATOM
      1 O1         21.9960    4.5370   20.0880 O.3       1 EGT871      0.0000 
      2 C2         21.2800    4.4580   21.3100 C.3       1 EGT871      0.0000 
      3 C3         20.0180    5.3470   21.0750 C.3       1 EGT871      0.0000 
      4 C4         19.1680    4.5750   20.0110 C.3       1 EGT871      0.0000 
      5 C5         20.0060    4.5180   18.7390 C.ar      1 EGT871      0.0000 
      6 C6         19.4280    4.5220   17.4660 C.ar      1 EGT871      0.0000 
      7 C7         20.2280    4.7180   16.3390 C.ar      1 EGT871      0.0000 
      8 C8         21.5970    4.8980   16.4780 C.ar      1 EGT871      0.0000 
      9 C9         22.1930    4.8650   17.7340 C.ar      1 EGT871      0.0000 
     10 C10        21.4150    4.6660   18.8580 C.ar      1 EGT871      0.0000 
     11 C11        20.9770    2.9530   21.4330 C.ar      1 EGT871      0.0000 
     12 C12        20.2410    2.4680   22.5170 C.ar      1 EGT871      0.0000 
     13 C13        19.8690    1.1210   22.5680 C.ar      1 EGT871      0.0000 
     14 C14        20.2350    0.2490   21.5540 C.ar      1 EGT871      0.0000 
     15 C15        20.9800    0.7250   20.4940 C.ar      1 EGT871      0.0000 
     16 C16        21.3360    2.0630   20.4470 C.ar      1 EGT871      0.0000 
     17 O17        19.2840    5.5380   22.2630 O.3       1 EGT871      0.0000 
     18 O18        18.0990    4.3050   17.3010 O.3       1 EGT871      0.0000 
     19 O19        22.3440    5.1750   15.3970 O.3       1 EGT871      0.0000 
     20 O20        19.1480    0.6590   23.6030 O.3       1 EGT871      0.0000 
     21 O21        19.8380   -1.0450   21.5810 O.3       1 EGT871      0.0000 
     22 O22        21.4050   -0.1230   19.5260 O.3       1 EGT871      0.0000 
     23 H          21.8268    4.7976   22.1129 H         1 EGT871      0.0000 
     24 H          20.3479    6.2524   20.6139 H         1 EGT871      0.0000 
     25 H          18.2654    5.1183   19.8359 H         1 EGT871      0.0000 
     26 H          18.9796    3.5888   20.3750 H         1 EGT871      0.0000 
     27 H          19.7980    4.7284   15.4041 H         1 EGT871      0.0000 
     28 H          23.2102    4.9888   17.8214 H         1 EGT871      0.0000 
     29 H          19.9721    3.1022   23.2790 H         1 EGT871      0.0000 
     30 H          21.8974    2.4047   19.6317 H         1 EGT871      0.0000 
     31 H          18.5821    6.2105   22.0281 H         1 EGT871      0.0000 
     32 H          18.6835    5.0683   17.5763 H         1 EGT871      0.0000 
     33 H          19.7945    0.1304   24.1532 H         1 EGT871      0.0000 
     34 H          19.9456   -1.3683   20.6408 H         1 EGT871      0.0000 
     35 H          20.5690   -0.4763   19.1063 H         1 EGT871      0.0000 
@<TRIPOS>BOND
     1    2    1 1    
     2   10    1 1    
     3    3    2 1    
     4   11    2 1    
     5   23    2 1    
     6    4    3 1    
     7   17    3 1    
     8   24    3 1    
     9    5    4 1    
    10   25    4 1    
    11   26    4 1    
    12    6    5 ar   
    13   10    5 ar   
    14    7    6 ar   
    15   18    6 1    
    16    8    7 ar   
    17   27    7 1    
    18    9    8 ar   
    19   19    8 1    
    20   10    9 ar   
    21   28    9 1    
    22   12   11 ar   
    23   16   11 ar   
    24   13   12 ar   
    25   29   12 1    
    26   14   13 ar   
    27   20   13 1    
    28   15   14 ar   
    29   21   14 1    
    30   16   15 ar   
    31   22   15 1    
    32   30   16 1    
    33   31   17 1    
    34   32   18 1    
    35   33   20 1    
    36   34   21 1    
    37   35   22 1    
@<TRIPOS>SUBSTRUCTURE
     1 EGT871      1 GROUP   
@<TRIPOS>SET

