#    Name: 3rps_4B0_1_INTS_M
#    Modification time : Tue Mar 25 11:48:21 2014

@<TRIPOS>MOLECULE
3rps_4B0_1_INTS_M
   56     0     9     0     0
SMALL
NO_CHARGES


@<TRIPOS>ATOM
      1 N          23.0020  -37.1270  -11.6660 N.am      2 SEC2        0.0000 
      2 N          21.7340  -36.0890  -11.9710 N.am      8 SEL2        0.0000 
      3 N          24.2700  -38.1650  -11.3610 N.am      5 SEP2        0.0000 
      4 O          23.1975  -35.6525  -11.5300 O.2       1 ALC1        0.0000 
      5 O          21.7340  -36.0890  -11.9710 O.2       7 ALL1        0.0000 
      6 O          24.6610  -35.2160  -11.0890 O.2       4 ALP1        0.0000 
      7 CA         15.6670  -41.2935   -2.1805 C.3       3 GLC5        0.0000 
      8 CA         17.2000  -41.1080   -3.6020 C.3       9 GLL5        0.0000 
      9 CA         14.1340  -41.4790   -0.7590 C.3       6 GLP5        0.0000 
     10 CA         18.5995  -41.4860   -1.9210 C.3       3 GLC5        0.0000 
     11 CA         19.9990  -41.8640   -0.2400 C.3       6 GLP5        0.0000 
     12 CA         17.5200  -43.2900   -7.7805 C.3       3 GLC5        0.0000 
     13 CA         16.2820  -42.0310   -6.6360 C.3       9 GLL5        0.0000 
     14 CA         18.7580  -44.5490   -8.9250 C.3       6 GLP5        0.0000 
     15 CA         16.9015  -43.6390   -5.7420 C.3       3 GLC5        0.0000 
     16 CA         17.5210  -45.2470   -4.8480 C.3       6 GLP5        0.0000 
     17 CA         21.0520  -37.8475   -3.0145 C.3       3 GLC5        0.0000 
     18 CA         19.2050  -38.6080   -3.1900 C.3       9 GLL5        0.0000 
     19 CA         22.8990  -37.0870   -2.8390 C.3       6 GLP5        0.0000 
     20 CA         19.9685  -39.6860   -1.5110 C.3       3 GLC5        0.0000 
     21 CA         20.7320  -40.7640    0.1680 C.3       6 GLP5        0.0000 
     22 CA         17.6930  -37.3905   -2.8820 C.3       3 GLC5        0.0000 
     23 CA         16.1810  -36.1730   -2.5740 C.3       6 GLP5        0.0000 
     24 CA         18.7815  -41.7895   -9.9455 C.3       3 GLC5        0.0000 
     25 CA         17.4540  -40.3320   -9.3000 C.3       9 GLL5        0.0000 
     26 CA         20.1090  -43.2470  -10.5910 C.3       6 GLP5        0.0000 
     27 CA         15.9235  -40.9625  -10.3425 C.3       3 GLC5        0.0000 
     28 CA         14.3930  -41.5930  -11.3850 C.3       6 GLP5        0.0000 
     29 CA         23.0120  -37.4355  -10.2780 C.3       3 GLC5        0.0000 
     30 CA         20.8390  -37.3910  -10.1020 C.3       9 GLL5        0.0000 
     31 CA         25.1850  -37.4800  -10.4540 C.3       6 GLP5        0.0000 
     32 CA         22.2430  -35.9845   -9.3295 C.3       3 GLC5        0.0000 
     33 CA         23.6470  -34.5780   -8.5570 C.3       6 GLP5        0.0000 
     34 CA         18.4885  -42.1505   -5.6420 C.3       3 GLC5        0.0000 
     35 CA         17.4610  -40.5550   -6.4240 C.3       9 GLL5        0.0000 
     36 CA         19.5160  -43.7460   -4.8600 C.3       6 GLP5        0.0000 
     37 CA         15.9440  -39.3045   -7.0345 C.3       3 GLC5        0.0000 
     38 CA         14.4270  -38.0540   -7.6450 C.3       6 GLP5        0.0000 
     39 CA         21.0955  -39.0835   -6.0605 C.3       3 GLC5        0.0000 
     40 CA         19.1850  -38.4100   -6.0350 C.3       9 GLL5        0.0000 
     41 CA         23.0060  -39.7570   -6.0860 C.3       6 GLP5        0.0000 
     42 CA         16.6245  -38.4085   -7.4830 C.3       3 GLC5        0.0000 
     43 CA         18.8220  -38.7630   -7.3210 C.3       9 GLL5        0.0000 
     44 CA         18.5177  -42.1953   -4.6128 C.3       3 GLC5        0.0000 
     45 CA         17.8390  -40.1810   -5.1290 C.3       9 GLL5        0.0000 
     46 CA         16.0658  -39.0708   -8.0305 C.3       3 GLC5        0.0000 
     47 CA         17.9550  -39.8430   -7.5320 C.3       9 GLL5        0.0000 
     48 CA         21.9297  -38.6322  -11.5768 C.3       3 GLC5        0.0000 
     49 CA         23.0430  -40.0120  -12.2960 C.3       6 GLP5        0.0000 
     50 CA         21.2260  -38.9723   -9.1143 C.3       3 GLC5        0.0000 
     51 CA         22.3050  -40.3560   -8.4030 C.3       6 GLP5        0.0000 
     52 CA         17.5800  -37.8030   -5.0322 C.3       3 GLC5        0.0000 
     53 CA         18.7010  -39.1110   -4.9400 C.3       9 GLL5        0.0000 
     54 CA         16.8900  -35.9600   -5.0300 C.3       6 GLP5        0.0000 
     55 CA         20.3468  -39.8295   -7.9147 C.3       3 GLC5        0.0000 
     56 CA         17.9468  -37.2733   -5.8540 C.3       3 GLC5        0.0000 
@<TRIPOS>BOND
@<TRIPOS>SUBSTRUCTURE
     1 ALC1        4 GROUP        1 X    ALC  0     ROOT ALC X 1
     2 SEC2        1 GROUP        1 X    SEC  0     **** SEC X 2
     3 GLC5        7 GROUP        1 X    GLC  0     **** GLC X 6
     4 ALP1        6 GROUP        1 Y    ALP  0     ROOT ALP Y 8
     5 SEP2        3 GROUP        1 Y    SEP  0     **** SEP Y 9
     6 GLP5        9 GROUP        1 Y    GLP  0     **** GLP Y 13
     7 ALL1        5 GROUP        1 Z    ALL  0     ROOT ALL Z 15
     8 SEL2        2 GROUP        1 Z    SEL  0     **** SEL Z 16
     9 GLL5        8 GROUP        1 Z    GLL  0     **** GLL Z 20
@<TRIPOS>SET

