#    Name: 3rps_4B0_1_ligand
#    Modification time : Tue Mar 25 11:48:21 2014

@<TRIPOS>MOLECULE
3rps_4B0_1_ligand
   24    25     1     0     0
SMALL
NO_CHARGES


@<TRIPOS>ATOM
      1 OAA        21.7340  -36.0890  -11.9710 O.3       1 4B0336      0.0000 
      2 BRAB       17.2000  -41.1080   -3.6020 Br        1 4B0336      0.0000 
      3 BRAC       16.2820  -42.0310   -6.6360 Br        1 4B0336      0.0000 
      4 BRAD       19.2050  -38.6080   -3.1900 Br        1 4B0336      0.0000 
      5 BRAE       17.4540  -40.3320   -9.3000 Br        1 4B0336      0.0000 
      6 CAF        20.7940  -37.1140  -11.6130 C.3       1 4B0336      0.0000 
      7 CAG        20.8390  -37.3910  -10.1020 C.3       1 4B0336      0.0000 
      8 CAH        19.4550  -37.7860   -9.5490 C.3       1 4B0336      0.0000 
      9 NAI        19.9990  -37.3700   -6.1620 N.2       1 4B0336      0.0000 
     10 NAJ        20.1300  -37.1060   -7.3630 N.2       1 4B0336      0.0000 
     11 CAK        17.8390  -40.1810   -5.1290 C.ar      1 4B0336      0.0000 
     12 CAL        17.4610  -40.5550   -6.4240 C.ar      1 4B0336      0.0000 
     13 CAM        18.7010  -39.1110   -4.9400 C.ar      1 4B0336      0.0000 
     14 CAN        17.9550  -39.8430   -7.5320 C.ar      1 4B0336      0.0000 
     15 CAO        19.1850  -38.4100   -6.0350 C.ar      1 4B0336      0.0000 
     16 CAP        18.8220  -38.7630   -7.3210 C.ar      1 4B0336      0.0000 
     17 NAQ        19.4780  -37.8780   -8.0750 N.pl3     1 4B0336      0.0000 
     18 H          21.0096  -38.0590  -12.1299 H         1 4B0336      0.0000 
     19 H          19.7649  -36.8256  -11.8667 H         1 4B0336      0.0000 
     20 H          21.1854  -36.4959   -9.5840 H         1 4B0336      0.0000 
     21 H          21.5429  -38.2010   -9.9072 H         1 4B0336      0.0000 
     22 H          19.1739  -38.7464   -9.9916 H         1 4B0336      0.0000 
     23 H          18.7307  -37.0345   -9.8779 H         1 4B0336      0.0000 
     24 H          22.5178  -36.2346  -11.3673 H         1 4B0336      0.0000 
@<TRIPOS>BOND
     1    6    1 1    
     2   24    1 1    
     3   11    2 1    
     4   12    3 1    
     5   13    4 1    
     6   14    5 1    
     7    7    6 1    
     8   18    6 1    
     9   19    6 1    
    10    8    7 1    
    11   20    7 1    
    12   21    7 1    
    13   17    8 1    
    14   22    8 1    
    15   23    8 1    
    16   10    9 2    
    17   15    9 1    
    18   17   10 1    
    19   12   11 ar   
    20   13   11 ar   
    21   14   12 ar   
    22   15   13 ar   
    23   16   14 ar   
    24   16   15 ar   
    25   17   16 1    
@<TRIPOS>SUBSTRUCTURE
     1 4B0336      1 GROUP   
@<TRIPOS>SET

