#    Name: 1pow_FAD_2_INTS_M
#    Modification time : Mon Mar 24 21:59:51 2014

@<TRIPOS>MOLECULE
1pow_FAD_2_INTS_M
  122     0     9     0     0
SMALL
NO_CHARGES


@<TRIPOS>ATOM
      1 N           7.0010   62.8165   16.5835 N.am      2 SEC2        0.0000 
      2 N           7.5580   61.5000   16.4670 N.am      8 SEL2        0.0000 
      3 N           6.4440   64.1330   16.7000 N.am      5 SEP2        0.0000 
      4 CA          7.9940   60.2105   18.9665 C.3       3 GLC5        0.0000 
      5 CA          6.1590   59.7530   18.3980 C.3       9 GLL5        0.0000 
      6 CA          9.8290   60.6680   19.5350 C.3       6 GLP5        0.0000 
      7 CA          4.9500   57.3760   20.3215 C.3       3 GLC5        0.0000 
      8 CA          4.9680   58.9740   18.8880 C.3       9 GLL5        0.0000 
      9 CA          4.9320   55.7780   21.7550 C.3       6 GLP5        0.0000 
     10 CA          5.4035   56.9470   18.5520 C.3       3 GLC5        0.0000 
     11 CA          5.8390   54.9200   18.2160 C.3       6 GLP5        0.0000 
     12 N           1.9345   59.8140   17.4170 N.am      2 SEC2        0.0000 
     13 N           2.6240   58.6540   18.3700 N.am      8 SEL2        0.0000 
     14 N           1.2450   60.9740   16.4640 N.am      5 SEP2        0.0000 
     15 O           1.5280   58.5820   19.6470 O.2       1 ALC1        0.0000 
     16 O           2.6240   58.6540   18.3700 O.2       7 ALL1        0.0000 
     17 O           0.4320   58.5100   20.9240 O.2       4 ALP1        0.0000 
     18 O           2.0720   57.7595   19.2340 O.2       1 ALC1        0.0000 
     19 O           1.5200   56.8650   20.0980 O.2       4 ALP1        0.0000 
     20 O           1.2300   59.6220   20.4585 O.2       1 ALC1        0.0000 
     21 O           2.0280   60.7340   19.9930 O.2       7 ALL1        0.0000 
     22 CA          5.4950   59.0840   21.9195 C.3       3 GLC5        0.0000 
     23 CA          3.7630   59.2790   20.8620 C.3       9 GLL5        0.0000 
     24 CA          7.2270   58.8890   22.9770 C.3       6 GLP5        0.0000 
     25 CA          4.3475   57.5285   21.3085 C.3       3 GLC5        0.0000 
     26 CA          2.2270   60.1725   25.4100 C.3       3 GLC5        0.0000 
     27 CA          4.0920   59.6910   25.8190 C.3       9 GLL5        0.0000 
     28 CA          0.3620   60.6540   25.0010 C.3       6 GLP5        0.0000 
     29 CA          2.9195   58.9335   27.5380 C.3       3 GLC5        0.0000 
     30 CA          1.7470   58.1760   29.2570 C.3       6 GLP5        0.0000 
     31 CA          4.7565   57.7320   26.5020 C.3       3 GLC5        0.0000 
     32 CA          5.4210   55.7730   27.1850 C.3       6 GLP5        0.0000 
     33 O           4.3405   60.1280   28.2985 O.2       1 ALC1        0.0000 
     34 O           4.4200   60.5300   26.8090 O.2       7 ALL1        0.0000 
     35 O           4.2610   59.7260   29.7880 O.2       4 ALP1        0.0000 
     36 N           3.5715   57.6250   27.2045 N.am      2 SEC2        0.0000 
     37 N           3.6160   58.4720   26.0700 N.am      8 SEL2        0.0000 
     38 N           3.5270   56.7780   28.3390 N.am      5 SEP2        0.0000 
     39 CA          4.0825   56.7560   23.3920 C.3       3 GLC5        0.0000 
     40 CA          3.2330   57.7340   25.0290 C.3       9 GLL5        0.0000 
     41 CA          1.7050   56.9900   24.0735 C.3       3 GLC5        0.0000 
     42 CA          0.1770   56.2460   23.1180 C.3       6 GLP5        0.0000 
     43 CA          1.7975   59.1940   25.0150 C.3       3 GLC5        0.0000 
     44 CA          4.3270   56.7535   26.1070 C.3       3 GLC5        0.0000 
     45 N           1.4915   58.2585   23.8475 N.am      2 SEC2        0.0000 
     46 N           3.0920   58.0260   23.7370 N.am      8 SEL2        0.0000 
     47 N          -0.1090   58.4910   23.9580 N.am      5 SEP2        0.0000 
     48 CA          4.3000   57.4950   22.6050 C.3       3 GLC5        0.0000 
     49 CA          3.6680   59.2120   23.4550 C.3       9 GLL5        0.0000 
     50 N          13.7280   54.0520   13.4075 N.am      2 SEC2        0.0000 
     51 N          12.8910   53.4690   12.2920 N.am      8 SEL2        0.0000 
     52 N          14.5650   54.6350   14.5230 N.am      5 SEP2        0.0000 
     53 O          13.9545   51.7235   10.0890 O.2       1 ALC1        0.0000 
     54 O          13.6160   53.0900   10.1810 O.2       7 ALL1        0.0000 
     55 O          14.2930   50.3570    9.9970 O.2       4 ALP1        0.0000 
     56 N          14.9285   51.6290    7.2105 N.am      2 SEC2        0.0000 
     57 N          14.4780   52.8390    8.0650 N.am      8 SEL2        0.0000 
     58 N          15.3790   50.4190    6.3560 N.am      5 SEP2        0.0000 
     59 N          15.8995   52.5990    7.6940 N.am      2 SEC2        0.0000 
     60 N          17.3210   52.3590    7.3230 N.am      5 SEP2        0.0000 
     61 CA         17.5100   61.1275    5.1240 C.3       3 GLC5        0.0000 
     62 CA         16.9570   59.2670    5.6390 C.3       9 GLL5        0.0000 
     63 CA         18.0630   62.9880    4.6090 C.3       6 GLP5        0.0000 
     64 CA         17.4285   58.2085    3.9510 C.3       3 GLC5        0.0000 
     65 CA         17.9000   57.1500    2.2630 C.3       6 GLP5        0.0000 
     66 CA         17.0685   62.7420    7.2165 C.3       3 GLC5        0.0000 
     67 CA         15.9450   61.1170    7.8470 C.3       9 GLL5        0.0000 
     68 CA         18.1920   64.3670    6.5860 C.3       6 GLP5        0.0000 
     69 CA         14.5780   61.9765    9.3165 C.3       3 GLC5        0.0000 
     70 CA         13.2110   62.8360   10.7860 C.3       6 GLP5        0.0000 
     71 CA         14.9865   62.2275    6.5455 C.3       3 GLC5        0.0000 
     72 CA         14.0280   63.3380    5.2440 C.3       6 GLP5        0.0000 
     73 CA         13.9755   60.9875    9.7910 C.3       3 GLC5        0.0000 
     74 CA         14.7400   59.1390    8.7960 C.3       9 GLL5        0.0000 
     75 CA         14.8445   58.0050   11.4650 C.3       3 GLC5        0.0000 
     76 CA         12.8520   58.0510   10.7820 C.3       9 GLL5        0.0000 
     77 CA         16.8370   57.9590   12.1480 C.3       6 GLP5        0.0000 
     78 CA         13.3485   57.8545   12.7230 C.3       3 GLC5        0.0000 
     79 CA         13.8450   57.6580   14.6640 C.3       6 GLP5        0.0000 
     80 CA          9.7065   57.3330    9.6890 C.3       3 GLC5        0.0000 
     81 CA         11.3600   58.0180   10.3790 C.3       9 GLL5        0.0000 
     82 CA          8.0530   56.6480    8.9990 C.3       6 GLP5        0.0000 
     83 CA         11.2065   56.3300    8.9405 C.3       3 GLC5        0.0000 
     84 CA         11.0530   54.6420    7.5020 C.3       6 GLP5        0.0000 
     85 O          11.6765   60.0010    9.2765 O.2       1 ALC1        0.0000 
     86 O          11.1440   58.7630    9.1840 O.2       7 ALL1        0.0000 
     87 O          12.2090   61.2390    9.3690 O.2       4 ALP1        0.0000 
     88 CA          9.0845   59.6720   10.0690 C.3       3 GLC5        0.0000 
     89 CA         10.3910   58.5320   11.4510 C.3       9 GLL5        0.0000 
     90 CA          7.7780   60.8120    8.6870 C.3       6 GLP5        0.0000 
     91 O          11.4280   60.5765   10.5425 O.2       1 ALC1        0.0000 
     92 O          10.6470   59.9140   11.7160 O.2       7 ALL1        0.0000 
     93 CA         12.1560   57.6835   13.7040 C.3       3 GLC5        0.0000 
     94 CA         10.4670   57.7090   12.7440 C.3       9 GLL5        0.0000 
     95 CA         11.5280   58.6330   14.2295 C.3       3 GLC5        0.0000 
     96 CA          9.4250   58.1290   13.7740 C.3       9 GLL5        0.0000 
     97 CA         13.6310   59.1370   14.6850 C.3       6 GLP5        0.0000 
     98 N          10.8695   56.5550   15.9910 N.am      2 SEC2        0.0000 
     99 N           9.8790   57.5670   15.1070 N.am      8 SEL2        0.0000 
    100 N          11.8600   55.5430   16.8750 N.am      5 SEP2        0.0000 
    101 N           6.6915   56.3960   16.2270 N.am      2 SEC2        0.0000 
    102 N           7.9890   56.8240   16.3990 N.am      8 SEL2        0.0000 
    103 N           5.3940   55.9680   16.0550 N.am      5 SEP2        0.0000 
    104 N          10.1695   57.6555   18.8235 N.am      2 SEC2        0.0000 
    105 N          10.1330   57.5750   17.4500 N.am      8 SEL2        0.0000 
    106 N          10.2060   57.7360   20.1970 N.am      5 SEP2        0.0000 
    107 N          10.9965   56.5590   17.1625 N.am      2 SEC2        0.0000 
    108 CA          4.2025   58.4980   16.7960 C.3       3 GLC5        0.0000 
    109 CA          4.1000   57.6840   14.8720 C.3       6 GLP5        0.0000 
    110 CA          2.3695   60.6095   23.9230 C.3       3 GLC5        0.0000 
    111 CA          4.1680   60.0760   24.4710 C.3       9 GLL5        0.0000 
    112 CA          0.8210   61.5750   23.8830 C.3       6 GLP5        0.0000 
    113 CA          5.5630   59.2184   23.6385 C.3       3 GLC5        0.0000 
    114 CA         16.6450   56.2258    7.2062 C.3       3 GLC5        0.0000 
    115 CA         14.8370   56.9320    7.7610 C.3       9 GLL5        0.0000 
    116 CA         18.1330   55.2380    7.2100 C.3       6 GLP5        0.0000 
    117 CA         17.2953   57.1388    6.6873 C.3       3 GLC5        0.0000 
    118 CA         15.9580   58.8120    6.6900 C.3       9 GLL5        0.0000 
    119 CA         10.7310   56.3235   14.5110 C.3       3 GLC5        0.0000 
    120 CA         11.5160   54.7280   15.7630 C.3       6 GLP5        0.0000 
    121 CA          8.8375   57.1244   11.6644 C.3       3 GLC5        0.0000 
    122 CA          7.7480   56.1240   10.3930 C.3       6 GLP5        0.0000 
@<TRIPOS>BOND
@<TRIPOS>SUBSTRUCTURE
     1 ALC1       15 GROUP        1 X    ALC  0     ROOT ALC X 1
     2 SEC2        1 GROUP        1 X    SEC  0     **** SEC X 2
     3 GLC5        4 GROUP        1 X    GLC  0     **** GLC X 6
     4 ALP1       17 GROUP        1 Y    ALP  0     ROOT ALP Y 8
     5 SEP2        3 GROUP        1 Y    SEP  0     **** SEP Y 9
     6 GLP5        6 GROUP        1 Y    GLP  0     **** GLP Y 13
     7 ALL1       16 GROUP        1 Z    ALL  0     ROOT ALL Z 15
     8 SEL2        2 GROUP        1 Z    SEL  0     **** SEL Z 16
     9 GLL5        5 GROUP        1 Z    GLL  0     **** GLL Z 20
@<TRIPOS>SET

