#    Name: 1pow_FAD_2_ligand
#    Modification time : Mon Mar 24 21:59:51 2014

@<TRIPOS>MOLECULE
1pow_FAD_2_ligand
   84    89     1     0     0
SMALL
NO_CHARGES


@<TRIPOS>ATOM
      1 PA          7.3320   60.1240   16.0450 P.3       1 FAD612      0.0000 
      2 O1A         7.5580   61.5000   16.4670 O.co2     1 FAD612      0.0000 
      3 O2A         6.8780   59.9240   14.6590 O.co2     1 FAD612      0.0000 
      4 O5B         6.1860   59.5910   16.8950 O.3       1 FAD612      0.0000 
      5 C5B         6.1590   59.7530   18.3980 C.3       1 FAD612      0.0000 
      6 C4B         4.9680   58.9740   18.8880 C.3       1 FAD612      0.0000 
      7 O4B         5.0120   58.8440   20.3150 O.3       1 FAD612      0.0000 
      8 C3B         3.6420   59.6500   18.5520 C.3       1 FAD612      0.0000 
      9 O3B         2.6240   58.6540   18.3700 O.3       1 FAD612      0.0000 
     10 C2B         3.3960   60.3680   19.8740 C.3       1 FAD612      0.0000 
     11 O2B         2.0280   60.7340   19.9930 O.3       1 FAD612      0.0000 
     12 C1B         3.7630   59.2790   20.8620 C.3       1 FAD612      0.0000 
     13 N9A         3.9230   59.8350   22.2400 N.pl3     1 FAD612      0.0000 
     14 C8A         4.4320   61.0660   22.5850 C.2       1 FAD612      0.0000 
     15 N7A         4.6030   61.2360   23.8660 N.2       1 FAD612      0.0000 
     16 C5A         4.1680   60.0760   24.4710 C.ar      1 FAD612      0.0000 
     17 C6A         4.0920   59.6910   25.8190 C.ar      1 FAD612      0.0000 
     18 N6A         4.4200   60.5300   26.8090 N.pl3     1 FAD612      0.0000 
     19 N1A         3.6160   58.4720   26.0700 N.ar      1 FAD612      0.0000 
     20 C2A         3.2330   57.7340   25.0290 C.ar      1 FAD612      0.0000 
     21 N3A         3.0920   58.0260   23.7370 N.ar      1 FAD612      0.0000 
     22 C4A         3.6680   59.2120   23.4550 C.ar      1 FAD612      0.0000 
     23 N1         13.1470   55.2490   11.0650 N.2       1 FAD612      0.0000 
     24 C2         13.1890   53.9360   11.1990 C.2       1 FAD612      0.0000 
     25 O2         12.8910   53.4690   12.2920 O.2       1 FAD612      0.0000 
     26 N3         13.6160   53.0900   10.1810 N.am      1 FAD612      0.0000 
     27 C4         14.0940   53.5910    8.9700 C.2       1 FAD612      0.0000 
     28 O4         14.4780   52.8390    8.0650 O.2       1 FAD612      0.0000 
     29 C4X        14.1060   55.0350    8.8570 C.2       1 FAD612      0.0000 
     30 N5         14.6930   55.5910    7.7810 N.2       1 FAD612      0.0000 
     31 C5X        14.8370   56.9320    7.7610 C.ar      1 FAD612      0.0000 
     32 C6         15.4770   57.4950    6.6440 C.ar      1 FAD612      0.0000 
     33 C7         15.9580   58.8120    6.6900 C.ar      1 FAD612      0.0000 
     34 C7M        16.9570   59.2670    5.6390 C.3       1 FAD612      0.0000 
     35 C8         15.5330   59.6660    7.7710 C.ar      1 FAD612      0.0000 
     36 C8M        15.9450   61.1170    7.8470 C.3       1 FAD612      0.0000 
     37 C9         14.7400   59.1390    8.7960 C.ar      1 FAD612      0.0000 
     38 C9A        14.4000   57.7720    8.8340 C.ar      1 FAD612      0.0000 
     39 N10        13.6490   57.2070    9.8440 N.pl3     1 FAD612      0.0000 
     40 C10        13.5970   55.8340    9.9330 C.2       1 FAD612      0.0000 
     41 C1'        12.8520   58.0510   10.7820 C.3       1 FAD612      0.0000 
     42 C2'        11.3600   58.0180   10.3790 C.3       1 FAD612      0.0000 
     43 O2'        11.1440   58.7630    9.1840 O.3       1 FAD612      0.0000 
     44 C3'        10.3910   58.5320   11.4510 C.3       1 FAD612      0.0000 
     45 O3'        10.6470   59.9140   11.7160 O.3       1 FAD612      0.0000 
     46 C4'        10.4670   57.7090   12.7440 C.3       1 FAD612      0.0000 
     47 O4'        10.3320   56.3000   12.4770 O.3       1 FAD612      0.0000 
     48 C5'         9.4250   58.1290   13.7740 C.3       1 FAD612      0.0000 
     49 O5'         9.8790   57.5670   15.1070 O.3       1 FAD612      0.0000 
     50 P           9.1070   57.7640   16.4190 P.3       1 FAD612      0.0000 
     51 O1P         7.9890   56.8240   16.3990 O.co2     1 FAD612      0.0000 
     52 O2P        10.1330   57.5750   17.4500 O.co2     1 FAD612      0.0000 
     53 O3P         8.6290   59.2790   16.4440 O.3       1 FAD612      0.0000 
     54 H           6.0459   60.7922   18.6482 H         1 FAD612      0.0000 
     55 H           7.0607   59.3499   18.8219 H         1 FAD612      0.0000 
     56 H           4.9652   57.9944   18.4273 H         1 FAD612      0.0000 
     57 H           3.7668   60.3237   17.8039 H         1 FAD612      0.0000 
     58 H           4.0800   61.1527   19.9596 H         1 FAD612      0.0000 
     59 H           3.0364   58.5243   20.8144 H         1 FAD612      0.0000 
     60 H           4.6427   61.7532   21.8785 H         1 FAD612      0.0000 
     61 H           4.2846   60.1878   27.7388 H         1 FAD612      0.0000 
     62 H           4.7711   61.4238   26.5301 H         1 FAD612      0.0000 
     63 H           2.9817   56.6643   25.2900 H         1 FAD612      0.0000 
     64 H          13.5789   52.0626   10.3237 H         1 FAD612      0.0000 
     65 H          15.5929   56.9382    5.7892 H         1 FAD612      0.0000 
     66 H          14.3935   59.7629    9.5444 H         1 FAD612      0.0000 
     67 H          13.1927   59.0824   10.7489 H         1 FAD612      0.0000 
     68 H          12.9402   57.6774   11.7987 H         1 FAD612      0.0000 
     69 H          11.0980   56.9583   10.1932 H         1 FAD612      0.0000 
     70 H           9.3741   58.4128   11.0492 H         1 FAD612      0.0000 
     71 H          11.4580   57.8979   13.1928 H         1 FAD612      0.0000 
     72 H           8.4711   57.7140   13.5093 H         1 FAD612      0.0000 
     73 H           9.3827   59.2003   13.8254 H         1 FAD612      0.0000 
     74 H          17.2291   60.2199    5.7731 H         1 FAD612      0.0000 
     75 H          17.7926   58.7180    5.6586 H         1 FAD612      0.0000 
     76 H          16.5817   59.1967    4.7148 H         1 FAD612      0.0000 
     77 H          16.9388   61.2191    7.8903 H         1 FAD612      0.0000 
     78 H          15.6316   61.6343    7.0506 H         1 FAD612      0.0000 
     79 H          15.5685   61.5681    8.6562 H         1 FAD612      0.0000 
     80 H           2.5367   58.2076   19.2606 H         1 FAD612      0.0000 
     81 H           1.5613   59.8991   20.2846 H         1 FAD612      0.0000 
     82 H          11.5625   59.6548    9.3559 H         1 FAD612      0.0000 
     83 H          11.1832   60.2323   10.9342 H         1 FAD612      0.0000 
     84 H          11.1956   56.0340   12.0488 H         1 FAD612      0.0000 
@<TRIPOS>BOND
     1    2    1 ar   
     2    3    1 ar   
     3    4    1 1    
     4   53    1 1    
     5    5    4 1    
     6    6    5 1    
     7   54    5 1    
     8   55    5 1    
     9    7    6 1    
    10    8    6 1    
    11   56    6 1    
    12   12    7 1    
    13    9    8 1    
    14   10    8 1    
    15   57    8 1    
    16   80    9 1    
    17   11   10 1    
    18   12   10 1    
    19   58   10 1    
    20   81   11 1    
    21   13   12 1    
    22   59   12 1    
    23   14   13 1    
    24   22   13 1    
    25   15   14 2    
    26   60   14 1    
    27   16   15 1    
    28   17   16 ar   
    29   22   16 ar   
    30   18   17 1    
    31   19   17 ar   
    32   61   18 1    
    33   62   18 1    
    34   20   19 ar   
    35   21   20 ar   
    36   63   20 1    
    37   22   21 ar   
    38   24   23 1    
    39   40   23 2    
    40   25   24 2    
    41   26   24 am   
    42   27   26 am   
    43   64   26 1    
    44   28   27 2    
    45   29   27 1    
    46   30   29 2    
    47   40   29 1    
    48   31   30 1    
    49   32   31 ar   
    50   38   31 ar   
    51   33   32 ar   
    52   65   32 1    
    53   34   33 1    
    54   35   33 ar   
    55   74   34 1    
    56   75   34 1    
    57   76   34 1    
    58   36   35 1    
    59   37   35 ar   
    60   77   36 1    
    61   78   36 1    
    62   79   36 1    
    63   38   37 ar   
    64   66   37 1    
    65   39   38 1    
    66   40   39 1    
    67   41   39 1    
    68   42   41 1    
    69   67   41 1    
    70   68   41 1    
    71   43   42 1    
    72   44   42 1    
    73   69   42 1    
    74   82   43 1    
    75   45   44 1    
    76   46   44 1    
    77   70   44 1    
    78   83   45 1    
    79   47   46 1    
    80   48   46 1    
    81   71   46 1    
    82   84   47 1    
    83   49   48 1    
    84   72   48 1    
    85   73   48 1    
    86   50   49 1    
    87   51   50 ar   
    88   52   50 ar   
    89   53   50 1    
@<TRIPOS>SUBSTRUCTURE
     1 FAD612      1 GROUP   
@<TRIPOS>SET

