#    Name: 4jbo_WPH_1_INTS_M
#    Modification time : Tue Mar 25 05:42:58 2014

@<TRIPOS>MOLECULE
4jbo_WPH_1_INTS_M
  101     0     9     0     0
SMALL
NO_CHARGES


@<TRIPOS>ATOM
      1 CA         -1.5440  -38.6500   -1.4050 C.3       3 GLC5        0.0000 
      2 CA         -0.3580  -37.7430   -0.2280 C.3       9 GLL5        0.0000 
      3 CA         -2.7300  -39.5570   -2.5820 C.3       6 GLP5        0.0000 
      4 CA         -2.2720  -38.9790   -0.4790 C.3       3 GLC5        0.0000 
      5 CA         -1.8140  -38.4010    1.6240 C.3       9 GLL5        0.0000 
      6 N           0.4605  -34.2460    2.6980 N.am      2 SEC2        0.0000 
      7 N          -0.6120  -35.2720    2.7170 N.am      8 SEL2        0.0000 
      8 N           1.5330  -33.2200    2.6790 N.am      5 SEP2        0.0000 
      9 CA         -1.8865  -30.7065    4.3860 C.3       3 GLC5        0.0000 
     10 CA         -2.7570  -32.6020    4.0250 C.3       9 GLL5        0.0000 
     11 CA         -1.0160  -28.8110    4.7470 C.3       6 GLP5        0.0000 
     12 CA         -1.7830  -30.5875    6.7265 C.3       3 GLC5        0.0000 
     13 CA         -3.2200  -31.9410    6.3390 C.3       9 GLL5        0.0000 
     14 CA         -0.3460  -29.2340    7.1140 C.3       6 GLP5        0.0000 
     15 CA         -2.5870  -29.8995    5.4730 C.3       3 GLC5        0.0000 
     16 CA         -4.1580  -30.9880    6.1990 C.3       9 GLL5        0.0000 
     17 CA         -2.7040  -29.6575    9.5100 C.3       3 GLC5        0.0000 
     18 CA         -3.7150  -31.2300    8.3490 C.3       9 GLL5        0.0000 
     19 CA         -1.6930  -28.0850   10.6710 C.3       6 GLP5        0.0000 
     20 CA         -4.2975  -33.0060    9.2035 C.3       3 GLC5        0.0000 
     21 CA         -4.8800  -34.7820   10.0580 C.3       6 GLP5        0.0000 
     22 N          -3.3445  -32.3390   10.2780 N.am      2 SEC2        0.0000 
     23 N          -3.8280  -30.9780    9.6600 N.am      8 SEL2        0.0000 
     24 N          -2.8610  -33.7000   10.8960 N.am      5 SEP2        0.0000 
     25 CA         -3.1830  -29.0685   10.3780 C.3       3 GLC5        0.0000 
     26 CA         -4.6730  -30.0520   10.0850 C.3       9 GLL5        0.0000 
     27 CA         -6.1975  -30.1985   11.1565 C.3       3 GLC5        0.0000 
     28 CA         -7.7220  -30.3450   12.2280 C.3       6 GLP5        0.0000 
     29 CA         -4.7325  -28.5585   11.6500 C.3       3 GLC5        0.0000 
     30 CA         -4.7920  -27.0650   13.2150 C.3       6 GLP5        0.0000 
     31 CA         -3.1790  -31.0800   11.1935 C.3       3 GLC5        0.0000 
     32 CA         -1.6850  -32.1080   12.3020 C.3       6 GLP5        0.0000 
     33 CA         -6.3230  -30.9695    9.5395 C.3       3 GLC5        0.0000 
     34 CA         -7.9730  -31.8870    8.9940 C.3       6 GLP5        0.0000 
     35 CA         -6.6650  -30.7225    8.4530 C.3       3 GLC5        0.0000 
     36 CA         -5.3570  -29.5580    7.9120 C.3       9 GLL5        0.0000 
     37 CA         -6.0080  -26.5130    6.7870 C.3       3 GLC5        0.0000 
     38 CA         -6.9990  -27.7540    7.6680 C.3       9 GLL5        0.0000 
     39 CA         -5.0170  -25.2720    5.9060 C.3       6 GLP5        0.0000 
     40 CA         -6.4815  -26.8500    9.4965 C.3       3 GLC5        0.0000 
     41 CA         -5.9640  -25.9460   11.3250 C.3       6 GLP5        0.0000 
     42 CA         -9.2740  -23.6410   11.3685 C.3       3 GLC5        0.0000 
     43 CA         -9.7860  -25.4350   10.2220 C.3       9 GLL5        0.0000 
     44 CA         -8.7620  -21.8470   12.5150 C.3       6 GLP5        0.0000 
     45 O         -11.9985  -22.9400   11.2585 O.2       1 ALC1        0.0000 
     46 O         -11.4570  -23.8120    9.8750 O.2       7 ALL1        0.0000 
     47 O         -12.5400  -22.0680   12.6420 O.2       4 ALP1        0.0000 
     48 O         -11.9035  -24.0185   11.4240 O.2       1 ALC1        0.0000 
     49 O         -12.3500  -24.2250   12.9730 O.2       4 ALP1        0.0000 
     50 N         -10.3550  -22.6785    7.1060 N.am      2 SEC2        0.0000 
     51 N         -11.3650  -22.4670    8.0640 N.am      8 SEL2        0.0000 
     52 N          -9.3450  -22.8900    6.1480 N.am      5 SEP2        0.0000 
     53 O         -12.5305  -21.9435   11.2690 O.2       1 ALC1        0.0000 
     54 O         -12.5210  -21.8190    9.8960 O.2       7 ALL1        0.0000 
     55 CA        -15.9295  -17.8680   10.8430 C.3       3 GLC5        0.0000 
     56 CA        -14.1560  -18.5760    9.9960 C.3       9 GLL5        0.0000 
     57 CA        -17.7030  -17.1600   11.6900 C.3       6 GLP5        0.0000 
     58 CA        -13.8605  -18.0140   11.7585 C.3       3 GLC5        0.0000 
     59 CA        -13.5650  -17.4520   13.5210 C.3       6 GLP5        0.0000 
     60 CA         -2.7945  -35.2440    4.5935 C.3       3 GLC5        0.0000 
     61 CA         -1.0630  -34.6130    4.9890 C.3       9 GLL5        0.0000 
     62 CA         -4.4340  -35.9490    4.8840 C.3       6 GLP5        0.0000 
     63 CA         -0.6325  -31.8215    5.4473 C.3       3 GLC5        0.0000 
     64 CA         -1.7230  -33.7600    5.8700 C.3       9 GLL5        0.0000 
     65 CA          0.8810  -30.3890    5.2580 C.3       6 GLP5        0.0000 
     66 CA         -3.4290  -34.4895    4.2340 C.3       3 GLC5        0.0000 
     67 CA         -3.5585  -34.2733    5.4359 C.3       3 GLC5        0.0000 
     68 CA         -2.5690  -32.7480    5.4030 C.3       9 GLL5        0.0000 
     69 CA         -2.2210  -30.0562    7.4988 C.3       3 GLC5        0.0000 
     70 CA         -4.4770  -30.5270    7.4180 C.3       9 GLL5        0.0000 
     71 CA         -4.0800  -28.1688    7.5005 C.3       3 GLC5        0.0000 
     72 CA         -3.2430  -26.2950    7.3360 C.3       6 GLP5        0.0000 
     73 CA         -7.8395  -29.9418    8.4187 C.3       3 GLC5        0.0000 
     74 CA        -12.2485  -26.3390    8.5098 C.3       3 GLC5        0.0000 
     75 CA        -10.2150  -26.4720    7.6810 C.3       9 GLL5        0.0000 
     76 CA        -13.9090  -26.7520    9.1180 C.3       6 GLP5        0.0000 
     77 CA        -10.0070  -28.6421    9.6631 C.3       3 GLC5        0.0000 
     78 CA         -9.0390  -26.5220    9.7760 C.3       9 GLL5        0.0000 
     79 CA        -11.0780  -30.2010   10.3070 C.3       6 GLP5        0.0000 
     80 CA         -8.8740  -23.9916    8.6276 C.3       3 GLC5        0.0000 
     81 CA         -7.4300  -22.7100    7.7650 C.3       6 GLP5        0.0000 
     82 CA         -7.7150  -26.0282   10.5032 C.3       3 GLC5        0.0000 
     83 CA        -11.9642  -25.9475   10.2228 C.3       3 GLC5        0.0000 
     84 CA        -13.6660  -26.7560   10.6370 C.3       6 GLP5        0.0000 
     85 CA        -12.0890  -19.3895   11.0970 C.3       3 GLC5        0.0000 
     86 CA        -12.9760  -20.6320    9.4570 C.3       9 GLL5        0.0000 
     87 CA        -10.8690  -18.5560   12.2800 C.3       6 GLP5        0.0000 
     88 CA        -15.4742  -17.2458    8.6988 C.3       3 GLC5        0.0000 
     89 CA        -16.8650  -16.1310    8.0580 C.3       6 GLP5        0.0000 
     90 CA        -14.9412  -20.6848   10.7830 C.3       3 GLC5        0.0000 
     91 CA        -16.1500  -21.9700   11.6110 C.3       6 GLP5        0.0000 
     92 CA        -12.5710  -16.8105    8.1000 C.3       3 GLC5        0.0000 
     93 CA        -14.0110  -18.1450    8.6830 C.3       9 GLL5        0.0000 
     94 CA        -11.4580  -15.0720    7.9800 C.3       6 GLP5        0.0000 
     95 CA        -12.0670  -18.8955    6.3785 C.3       3 GLC5        0.0000 
     96 CA        -13.3570  -18.9530    7.7570 C.3       9 GLL5        0.0000 
     97 CA        -11.0330  -18.2180    4.8090 C.3       6 GLP5        0.0000 
     98 CA        -11.2344  -19.0429    8.3688 C.3       3 GLC5        0.0000 
     99 CA         -9.3350  -18.4030    8.4600 C.3       6 GLP5        0.0000 
    100 CA         -5.5522  -32.1282    7.0111 C.3       3 GLC5        0.0000 
    101 CA         -7.2120  -33.0850    6.9460 C.3       6 GLP5        0.0000 
@<TRIPOS>BOND
@<TRIPOS>SUBSTRUCTURE
     1 ALC1       45 GROUP        1 X    ALC  0     ROOT ALC X 1
     2 SEC2        6 GROUP        1 X    SEC  0     **** SEC X 2
     3 GLC5        1 GROUP        1 X    GLC  0     **** GLC X 6
     4 ALP1       47 GROUP        1 Y    ALP  0     ROOT ALP Y 8
     5 SEP2        8 GROUP        1 Y    SEP  0     **** SEP Y 9
     6 GLP5        3 GROUP        1 Y    GLP  0     **** GLP Y 13
     7 ALL1       46 GROUP        1 Z    ALL  0     ROOT ALL Z 15
     8 SEL2        7 GROUP        1 Z    SEL  0     **** SEL Z 16
     9 GLL5        2 GROUP        1 Z    GLL  0     **** GLL Z 20
@<TRIPOS>SET

