#    Name: 4jbo_WPH_1_ligand
#    Modification time : Tue Mar 25 05:42:58 2014

@<TRIPOS>MOLECULE
4jbo_WPH_1_ligand
   73    77     1     0     0
SMALL
NO_CHARGES


@<TRIPOS>ATOM
      1 C35        -0.3580  -37.7430   -0.2280 C.3       1 WPH501      0.0000 
      2 N36        -0.8140  -37.4240    1.1390 N.4       1 WPH501      0.0000 
      3 C39        -1.8140  -38.4010    1.6240 C.3       1 WPH501      0.0000 
      4 C37         0.3440  -37.3860    2.0540 C.3       1 WPH501      0.0000 
      5 C38         0.0170  -36.4670    3.2330 C.3       1 WPH501      0.0000 
      6 O34        -0.6120  -35.2720    2.7170 O.3       1 WPH501      0.0000 
      7 C9         -1.2470  -34.4650    3.6170 C.ar      1 WPH501      0.0000 
      8 C10        -1.0630  -34.6130    4.9890 C.ar      1 WPH501      0.0000 
      9 C11        -1.7230  -33.7600    5.8700 C.ar      1 WPH501      0.0000 
     10 C8         -2.0910  -33.4580    3.1430 C.ar      1 WPH501      0.0000 
     11 C7         -2.7570  -32.6020    4.0250 C.ar      1 WPH501      0.0000 
     12 C6         -2.5690  -32.7480    5.4030 C.ar      1 WPH501      0.0000 
     13 C2         -3.2200  -31.9410    6.3390 C.2       1 WPH501      0.0000 
     14 O3         -2.9480  -32.1060    7.6650 O.3       1 WPH501      0.0000 
     15 C1         -4.1580  -30.9880    6.1990 C.2       1 WPH501      0.0000 
     16 C5         -4.4770  -30.5270    7.4180 C.ar      1 WPH501      0.0000 
     17 C4         -3.7150  -31.2300    8.3490 C.ar      1 WPH501      0.0000 
     18 N12        -3.8280  -30.9780    9.6600 N.ar      1 WPH501      0.0000 
     19 C13        -4.6730  -30.0520   10.0850 C.ar      1 WPH501      0.0000 
     20 N14        -5.4180  -29.3560    9.2400 N.ar      1 WPH501      0.0000 
     21 C15        -5.3570  -29.5580    7.9120 C.ar      1 WPH501      0.0000 
     22 N40        -6.1470  -28.8320    7.1210 N.pl3     1 WPH501      0.0000 
     23 C16        -6.9990  -27.7540    7.6680 C.3       1 WPH501      0.0000 
     24 C17        -8.4130  -28.2390    8.0190 C.3       1 WPH501      0.0000 
     25 C18        -9.2530  -27.0500    8.5060 C.ar      1 WPH501      0.0000 
     26 C23       -10.2150  -26.4720    7.6810 C.ar      1 WPH501      0.0000 
     27 C22       -10.9610  -25.3800    8.1220 C.ar      1 WPH501      0.0000 
     28 C19        -9.0390  -26.5220    9.7760 C.ar      1 WPH501      0.0000 
     29 C20        -9.7860  -25.4350   10.2220 C.ar      1 WPH501      0.0000 
     30 C21       -10.7390  -24.8430    9.3950 C.ar      1 WPH501      0.0000 
     31 N24       -11.4570  -23.8120    9.8750 N.am      1 WPH501      0.0000 
     32 C25       -11.7590  -22.6860    9.2090 C.2       1 WPH501      0.0000 
     33 O33       -11.3650  -22.4670    8.0640 O.2       1 WPH501      0.0000 
     34 N26       -12.5210  -21.8190    9.8960 N.am      1 WPH501      0.0000 
     35 C27       -12.9760  -20.6320    9.4570 C.ar      1 WPH501      0.0000 
     36 C28       -13.6420  -19.8140   10.3710 C.ar      1 WPH501      0.0000 
     37 C29       -14.1560  -18.5760    9.9960 C.ar      1 WPH501      0.0000 
     38 C30       -14.0110  -18.1450    8.6830 C.ar      1 WPH501      0.0000 
     39 C31       -13.3570  -18.9530    7.7570 C.ar      1 WPH501      0.0000 
     40 C32       -12.8450  -20.1930    8.1390 C.ar      1 WPH501      0.0000 
     41 H          -1.2745  -36.4290    1.1299 H         1 WPH501      0.0000 
     42 H           1.2228  -36.9977    1.5462 H         1 WPH501      0.0000 
     43 H           0.5625  -38.3784    2.4393 H         1 WPH501      0.0000 
     44 H           0.9457  -36.2377    3.7510 H         1 WPH501      0.0000 
     45 H          -0.6433  -37.0059    3.9090 H         1 WPH501      0.0000 
     46 H          -0.4440  -35.3471    5.3496 H         1 WPH501      0.0000 
     47 H          -1.5871  -33.8744    6.8898 H         1 WPH501      0.0000 
     48 H          -2.2255  -33.3436    2.1250 H         1 WPH501      0.0000 
     49 H          -3.3780  -31.8734    3.6649 H         1 WPH501      0.0000 
     50 H          -4.5374  -30.6870    5.3612 H         1 WPH501      0.0000 
     51 H          -4.7553  -29.8632   11.1251 H         1 WPH501      0.0000 
     52 H          -6.2102  -28.9760    6.0989 H         1 WPH501      0.0000 
     53 H          -7.0900  -26.9317    6.9411 H         1 WPH501      0.0000 
     54 H          -6.5458  -27.3328    8.5791 H         1 WPH501      0.0000 
     55 H          -8.3526  -28.9801    8.8037 H         1 WPH501      0.0000 
     56 H          -8.8734  -28.6663    7.1392 H         1 WPH501      0.0000 
     57 H         -10.3769  -26.8540    6.7375 H         1 WPH501      0.0000 
     58 H         -11.6771  -24.9662    7.5118 H         1 WPH501      0.0000 
     59 H          -8.3234  -26.9380   10.3899 H         1 WPH501      0.0000 
     60 H          -9.6334  -25.0642   11.1722 H         1 WPH501      0.0000 
     61 H         -11.8246  -23.8988   10.8913 H         1 WPH501      0.0000 
     62 H         -12.7982  -22.1050   10.9089 H         1 WPH501      0.0000 
     63 H         -13.7555  -20.1369   11.3500 H         1 WPH501      0.0000 
     64 H         -14.6372  -17.9881   10.6833 H         1 WPH501      0.0000 
     65 H         -14.3850  -17.2328    8.3952 H         1 WPH501      0.0000 
     66 H         -13.2499  -18.6342    6.7832 H         1 WPH501      0.0000 
     67 H         -12.3690  -20.7862    7.4466 H         1 WPH501      0.0000 
     68 H           0.3188  -37.0844   -0.5569 H         1 WPH501      0.0000 
     69 H           0.0655  -38.6476   -0.2766 H         1 WPH501      0.0000 
     70 H          -1.1141  -37.7378   -0.8824 H         1 WPH501      0.0000 
     71 H          -1.4460  -39.3306    1.6432 H         1 WPH501      0.0000 
     72 H          -2.1216  -38.1883    2.5514 H         1 WPH501      0.0000 
     73 H          -2.6273  -38.4197    1.0425 H         1 WPH501      0.0000 
@<TRIPOS>BOND
     1    2    1 1    
     2   68    1 1    
     3   69    1 1    
     4   70    1 1    
     5    3    2 1    
     6    4    2 1    
     7   41    2 1    
     8   71    3 1    
     9   72    3 1    
    10   73    3 1    
    11    5    4 1    
    12   42    4 1    
    13   43    4 1    
    14    6    5 1    
    15   44    5 1    
    16   45    5 1    
    17    7    6 1    
    18    8    7 ar   
    19   10    7 ar   
    20    9    8 ar   
    21   46    8 1    
    22   12    9 ar   
    23   47    9 1    
    24   11   10 ar   
    25   48   10 1    
    26   12   11 ar   
    27   49   11 1    
    28   13   12 1    
    29   14   13 1    
    30   15   13 2    
    31   17   14 1    
    32   16   15 1    
    33   50   15 1    
    34   17   16 ar   
    35   21   16 ar   
    36   18   17 ar   
    37   19   18 ar   
    38   20   19 ar   
    39   51   19 1    
    40   21   20 ar   
    41   22   21 1    
    42   23   22 1    
    43   52   22 1    
    44   24   23 1    
    45   53   23 1    
    46   54   23 1    
    47   25   24 1    
    48   55   24 1    
    49   56   24 1    
    50   26   25 ar   
    51   28   25 ar   
    52   27   26 ar   
    53   57   26 1    
    54   30   27 ar   
    55   58   27 1    
    56   29   28 ar   
    57   59   28 1    
    58   30   29 ar   
    59   60   29 1    
    60   31   30 1    
    61   32   31 am   
    62   61   31 1    
    63   33   32 2    
    64   34   32 am   
    65   35   34 1    
    66   62   34 1    
    67   36   35 ar   
    68   40   35 ar   
    69   37   36 ar   
    70   63   36 1    
    71   38   37 ar   
    72   64   37 1    
    73   39   38 ar   
    74   65   38 1    
    75   40   39 ar   
    76   66   39 1    
    77   67   40 1    
@<TRIPOS>SUBSTRUCTURE
     1 WPH501      1 GROUP   
@<TRIPOS>SET

