#    Name: 2har_OCC_1_INTS_M
#    Modification time : Tue Mar 25 15:48:01 2014

@<TRIPOS>MOLECULE
2har_OCC_1_INTS_M
  142     0     9     0     0
SMALL
NO_CHARGES


@<TRIPOS>ATOM
      1 CA         12.5235   17.9500   32.8180 C.3       3 GLC5        0.0000 
      2 CA         13.5470   18.7870   34.4560 C.3       9 GLL5        0.0000 
      3 CA         11.5000   17.1130   31.1800 C.3       6 GLP5        0.0000 
      4 CA         14.4350   17.4455   37.2535 C.3       3 GLC5        0.0000 
      5 CA         14.1990   17.6850   35.3620 C.3       9 GLL5        0.0000 
      6 CA         14.6710   17.2060   39.1450 C.3       6 GLP5        0.0000 
      7 CA         15.6700   18.8375   36.1485 C.3       3 GLC5        0.0000 
      8 CA         17.1410   19.9900   36.9350 C.3       6 GLP5        0.0000 
      9 CA         16.1455   15.7245   35.6065 C.3       3 GLC5        0.0000 
     10 CA         14.9060   16.6230   34.4220 C.3       9 GLL5        0.0000 
     11 CA         17.3850   14.8260   36.7910 C.3       6 GLP5        0.0000 
     12 CA         17.1640   15.9885   34.6545 C.3       3 GLC5        0.0000 
     13 CA         15.9990   17.2980   33.5270 C.3       9 GLL5        0.0000 
     14 CA         18.3290   14.6790   35.7820 C.3       6 GLP5        0.0000 
     15 CA         17.0340   15.8340   32.7535 C.3       3 GLC5        0.0000 
     16 CA         18.0690   14.3700   31.9800 C.3       6 GLP5        0.0000 
     17 CA         16.5700   18.6440   35.2310 C.3       3 GLC5        0.0000 
     18 CA         14.7455   16.8765   31.2800 C.3       3 GLC5        0.0000 
     19 CA         15.4340   18.4760   32.6700 C.3       9 GLL5        0.0000 
     20 CA         14.0570   15.2770   29.8900 C.3       6 GLP5        0.0000 
     21 CA         15.6520   23.9320   33.7760 C.3       3 GLC5        0.0000 
     22 CA         13.9110   23.0840   33.4670 C.3       9 GLL5        0.0000 
     23 CA         17.3930   24.7800   34.0850 C.3       6 GLP5        0.0000 
     24 CA         15.0875   25.0890   34.4660 C.3       3 GLC5        0.0000 
     25 CA         13.1960   24.2040   34.2480 C.3       9 GLL5        0.0000 
     26 CA         16.9790   25.9740   34.6840 C.3       6 GLP5        0.0000 
     27 CA         10.8380   25.1175   30.2630 C.3       3 GLC5        0.0000 
     28 CA         12.1470   25.0730   32.0760 C.3       9 GLL5        0.0000 
     29 CA          9.5290   25.1620   28.4500 C.3       6 GLP5        0.0000 
     30 CA         11.7500   23.4755   29.8565 C.3       3 GLC5        0.0000 
     31 CA         13.0650   24.1210   31.2150 C.3       9 GLL5        0.0000 
     32 CA         10.4350   22.8300   28.4980 C.3       6 GLP5        0.0000 
     33 CA         15.0985   24.9135   31.5365 C.3       3 GLC5        0.0000 
     34 CA         17.1320   25.7060   31.8580 C.3       6 GLP5        0.0000 
     35 CA         15.8750   24.0680   32.3425 C.3       3 GLC5        0.0000 
     36 CA         14.2750   23.5120   32.0040 C.3       9 GLL5        0.0000 
     37 CA         17.4750   24.6240   32.6810 C.3       6 GLP5        0.0000 
     38 CA         11.9845   22.3260   36.6790 C.3       3 GLC5        0.0000 
     39 CA         12.7780   23.9720   35.7860 C.3       9 GLL5        0.0000 
     40 CA         11.1910   20.6800   37.5720 C.3       6 GLP5        0.0000 
     41 CA         11.5000   18.7770   32.8070 C.3       3 GLC5        0.0000 
     42 CA         12.1820   19.0760   34.4820 C.3       9 GLL5        0.0000 
     43 CA         10.8180   18.4780   31.1320 C.3       6 GLP5        0.0000 
     44 CA         11.0075   17.7220   35.2995 C.3       3 GLC5        0.0000 
     45 CA          9.8330   16.3680   36.1170 C.3       6 GLP5        0.0000 
     46 N          17.8765   16.7905   34.7030 N.am      2 SEC2        0.0000 
     47 N          17.0450   17.8130   34.3740 N.am      8 SEL2        0.0000 
     48 N          18.7080   15.7680   35.0320 N.am      5 SEP2        0.0000 
     49 O          17.8955   18.6450   33.6550 O.2       1 ALC1        0.0000 
     50 O          17.0450   17.8130   34.3740 O.2       7 ALL1        0.0000 
     51 O          18.7460   19.4770   32.9360 O.2       4 ALP1        0.0000 
     52 N          13.2815   15.7735   36.7975 N.am      2 SEC2        0.0000 
     53 N          13.2030   17.0490   36.1350 N.am      8 SEL2        0.0000 
     54 N          13.3600   14.4980   37.4600 N.am      5 SEP2        0.0000 
     55 O          11.9145   16.6975   35.5405 O.2       1 ALC1        0.0000 
     56 O          13.2030   17.0490   36.1350 O.2       7 ALL1        0.0000 
     57 O          10.6260   16.3460   34.9460 O.2       4 ALP1        0.0000 
     58 CA          8.3200   24.8025   36.8495 C.3       3 GLC5        0.0000 
     59 CA          8.5950   25.5460   34.9580 C.3       9 GLL5        0.0000 
     60 CA          8.0450   24.0590   38.7410 C.3       6 GLP5        0.0000 
     61 CA          9.3300   22.3480   33.6680 C.3       3 GLC5        0.0000 
     62 CA         10.7860   23.2990   33.4010 C.3       9 GLL5        0.0000 
     63 CA          7.8740   21.3970   33.9350 C.3       6 GLP5        0.0000 
     64 CA          8.3240   28.4810   33.8445 C.3       3 GLC5        0.0000 
     65 CA          9.8670   27.6870   34.9330 C.3       9 GLL5        0.0000 
     66 CA          6.7810   29.2750   32.7560 C.3       6 GLP5        0.0000 
     67 CA          9.4340   29.2565   35.7375 C.3       3 GLC5        0.0000 
     68 CA          9.0010   30.8260   36.5420 C.3       6 GLP5        0.0000 
     69 CA         11.9375   27.8155   35.5885 C.3       3 GLC5        0.0000 
     70 CA         14.0080   27.9440   36.2440 C.3       6 GLP5        0.0000 
     71 CA          8.0295   27.7455   36.2170 C.3       3 GLC5        0.0000 
     72 CA          6.1920   27.8040   37.5010 C.3       6 GLP5        0.0000 
     73 CA          7.0805   27.4790   33.4010 C.3       3 GLC5        0.0000 
     74 CA          7.3800   25.6830   34.0460 C.3       9 GLL5        0.0000 
     75 N           5.2135   27.6740   34.1355 N.am      2 SEC2        0.0000 
     76 N           4.5500   26.5630   34.6030 N.am      8 SEL2        0.0000 
     77 N           5.8770   28.7850   33.6680 N.am      5 SEP2        0.0000 
     78 N           4.8950   26.7055   35.9220 N.am      2 SEC2        0.0000 
     79 N           5.2400   26.8480   37.2410 N.am      5 SEP2        0.0000 
     80 CA          2.2475   25.5725   35.1760 C.3       3 GLC5        0.0000 
     81 CA          3.6990   24.3270   34.3730 C.3       9 GLL5        0.0000 
     82 CA          0.7960   26.8180   35.9790 C.3       6 GLP5        0.0000 
     83 CA          2.0785   24.0875   32.8410 C.3       3 GLC5        0.0000 
     84 CA          0.4580   23.8480   31.3090 C.3       6 GLP5        0.0000 
     85 CA          2.2750   23.0810   34.5605 C.3       3 GLC5        0.0000 
     86 CA          0.8510   21.8350   34.7480 C.3       6 GLP5        0.0000 
     87 CA          3.5585   23.4070   36.2610 C.3       3 GLC5        0.0000 
     88 CA          3.4180   22.4870   38.1490 C.3       6 GLP5        0.0000 
     89 CA          3.9345   25.5565   30.8375 C.3       3 GLC5        0.0000 
     90 CA          4.6820   25.5240   32.4430 C.3       9 GLL5        0.0000 
     91 CA          3.1870   25.5890   29.2320 C.3       6 GLP5        0.0000 
     92 CA          5.7315   27.3995   32.5995 C.3       3 GLC5        0.0000 
     93 CA          3.1885   27.0685   31.9930 C.3       3 GLC5        0.0000 
     94 CA          1.6950   28.6130   31.5430 C.3       6 GLP5        0.0000 
     95 CA         13.7580   15.0035   31.8255 C.3       3 GLC5        0.0000 
     96 CA         13.4590   14.7300   33.7610 C.3       9 GLL5        0.0000 
     97 CA         12.4795   15.9215   32.4705 C.3       3 GLC5        0.0000 
     98 CA         15.8755   13.7240   32.1535 C.3       3 GLC5        0.0000 
     99 CA         14.4250   13.5930   33.3800 C.3       9 GLL5        0.0000 
    100 CA         17.3260   13.8550   30.9270 C.3       6 GLP5        0.0000 
    101 CA         14.0380   13.7730   31.5640 C.3       3 GLC5        0.0000 
    102 CA         13.6510   13.9530   29.7480 C.3       6 GLP5        0.0000 
    103 CA         15.9470   13.2500   36.0690 C.3       3 GLC5        0.0000 
    104 CA         14.9030   12.7900   34.6080 C.3       9 GLL5        0.0000 
    105 CA         16.9910   13.7100   37.5300 C.3       6 GLP5        0.0000 
    106 CA         16.4860   13.5800   33.2940 C.3       3 GLC5        0.0000 
    107 N          13.5815   13.4655   36.4685 N.am      2 SEC2        0.0000 
    108 N          13.8030   12.4330   35.4770 N.am      8 SEL2        0.0000 
    109 N          13.7005   11.1675   35.0175 N.am      2 SEC2        0.0000 
    110 N          13.5980    9.9020   34.5580 N.am      5 SEP2        0.0000 
    111 O          13.6860   11.2935   36.6715 O.2       1 ALC1        0.0000 
    112 O          13.8030   12.4330   35.4770 O.2       7 ALL1        0.0000 
    113 O          13.5690   10.1540   37.8660 O.2       4 ALP1        0.0000 
    114 CA         15.1543   20.1352   35.2355 C.3       3 GLC5        0.0000 
    115 CA         14.5800   19.4580   33.5080 C.3       9 GLL5        0.0000 
    116 CA         16.2450   21.1480   36.4890 C.3       6 GLP5        0.0000 
    117 CA         12.0278   19.8057   36.0205 C.3       3 GLC5        0.0000 
    118 CA         17.6902   18.1750   32.8357 C.3       3 GLC5        0.0000 
    119 CA         19.6640   18.4630   32.5730 C.3       6 GLP5        0.0000 
    120 CA         16.4928   17.8785   31.4198 C.3       3 GLC5        0.0000 
    121 CA         17.2690   17.8700   29.7410 C.3       6 GLP5        0.0000 
    122 CA         13.3443   19.7028   31.8918 C.3       3 GLC5        0.0000 
    123 CA         11.7700   19.5360   30.5770 C.3       6 GLP5        0.0000 
    124 CA         16.2985   22.0180   33.6535 C.3       3 GLC5        0.0000 
    125 CA         14.1720   21.8920   33.9860 C.3       9 GLL5        0.0000 
    126 CA         18.0960   22.7040   33.6520 C.3       6 GLP5        0.0000 
    127 CA         15.2255   21.6780   35.0250 C.3       3 GLC5        0.0000 
    128 CA         14.8300   20.7720   33.3240 C.3       9 GLL5        0.0000 
    129 CA         12.7160   26.4035   30.9408 C.3       3 GLC5        0.0000 
    130 CA         12.8260   28.2100   30.2360 C.3       6 GLP5        0.0000 
    131 CA         14.5325   23.9198   29.8277 C.3       3 GLC5        0.0000 
    132 CA         15.3950   24.0230   28.0460 C.3       6 GLP5        0.0000 
    133 CA         12.3980   24.7673   37.9740 C.3       3 GLC5        0.0000 
    134 CA         12.6440   25.1090   40.0720 C.3       6 GLP5        0.0000 
    135 CA         10.3445   28.1000   32.9838 C.3       3 GLC5        0.0000 
    136 CA         10.8150   29.2390   31.3050 C.3       6 GLP5        0.0000 
    137 CA          7.4819   23.2934   34.1905 C.3       3 GLC5        0.0000 
    138 CA          6.6409   26.4969   35.9735 C.3       3 GLC5        0.0000 
    139 CA          6.1920   24.7650   34.3900 C.3       9 GLL5        0.0000 
    140 CA         12.7303   12.6859   33.4991 C.3       3 GLC5        0.0000 
    141 CA         11.0380   11.8960   32.9090 C.3       6 GLP5        0.0000 
    142 CA         13.1122   26.3068   35.6970 C.3       3 GLC5        0.0000 
@<TRIPOS>BOND
@<TRIPOS>SUBSTRUCTURE
     1 ALC1       49 GROUP        1 X    ALC  0     ROOT ALC X 1
     2 SEC2       46 GROUP        1 X    SEC  0     **** SEC X 2
     3 GLC5        1 GROUP        1 X    GLC  0     **** GLC X 6
     4 ALP1       51 GROUP        1 Y    ALP  0     ROOT ALP Y 8
     5 SEP2       48 GROUP        1 Y    SEP  0     **** SEP Y 9
     6 GLP5        3 GROUP        1 Y    GLP  0     **** GLP Y 13
     7 ALL1       50 GROUP        1 Z    ALL  0     ROOT ALL Z 15
     8 SEL2       47 GROUP        1 Z    SEL  0     **** SEL Z 16
     9 GLL5        2 GROUP        1 Z    GLL  0     **** GLL Z 20
@<TRIPOS>SET

