#    Name: 2har_OCC_1_ligand
#    Modification time : Tue Mar 25 15:48:01 2014

@<TRIPOS>MOLECULE
2har_OCC_1_ligand
   83    85     1     0     0
SMALL
NO_CHARGES


@<TRIPOS>ATOM
      1 C5         14.5800   19.4580   33.5080 C.2       1 OCC1001     0.0000 
      2 C10        13.5470   18.7870   34.4560 C.2       1 OCC1001     0.0000 
      3 C1         14.1990   17.6850   35.3620 C.3       1 OCC1001     0.0000 
      4 C2         14.9060   16.6230   34.4220 C.3       1 OCC1001     0.0000 
      5 C3         15.9990   17.2980   33.5270 C.3       1 OCC1001     0.0000 
      6 C4         15.4340   18.4760   32.6700 C.3       1 OCC1001     0.0000 
      7 C6         14.8300   20.7720   33.3240 C.2       1 OCC1001     0.0000 
      8 C7         14.1720   21.8920   33.9860 C.2       1 OCC1001     0.0000 
      9 C8         13.9110   23.0840   33.4670 C.2       1 OCC1001     0.0000 
     10 C14        13.1960   24.2040   34.2480 C.3       1 OCC1001     0.0000 
     11 C13        11.7920   24.5710   33.5700 C.3       1 OCC1001     0.0000 
     12 C12        12.1470   25.0730   32.0760 C.3       1 OCC1001     0.0000 
     13 C11        13.0650   24.1210   31.2150 C.3       1 OCC1001     0.0000 
     14 C9         14.2750   23.5120   32.0040 C.3       1 OCC1001     0.0000 
     15 C15        12.7780   23.9720   35.7860 C.3       1 OCC1001     0.0000 
     16 C16        11.5260   24.8790   35.9660 C.3       1 OCC1001     0.0000 
     17 C17        11.3660   25.6230   34.6000 C.3       1 OCC1001     0.0000 
     18 C19        12.1820   19.0760   34.4820 C.2       1 OCC1001     0.0000 
     19 O2         17.0450   17.8130   34.3740 O.3       1 OCC1001     0.0000 
     20 O1         13.2030   17.0490   36.1350 O.3       1 OCC1001     0.0000 
     21 C20         9.8810   26.2350   34.3920 C.3       1 OCC1001     0.0000 
     22 C22         8.5950   25.5460   34.9580 C.3       1 OCC1001     0.0000 
     23 C18        10.7860   23.2990   33.4010 C.3       1 OCC1001     0.0000 
     24 C21         9.8670   27.6870   34.9330 C.3       1 OCC1001     0.0000 
     25 C23         7.3800   25.6830   34.0460 C.3       1 OCC1001     0.0000 
     26 C24         6.1920   24.7650   34.3900 C.3       1 OCC1001     0.0000 
     27 C25         4.7980   25.2950   33.9590 C.3       1 OCC1001     0.0000 
     28 O25         4.5500   26.5630   34.6030 O.3       1 OCC1001     0.0000 
     29 C27         3.6990   24.3270   34.3730 C.3       1 OCC1001     0.0000 
     30 C26         4.6820   25.5240   32.4430 C.3       1 OCC1001     0.0000 
     31 O28        14.0210   16.0030   33.4360 O.3       1 OCC1001     0.0000 
     32 C29        13.4590   14.7300   33.7610 C.3       1 OCC1001     0.0000 
     33 C30        14.4250   13.5930   33.3800 C.3       1 OCC1001     0.0000 
     34 C31        14.9030   12.7900   34.6080 C.3       1 OCC1001     0.0000 
     35 O32        13.8030   12.4330   35.4770 O.3       1 OCC1001     0.0000 
     36 H          14.9591   18.1488   35.9457 H         1 OCC1001     0.0000 
     37 H          15.3968   15.8887   35.0150 H         1 OCC1001     0.0000 
     38 H          16.3857   16.5524   32.8535 H         1 OCC1001     0.0000 
     39 H          16.2703   19.0164   32.2278 H         1 OCC1001     0.0000 
     40 H          14.8212   18.0613   31.8703 H         1 OCC1001     0.0000 
     41 H          15.5894   21.0657   32.6216 H         1 OCC1001     0.0000 
     42 H          13.8862   21.6792   35.0046 H         1 OCC1001     0.0000 
     43 H          13.7616   25.1325   34.2185 H         1 OCC1001     0.0000 
     44 H          12.6359   26.0532   32.1655 H         1 OCC1001     0.0000 
     45 H          11.1967   25.2260   31.5456 H         1 OCC1001     0.0000 
     46 H          13.4499   24.6901   30.3644 H         1 OCC1001     0.0000 
     47 H          12.4489   23.3040   30.8297 H         1 OCC1001     0.0000 
     48 H          14.6398   22.6369   31.4638 H         1 OCC1001     0.0000 
     49 H          15.0746   24.2535   32.0449 H         1 OCC1001     0.0000 
     50 H          13.5627   24.3102   36.3918 H         1 OCC1001     0.0000 
     51 H          12.5178   22.9644   35.9048 H         1 OCC1001     0.0000 
     52 H          11.7085   25.5872   36.7301 H         1 OCC1001     0.0000 
     53 H          10.6737   24.2765   36.1374 H         1 OCC1001     0.0000 
     54 H          12.0787   26.4277   34.5906 H         1 OCC1001     0.0000 
     55 H           9.7390   26.3552   33.2890 H         1 OCC1001     0.0000 
     56 H           8.3735   25.9902   35.9359 H         1 OCC1001     0.0000 
     57 H           8.8194   24.4841   35.1157 H         1 OCC1001     0.0000 
     58 H           7.6880   25.4804   33.0019 H         1 OCC1001     0.0000 
     59 H           7.0289   26.7329   34.0681 H         1 OCC1001     0.0000 
     60 H           6.1775   24.5933   35.4808 H         1 OCC1001     0.0000 
     61 H           6.3523   23.7806   33.9159 H         1 OCC1001     0.0000 
     62 H          12.5151   14.5516   33.2268 H         1 OCC1001     0.0000 
     63 H          13.2511   14.6376   34.8364 H         1 OCC1001     0.0000 
     64 H          15.2951   14.0185   32.8742 H         1 OCC1001     0.0000 
     65 H          13.9218   12.9145   32.6869 H         1 OCC1001     0.0000 
     66 H          15.6473   13.4054   35.1363 H         1 OCC1001     0.0000 
     67 H          15.4256   11.8957   34.2354 H         1 OCC1001     0.0000 
     68 H          11.1870   22.5814   32.8315 H         1 OCC1001     0.0000 
     69 H          10.5621   22.8829   34.2823 H         1 OCC1001     0.0000 
     70 H           9.9214   23.5635   32.9737 H         1 OCC1001     0.0000 
     71 H          10.0933   27.7229   35.9064 H         1 OCC1001     0.0000 
     72 H          10.5279   28.2671   34.4568 H         1 OCC1001     0.0000 
     73 H           8.9697   28.1150   34.8248 H         1 OCC1001     0.0000 
     74 H           3.8195   23.4271   33.9540 H         1 OCC1001     0.0000 
     75 H           3.6793   24.1890   35.3632 H         1 OCC1001     0.0000 
     76 H           2.7936   24.6563   34.1049 H         1 OCC1001     0.0000 
     77 H           5.3495   26.1931   32.1163 H         1 OCC1001     0.0000 
     78 H           4.8354   24.6811   31.9273 H         1 OCC1001     0.0000 
     79 H           3.7770   25.8638   32.1869 H         1 OCC1001     0.0000 
     80 H          17.5201   18.4921   33.8145 H         1 OCC1001     0.0000 
     81 H          12.4506   16.8792   35.4985 H         1 OCC1001     0.0000 
     82 H           3.7439   27.1547   34.6194 H         1 OCC1001     0.0000 
     83 H          14.2336   12.0900   36.3118 H         1 OCC1001     0.0000 
@<TRIPOS>BOND
     1    2    1 1    
     2    6    1 1    
     3    7    1 2    
     4    3    2 1    
     5   18    2 2    
     6    4    3 1    
     7   20    3 1    
     8   36    3 1    
     9    5    4 1    
    10   31    4 1    
    11   37    4 1    
    12    6    5 1    
    13   19    5 1    
    14   38    5 1    
    15   39    6 1    
    16   40    6 1    
    17    8    7 1    
    18   41    7 1    
    19    9    8 2    
    20   42    8 1    
    21   10    9 1    
    22   14    9 1    
    23   11   10 1    
    24   15   10 1    
    25   43   10 1    
    26   12   11 1    
    27   17   11 1    
    28   23   11 1    
    29   13   12 1    
    30   44   12 1    
    31   45   12 1    
    32   14   13 1    
    33   46   13 1    
    34   47   13 1    
    35   48   14 1    
    36   49   14 1    
    37   16   15 1    
    38   50   15 1    
    39   51   15 1    
    40   17   16 1    
    41   52   16 1    
    42   53   16 1    
    43   21   17 1    
    44   54   17 1    
    45   80   19 1    
    46   81   20 1    
    47   22   21 1    
    48   24   21 1    
    49   55   21 1    
    50   25   22 1    
    51   56   22 1    
    52   57   22 1    
    53   68   23 1    
    54   69   23 1    
    55   70   23 1    
    56   71   24 1    
    57   72   24 1    
    58   73   24 1    
    59   26   25 1    
    60   58   25 1    
    61   59   25 1    
    62   27   26 1    
    63   60   26 1    
    64   61   26 1    
    65   28   27 1    
    66   29   27 1    
    67   30   27 1    
    68   82   28 1    
    69   74   29 1    
    70   75   29 1    
    71   76   29 1    
    72   77   30 1    
    73   78   30 1    
    74   79   30 1    
    75   32   31 1    
    76   33   32 1    
    77   62   32 1    
    78   63   32 1    
    79   34   33 1    
    80   64   33 1    
    81   65   33 1    
    82   35   34 1    
    83   66   34 1    
    84   67   34 1    
    85   83   35 1    
@<TRIPOS>SUBSTRUCTURE
     1 OCC1001     1 GROUP   
@<TRIPOS>SET

