#    Name: 3ezr_EZR_1_INTS_M
#    Modification time : Tue Mar 25 02:58:51 2014

@<TRIPOS>MOLECULE
3ezr_EZR_1_INTS_M
   68     0     9     0     0
SMALL
NO_CHARGES


@<TRIPOS>ATOM
      1 CA         -1.2840   35.0695   11.0550 C.3       3 GLC5        0.0000 
      2 CA         -2.5790   33.9250   11.9540 C.3       9 GLL5        0.0000 
      3 CA          0.0110   36.2140   10.1560 C.3       6 GLP5        0.0000 
      4 CA          6.0690   29.6755    5.5305 C.3       3 GLC5        0.0000 
      5 CA          4.6110   28.1650    5.9080 C.3       9 GLL5        0.0000 
      6 CA          7.5270   31.1860    5.1530 C.3       6 GLP5        0.0000 
      7 CA         -1.5480   35.5340   12.2275 C.3       3 GLC5        0.0000 
      8 CA         -3.4190   34.5520   12.8420 C.3       9 GLL5        0.0000 
      9 CA          0.3230   36.5160   11.6130 C.3       6 GLP5        0.0000 
     10 CA         -1.8255   33.9975   13.7870 C.3       3 GLC5        0.0000 
     11 CA         -0.2320   33.4430   14.7320 C.3       6 GLP5        0.0000 
     12 CA          3.5560   29.1590    9.5260 C.3       3 GLC5        0.0000 
     13 CA          2.9850   27.9640    7.7160 C.3       9 GLL5        0.0000 
     14 CA          4.1270   30.3540   11.3360 C.3       6 GLP5        0.0000 
     15 CA          4.5760   26.9810   11.2275 C.3       3 GLC5        0.0000 
     16 CA          2.8920   26.5480   10.3570 C.3       9 GLL5        0.0000 
     17 CA          6.2600   27.4140   12.0980 C.3       6 GLP5        0.0000 
     18 CA          3.5095   28.4510   10.8465 C.3       3 GLC5        0.0000 
     19 CA          1.9145   25.3600    7.6975 C.3       3 GLC5        0.0000 
     20 CA          3.1370   24.5010    9.0020 C.3       9 GLL5        0.0000 
     21 CA          0.6920   26.2190    6.3930 C.3       6 GLP5        0.0000 
     22 CA         -6.7660   29.6095   11.1610 C.3       3 GLC5        0.0000 
     23 CA         -5.6460   30.5640   11.9180 C.3       9 GLL5        0.0000 
     24 CA         -7.8860   28.6550   10.4040 C.3       6 GLP5        0.0000 
     25 CA         -5.8950   31.9650   10.7695 C.3       3 GLC5        0.0000 
     26 CA         -6.1440   33.3660    9.6210 C.3       6 GLP5        0.0000 
     27 CA         -4.6275   31.1865   13.7260 C.3       3 GLC5        0.0000 
     28 CA         -3.6090   31.8090   15.5340 C.3       6 GLP5        0.0000 
     29 CA          2.5765   23.3310   13.6715 C.3       3 GLC5        0.0000 
     30 CA          1.5410   23.4300   11.8880 C.3       9 GLL5        0.0000 
     31 CA          3.6120   23.2320   15.4550 C.3       6 GLP5        0.0000 
     32 N           2.5630   33.0805    6.7070 N.am      2 SEC2        0.0000 
     33 N           1.3350   32.1770    7.3000 N.am      8 SEL2        0.0000 
     34 N           3.7910   33.9840    6.1140 N.am      5 SEP2        0.0000 
     35 O           3.9380   30.7105    6.3590 O.2       1 ALC1        0.0000 
     36 O           2.9660   29.8700    6.6760 O.2       7 ALL1        0.0000 
     37 O           4.9100   31.5510    6.0420 O.2       4 ALP1        0.0000 
     38 O           0.2625   34.1835    7.3520 O.2       1 ALC1        0.0000 
     39 O           0.4230   32.9860    7.8550 O.2       7 ALL1        0.0000 
     40 O           0.1020   35.3810    6.8490 O.2       4 ALP1        0.0000 
     41 CA         -1.1772   32.9815   12.6385 C.3       3 GLC5        0.0000 
     42 CA          0.3660   32.6630   13.5820 C.3       6 GLP5        0.0000 
     43 CA         -3.3040   33.0237   13.9660 C.3       3 GLC5        0.0000 
     44 CA          2.7465   26.8708    6.2293 C.3       3 GLC5        0.0000 
     45 CA          2.2908   26.3193    7.0130 C.3       3 GLC5        0.0000 
     46 CA          3.3830   26.6720    8.0280 C.3       9 GLL5        0.0000 
     47 CA          6.1602   25.1358    7.3213 C.3       3 GLC5        0.0000 
     48 CA          4.3960   26.1670    7.2380 C.3       9 GLL5        0.0000 
     49 CA          7.6270   23.7480    7.9120 C.3       6 GLP5        0.0000 
     50 CA         -0.4060   34.4450    9.6873 C.3       3 GLC5        0.0000 
     51 CA         -0.3300   32.4030    8.8280 C.3       9 GLL5        0.0000 
     52 CA         -2.0820   33.8900    8.5027 C.3       3 GLC5        0.0000 
     53 CA         -1.3160   32.9490    9.6090 C.3       9 GLL5        0.0000 
     54 CA         -3.3410   35.1040    7.7870 C.3       6 GLP5        0.0000 
     55 CA          0.9505   32.4750    9.8833 C.3       3 GLC5        0.0000 
     56 CA          2.7240   32.2740   10.5480 C.3       6 GLP5        0.0000 
     57 CA         -1.0642   31.9328    7.3229 C.3       3 GLC5        0.0000 
     58 CA         -1.7800   31.9740    5.5720 C.3       6 GLP5        0.0000 
     59 CA          1.9910   27.2660    6.7988 C.3       3 GLC5        0.0000 
     60 CA         -4.1660   32.5565   14.2665 C.3       3 GLC5        0.0000 
     61 CA         -4.8700   32.6810   12.7480 C.3       9 GLL5        0.0000 
     62 CA          0.9545   31.5070   10.2803 C.3       3 GLC5        0.0000 
     63 CA         -1.4650   30.7970   10.6320 C.3       9 GLL5        0.0000 
     64 CA         -0.5837   32.1626   11.9666 C.3       3 GLC5        0.0000 
     65 CA         -2.8226   33.9035    9.4503 C.3       3 GLC5        0.0000 
     66 CA         -1.8880   32.1060   10.5320 C.3       9 GLL5        0.0000 
     67 CA         -3.5257   32.0887   13.5890 C.3       3 GLC5        0.0000 
     68 CA         -2.8620   32.6750   11.4360 C.3       9 GLL5        0.0000 
@<TRIPOS>BOND
@<TRIPOS>SUBSTRUCTURE
     1 ALC1       35 GROUP        1 X    ALC  0     ROOT ALC X 1
     2 SEC2       32 GROUP        1 X    SEC  0     **** SEC X 2
     3 GLC5        1 GROUP        1 X    GLC  0     **** GLC X 6
     4 ALP1       37 GROUP        1 Y    ALP  0     ROOT ALP Y 8
     5 SEP2       34 GROUP        1 Y    SEP  0     **** SEP Y 9
     6 GLP5        3 GROUP        1 Y    GLP  0     **** GLP Y 13
     7 ALL1       36 GROUP        1 Z    ALL  0     ROOT ALL Z 15
     8 SEL2       33 GROUP        1 Z    SEL  0     **** SEL Z 16
     9 GLL5        2 GROUP        1 Z    GLL  0     **** GLL Z 20
@<TRIPOS>SET

