#    Name: 3ezr_EZR_1_ligand
#    Modification time : Tue Mar 25 02:58:51 2014

@<TRIPOS>MOLECULE
3ezr_EZR_1_ligand
   62    67     1     0     0
SMALL
NO_CHARGES


@<TRIPOS>ATOM
      1 C4         -2.5790   33.9250   11.9540 C.ar      1 EZR300      0.0000 
      2 C5          4.6110   28.1650    5.9080 C.ar      1 EZR300      0.0000 
      3 C6          4.3960   26.1670    7.2380 C.ar      1 EZR300      0.0000 
      4 C7         -3.4190   34.5520   12.8420 C.ar      1 EZR300      0.0000 
      5 C8         -1.3160   32.9490    9.6090 C.ar      1 EZR300      0.0000 
      6 C10         0.1260   31.1070    8.9290 C.ar      1 EZR300      0.0000 
      7 C13         2.9850   27.9640    7.7160 C.ar      1 EZR300      0.0000 
      8 C15        -0.3300   32.4030    8.8280 C.ar      1 EZR300      0.0000 
      9 C17        -4.5760   33.9270   13.2500 C.ar      1 EZR300      0.0000 
     10 C20         2.0200   29.8720    7.6570 C.2       1 EZR300      0.0000 
     11 C21         2.8920   26.5480   10.3570 C.3       1 EZR300      0.0000 
     12 C22         3.1370   24.5010    9.0020 C.3       1 EZR300      0.0000 
     13 C24         3.4500   23.9300   10.3750 C.3       1 EZR300      0.0000 
     14 C26        -5.6460   30.5640   11.9180 C.3       1 EZR300      0.0000 
     15 C1          4.9910   26.8800    6.2230 C.ar      1 EZR300      0.0000 
     16 C2         -0.4560   30.2590    9.8570 C.ar      1 EZR300      0.0000 
     17 C3         -1.4650   30.7970   10.6320 C.ar      1 EZR300      0.0000 
     18 C9         -4.8700   32.6810   12.7480 C.ar      1 EZR300      0.0000 
     19 C11        -1.8880   32.1060   10.5320 C.ar      1 EZR300      0.0000 
     20 C12        -2.8620   32.6750   11.4360 C.ar      1 EZR300      0.0000 
     21 C14         3.5950   28.6620    6.6930 C.ar      1 EZR300      0.0000 
     22 C16         3.3830   26.6720    8.0280 C.ar      1 EZR300      0.0000 
     23 C18        -4.0230   32.0620   11.8520 C.ar      1 EZR300      0.0000 
     24 C19         1.1540   31.0270    7.9520 C.2       1 EZR300      0.0000 
     25 C23         1.9520   25.7920   11.2700 C.3       1 EZR300      0.0000 
     26 C25         1.5410   23.4300   11.8880 C.3       1 EZR300      0.0000 
     27 N27         2.0120   28.7310    8.3070 N.2       1 EZR300      0.0000 
     28 N28         1.3350   32.1770    7.3000 N.2       1 EZR300      0.0000 
     29 N29         2.9660   29.8700    6.6760 N.pl3     1 EZR300      0.0000 
     30 N30         0.4230   32.9860    7.8550 N.pl3     1 EZR300      0.0000 
     31 N31         2.7890   25.9170    9.0580 N.3       1 EZR300      0.0000 
     32 N32        -5.4480   34.5370   14.1590 N.pl3     1 EZR300      0.0000 
     33 N33         2.5290   24.4330   11.4400 N.4       1 EZR300      0.0000 
     34 O34        -4.3580   30.8110   11.3760 O.3       1 EZR300      0.0000 
     35 H          -1.6975   34.4050   11.6585 H         1 EZR300      0.0000 
     36 H           5.0334   28.6888    5.1772 H         1 EZR300      0.0000 
     37 H           4.7301   25.1826    7.4238 H         1 EZR300      0.0000 
     38 H          -3.1844   35.4902   13.2036 H         1 EZR300      0.0000 
     39 H          -1.6046   33.9084    9.5136 H         1 EZR300      0.0000 
     40 H           3.8951   26.4748   10.7530 H         1 EZR300      0.0000 
     41 H           2.5822   27.5829   10.3188 H         1 EZR300      0.0000 
     42 H           2.3099   23.9149    8.5654 H         1 EZR300      0.0000 
     43 H           4.0165   24.3427    8.3543 H         1 EZR300      0.0000 
     44 H           4.4910   24.1839   10.6345 H         1 EZR300      0.0000 
     45 H           3.3909   22.8303   10.3223 H         1 EZR300      0.0000 
     46 H           5.7600   26.4296    5.6704 H         1 EZR300      0.0000 
     47 H          -0.1587   29.3037    9.9595 H         1 EZR300      0.0000 
     48 H          -1.9380   30.1709   11.3398 H         1 EZR300      0.0000 
     49 H          -5.7398   32.1983   13.0458 H         1 EZR300      0.0000 
     50 H           0.9790   25.7329   10.8109 H         1 EZR300      0.0000 
     51 H           1.8935   26.2974   12.2198 H         1 EZR300      0.0000 
     52 H           3.1559   30.5949    6.0768 H         1 EZR300      0.0000 
     53 H           0.2964   33.9449    7.5837 H         1 EZR300      0.0000 
     54 H          -5.1756   35.4398   14.4919 H         1 EZR300      0.0000 
     55 H          -6.2687   34.0178   14.3976 H         1 EZR300      0.0000 
     56 H           3.2390   24.5470   12.3881 H         1 EZR300      0.0000 
     57 H          -5.6373   30.5788   12.9179 H         1 EZR300      0.0000 
     58 H          -6.3116   31.2484   11.6205 H         1 EZR300      0.0000 
     59 H          -6.0004   29.6708   11.6412 H         1 EZR300      0.0000 
     60 H           1.9830   22.6145   12.2616 H         1 EZR300      0.0000 
     61 H           0.9420   23.7920   12.6022 H         1 EZR300      0.0000 
     62 H           0.9530   23.1271   11.1380 H         1 EZR300      0.0000 
@<TRIPOS>BOND
     1    4    1 ar   
     2   20    1 ar   
     3   35    1 1    
     4   15    2 ar   
     5   21    2 ar   
     6   36    2 1    
     7   15    3 ar   
     8   22    3 ar   
     9   37    3 1    
    10    9    4 ar   
    11   38    4 1    
    12    8    5 ar   
    13   19    5 ar   
    14   39    5 1    
    15    8    6 ar   
    16   16    6 ar   
    17   24    6 1    
    18   21    7 ar   
    19   22    7 ar   
    20   27    7 1    
    21   30    8 1    
    22   18    9 ar   
    23   32    9 1    
    24   24   10 1    
    25   27   10 2    
    26   29   10 1    
    27   25   11 1    
    28   31   11 1    
    29   40   11 1    
    30   41   11 1    
    31   13   12 1    
    32   31   12 1    
    33   42   12 1    
    34   43   12 1    
    35   33   13 1    
    36   44   13 1    
    37   45   13 1    
    38   34   14 1    
    39   57   14 1    
    40   58   14 1    
    41   59   14 1    
    42   46   15 1    
    43   17   16 ar   
    44   47   16 1    
    45   19   17 ar   
    46   48   17 1    
    47   23   18 ar   
    48   49   18 1    
    49   20   19 1    
    50   23   20 ar   
    51   29   21 1    
    52   31   22 1    
    53   34   23 1    
    54   28   24 2    
    55   33   25 1    
    56   50   25 1    
    57   51   25 1    
    58   33   26 1    
    59   60   26 1    
    60   61   26 1    
    61   62   26 1    
    62   30   28 1    
    63   52   29 1    
    64   53   30 1    
    65   54   32 1    
    66   55   32 1    
    67   56   33 1    
@<TRIPOS>SUBSTRUCTURE
     1 EZR300      1 GROUP   
@<TRIPOS>SET

