#    Name: 1ykf_NAP_4_INTS_M
#    Modification time : Tue Mar 25 11:08:36 2014

@<TRIPOS>MOLECULE
1ykf_NAP_4_INTS_M
   69     0    12     0     0
SMALL
NO_CHARGES


@<TRIPOS>ATOM
      1 CA         12.0055    9.3820    7.2055 C.3       4 GLC5        0.0000 
      2 CA         10.1230   10.3250    6.4390 C.3      12 GLL5        0.0000 
      3 CA         13.8880    8.4390    7.9720 C.3       8 GLP5        0.0000 
      4 N          12.1585    9.8025    7.7350 N.am      2 SEC2        0.0000 
      5 N          10.8370    9.7680    7.5470 N.am     10 SEL2        0.0000 
      6 N          13.4800    9.8370    7.9230 N.am      6 SEP2        0.0000 
      7 N           7.6750   12.0795    8.8970 N.am      2 SEC2        0.0000 
      8 N           8.5610   11.0390    8.2390 N.am     10 SEL2        0.0000 
      9 N           6.7890   13.1200    9.5550 N.am      6 SEP2        0.0000 
     10 CA         11.7805   12.4430    7.0575 C.3       4 GLC5        0.0000 
     11 CA          9.7820   12.6870    6.6380 C.3      12 GLL5        0.0000 
     12 CA         13.7790   12.1990    7.4770 C.3       8 GLP5        0.0000 
     13 CA         12.0695   15.4960   10.9430 C.3       4 GLC5        0.0000 
     14 CA         11.0990   16.1760    9.2010 C.3      12 GLL5        0.0000 
     15 CA         13.0400   14.8160   12.6850 C.3       8 GLP5        0.0000 
     16 CA         11.6025   17.3270   10.6390 C.3       4 GLC5        0.0000 
     17 CA         12.1060   18.4780   12.0770 C.3       8 GLP5        0.0000 
     18 CA         12.2645   17.6990    8.7005 C.3       4 GLC5        0.0000 
     19 CA         13.4300   19.2220    8.2000 C.3       8 GLP5        0.0000 
     20 N          14.3220    7.0560    1.9555 N.am      2 SEC2        0.0000 
     21 N          13.2720    8.1300    1.7800 N.am     10 SEL2        0.0000 
     22 N          15.3720    5.9820    2.1310 N.am      6 SEP2        0.0000 
     23 CA         14.8085    8.9620   -0.3205 C.3       4 GLC5        0.0000 
     24 CA         13.6880   10.5110   -0.1860 C.3      12 GLL5        0.0000 
     25 CA         15.9290    7.4130   -0.4550 C.3       8 GLP5        0.0000 
     26 CA         14.8900   13.3675   -0.8400 C.3       4 GLC5        0.0000 
     27 CA         13.5260   11.8440   -0.9130 C.3      12 GLL5        0.0000 
     28 CA         16.2540   14.8910   -0.7670 C.3       8 GLP5        0.0000 
     29 N          14.7785   13.5815   -2.2350 N.am      2 SEC2        0.0000 
     30 N          14.6960   12.0300   -1.7390 N.am     10 SEL2        0.0000 
     31 N          14.8610   15.1330   -2.7310 N.am      6 SEP2        0.0000 
     32 O          12.6565   14.0555   -1.2120 O.2       1 ALC1        0.0000 
     33 O          11.8940   13.2070   -2.2040 O.2       9 ALL1        0.0000 
     34 O          13.4190   14.9040   -0.2200 O.2       5 ALP1        0.0000 
     35 CA         15.3140   13.2970   -1.9395 C.3       4 GLC5        0.0000 
     36 CA         14.3740   11.7030   -3.1120 C.3      12 GLL5        0.0000 
     37 CA         14.7480   12.6900   -5.0545 C.3       4 GLC5        0.0000 
     38 CA         15.5070   10.7930   -5.1560 C.3      12 GLL5        0.0000 
     39 CA         13.9890   14.5870   -4.9530 C.3       8 GLP5        0.0000 
     40 CA         15.8930    6.8055   -3.1955 C.3       4 GLC5        0.0000 
     41 CA         16.7670    8.8370   -3.5910 C.3      12 GLL5        0.0000 
     42 CA         15.0190    4.7740   -2.8000 C.3       8 GLP5        0.0000 
     43 N           8.3025    9.5540   11.0230 N.am      2 SEC2        0.0000 
     44 N           7.9590    9.1930    9.6260 N.am     10 SEL2        0.0000 
     45 N           8.6460    9.9150   12.4200 N.am      6 SEP2        0.0000 
     46 N           7.0775    9.9930   10.5335 N.am      2 SEC2        0.0000 
     47 N           6.1960   10.7930   11.4410 N.am      6 SEP2        0.0000 
     48 N           7.3000    8.4900   10.7850 N.am      2 SEC2        0.0000 
     49 N           6.6410    7.7870   11.9440 N.am      6 SEP2        0.0000 
     50 NZ          6.5065    7.7805    7.2385 N.4       3 LYC4        0.0000 
     51 NZ          7.4650    9.0480    7.1930 N.4      11 LYL4        0.0000 
     52 NZ          6.0780    5.4270    6.7280 N.4       7 LYP4        0.0000 
     53 N           6.5065    7.7805    7.2385 N.am      2 SEC2        0.0000 
     54 N           7.4650    9.0480    7.1930 N.am     10 SEL2        0.0000 
     55 N           5.5480    6.5130    7.2840 N.am      6 SEP2        0.0000 
     56 CA         11.9520   12.6660    4.1122 C.3       4 GLC5        0.0000 
     57 CA         11.0000   11.1310    5.4790 C.3      12 GLL5        0.0000 
     58 CA         13.1880   14.1840    3.4470 C.3       8 GLP5        0.0000 
     59 CA         12.1702   11.4635    6.7180 C.3       4 GLC5        0.0000 
     60 CA         11.3948    8.8465    5.4280 C.3       4 GLC5        0.0000 
     61 CA         12.2280    6.9650    4.8970 C.3       8 GLP5        0.0000 
     62 CA         10.1296   16.4081    6.0827 C.3       4 GLC5        0.0000 
     63 CA          8.9370   16.0120    7.6560 C.3      12 GLL5        0.0000 
     64 CA         10.8440   17.0510    4.2940 C.3       8 GLP5        0.0000 
     65 CA         13.7508   13.1022   -3.8811 C.3       4 GLC5        0.0000 
     66 CA         16.1370    8.3547   -1.8708 C.3       4 GLC5        0.0000 
     67 CA         18.0991    9.3770   -3.0525 C.3       4 GLC5        0.0000 
     68 CA         15.9230    9.7560   -2.9820 C.3      12 GLL5        0.0000 
     69 CA         19.8020    9.4410   -2.4750 C.3       8 GLP5        0.0000 
@<TRIPOS>BOND
@<TRIPOS>SUBSTRUCTURE
     1 ALC1       32 GROUP        1 X    ALC  0     ROOT ALC X 1
     2 SEC2        4 GROUP        1 X    SEC  0     **** SEC X 2
     3 LYC4       50 GROUP        1 X    LYC  0     **** LYC X 4
     4 GLC5        1 GROUP        1 X    GLC  0     **** GLC X 6
     5 ALP1       34 GROUP        1 Y    ALP  0     ROOT ALP Y 8
     6 SEP2        6 GROUP        1 Y    SEP  0     **** SEP Y 9
     7 LYP4       52 GROUP        1 Y    LYP  0     **** LYP Y 11
     8 GLP5        3 GROUP        1 Y    GLP  0     **** GLP Y 13
     9 ALL1       33 GROUP        1 Z    ALL  0     ROOT ALL Z 15
    10 SEL2        5 GROUP        1 Z    SEL  0     **** SEL Z 16
    11 LYL4       51 GROUP        1 Z    LYL  0     **** LYL Z 18
    12 GLL5        2 GROUP        1 Z    GLL  0     **** GLL Z 20
@<TRIPOS>SET

