#    Name: 1ykf_NAP_4_ligand
#    Modification time : Tue Mar 25 11:08:36 2014

@<TRIPOS>MOLECULE
1ykf_NAP_4_ligand
   73    77     1     0     0
SMALL
NO_CHARGES


@<TRIPOS>ATOM
      1 PA          9.8110    9.3460    2.2990 P.3       1 NAP353      0.0000 
      2 O1A         9.2530   10.4470    1.4750 O.co2     1 NAP353      0.0000 
      3 O2A         8.8710    8.4650    3.0310 O.co2     1 NAP353      0.0000 
      4 O5B        10.7840    9.9410    3.4330 O.3       1 NAP353      0.0000 
      5 C5B        10.4320   11.1650    4.0760 C.3       1 NAP353      0.0000 
      6 C4B        11.0000   11.1310    5.4790 C.3       1 NAP353      0.0000 
      7 O4B        11.0330   12.4840    5.9660 O.3       1 NAP353      0.0000 
      8 C3B        10.1230   10.3250    6.4390 C.3       1 NAP353      0.0000 
      9 O3B        10.8370    9.7680    7.5470 O.3       1 NAP353      0.0000 
     10 C2B         9.1370   11.3610    6.9570 C.3       1 NAP353      0.0000 
     11 O2B         8.5610   11.0390    8.2390 O.3       1 NAP353      0.0000 
     12 C1B         9.7820   12.6870    6.6380 C.3       1 NAP353      0.0000 
     13 N9A         9.2220   14.0230    6.9400 N.pl3     1 NAP353      0.0000 
     14 C8A         8.1020   14.5520    6.4200 C.2       1 NAP353      0.0000 
     15 N7A         7.9070   15.8050    6.8520 N.2       1 NAP353      0.0000 
     16 C5A         8.9370   16.0120    7.6560 C.ar      1 NAP353      0.0000 
     17 C6A         9.1640   17.1890    8.3540 C.ar      1 NAP353      0.0000 
     18 N6A         8.3210   18.2120    8.2580 N.pl3     1 NAP353      0.0000 
     19 N1A        10.2720   17.2260    9.1240 N.ar      1 NAP353      0.0000 
     20 C2A        11.0990   16.1760    9.2010 C.ar      1 NAP353      0.0000 
     21 N3A        10.8680   15.0440    8.5300 N.ar      1 NAP353      0.0000 
     22 C4A         9.7800   14.9300    7.7380 C.ar      1 NAP353      0.0000 
     23 O3         10.7920    8.4090    1.4160 O.3       1 NAP353      0.0000 
     24 PN         12.2610    8.4670    0.7440 P.3       1 NAP353      0.0000 
     25 O1N        12.2460    7.6330   -0.4810 O.co2     1 NAP353      0.0000 
     26 O2N        13.2720    8.1300    1.7800 O.co2     1 NAP353      0.0000 
     27 O5D        12.4310   10.0060    0.2900 O.3       1 NAP353      0.0000 
     28 C5D        13.6880   10.5110   -0.1860 C.3       1 NAP353      0.0000 
     29 C4D        13.5260   11.8440   -0.9130 C.3       1 NAP353      0.0000 
     30 O4D        14.6960   12.0300   -1.7390 O.3       1 NAP353      0.0000 
     31 C3D        12.3570   11.8770   -1.8950 C.3       1 NAP353      0.0000 
     32 O3D        11.8940   13.2070   -2.2040 O.3       1 NAP353      0.0000 
     33 C2D        12.9450   11.1870   -3.1180 C.3       1 NAP353      0.0000 
     34 O2D        12.2220   11.6430   -4.2630 O.3       1 NAP353      0.0000 
     35 C1D        14.3740   11.7030   -3.1120 C.3       1 NAP353      0.0000 
     36 N1N        15.2900   10.7360   -3.7630 N.pl3     1 NAP353      0.0000 
     37 C2N        15.5070   10.7930   -5.1560 C.ar      1 NAP353      0.0000 
     38 C3N        16.3540    9.8640   -5.7600 C.ar      1 NAP353      0.0000 
     39 C7N        16.6030    9.8410   -7.2730 C.2       1 NAP353      0.0000 
     40 O7N        17.1750    8.8850   -7.7860 O.2       1 NAP353      0.0000 
     41 N7N        16.1660   10.8700   -7.9790 N.am      1 NAP353      0.0000 
     42 C4N        16.9720    8.9030   -4.9650 C.ar      1 NAP353      0.0000 
     43 C5N        16.7670    8.8370   -3.5910 C.ar      1 NAP353      0.0000 
     44 C6N        15.9230    9.7560   -2.9820 C.ar      1 NAP353      0.0000 
     45 P2B         7.4500    9.8840    8.4150 P.3       1 NAP353      0.0000 
     46 O1X         6.2170   10.6800    8.6030 O.co2     1 NAP353      0.0000 
     47 O2X         7.9590    9.1930    9.6260 O.co2     1 NAP353      0.0000 
     48 O3X         7.4650    9.0480    7.1930 O.co2     1 NAP353      0.0000 
     49 H           9.3516   11.2884    4.1480 H         1 NAP353      0.0000 
     50 H          10.8501   12.0286    3.5592 H         1 NAP353      0.0000 
     51 H          11.9778   10.7104    5.4618 H         1 NAP353      0.0000 
     52 H           9.5744    9.6099    5.8787 H         1 NAP353      0.0000 
     53 H           8.2832   11.2770    6.1532 H         1 NAP353      0.0000 
     54 H          10.4669   12.6348    7.9053 H         1 NAP353      0.0000 
     55 H           7.5000   14.0759    5.7982 H         1 NAP353      0.0000 
     56 H           7.5165   18.0667    7.6821 H         1 NAP353      0.0000 
     57 H           8.5673   19.0347    8.7703 H         1 NAP353      0.0000 
     58 H          11.9612   16.2459    9.8120 H         1 NAP353      0.0000 
     59 H          14.1659    9.8034   -0.8857 H         1 NAP353      0.0000 
     60 H          14.3987   10.6662    0.6444 H         1 NAP353      0.0000 
     61 H          13.4314   12.6355   -0.2195 H         1 NAP353      0.0000 
     62 H          11.5883   11.2389   -1.5078 H         1 NAP353      0.0000 
     63 H          12.9338   10.1627   -2.9656 H         1 NAP353      0.0000 
     64 H          14.3569   12.6358   -3.7066 H         1 NAP353      0.0000 
     65 H          15.0432   11.5131   -5.7124 H         1 NAP353      0.0000 
     66 H          16.3440   10.8363   -8.9624 H         1 NAP353      0.0000 
     67 H          15.6971   11.5886   -7.4655 H         1 NAP353      0.0000 
     68 H          17.6091    8.2104   -5.4145 H         1 NAP353      0.0000 
     69 H          17.2354    8.1158   -3.0337 H         1 NAP353      0.0000 
     70 H          15.7592    9.7251   -1.9729 H         1 NAP353      0.0000 
     71 H          10.1342    9.5490    8.2239 H         1 NAP353      0.0000 
     72 H          12.4003   13.8075   -1.5850 H         1 NAP353      0.0000 
     73 H          11.8120   12.5105   -3.9815 H         1 NAP353      0.0000 
@<TRIPOS>BOND
     1    2    1 ar   
     2    3    1 ar   
     3    4    1 1    
     4   23    1 1    
     5    5    4 1    
     6    6    5 1    
     7   49    5 1    
     8   50    5 1    
     9    7    6 1    
    10    8    6 1    
    11   51    6 1    
    12   12    7 1    
    13    9    8 1    
    14   10    8 1    
    15   52    8 1    
    16   71    9 1    
    17   11   10 1    
    18   12   10 1    
    19   53   10 1    
    20   45   11 1    
    21   13   12 1    
    22   54   12 1    
    23   14   13 1    
    24   22   13 1    
    25   15   14 2    
    26   55   14 1    
    27   16   15 1    
    28   17   16 ar   
    29   22   16 ar   
    30   18   17 1    
    31   19   17 ar   
    32   56   18 1    
    33   57   18 1    
    34   20   19 ar   
    35   21   20 ar   
    36   58   20 1    
    37   22   21 ar   
    38   24   23 1    
    39   25   24 ar   
    40   26   24 ar   
    41   27   24 1    
    42   28   27 1    
    43   29   28 1    
    44   59   28 1    
    45   60   28 1    
    46   30   29 1    
    47   31   29 1    
    48   61   29 1    
    49   35   30 1    
    50   32   31 1    
    51   33   31 1    
    52   62   31 1    
    53   72   32 1    
    54   34   33 1    
    55   35   33 1    
    56   63   33 1    
    57   73   34 1    
    58   36   35 1    
    59   64   35 1    
    60   37   36 ar   
    61   44   36 ar   
    62   38   37 ar   
    63   65   37 1    
    64   39   38 1    
    65   42   38 ar   
    66   40   39 2    
    67   41   39 am   
    68   66   41 1    
    69   67   41 1    
    70   43   42 ar   
    71   68   42 1    
    72   44   43 ar   
    73   69   43 1    
    74   70   44 1    
    75   46   45 ar   
    76   47   45 ar   
    77   48   45 ar   
@<TRIPOS>SUBSTRUCTURE
     1 NAP353      1 GROUP   
@<TRIPOS>SET

