#    Name: 4eeu_FMN_1_INTS_M
#    Modification time : Mon Apr  7 23:36:01 2014

@<TRIPOS>MOLECULE
4eeu_FMN_1_INTS_M
   87     0    12     0     0
SMALL
NO_CHARGES


@<TRIPOS>ATOM
      1 N          -3.1950    7.7765  -20.3840 N.am      2 SEC2        0.0000 
      2 N          -1.6560    7.3040  -19.9070 N.am     10 SEL2        0.0000 
      3 N          -4.7340    8.2490  -20.8610 N.am      6 SEP2        0.0000 
      4 N          -3.8110    8.4480  -19.7200 N.am      2 SEC2        0.0000 
      5 N          -2.8880    8.6470  -18.5790 N.am     10 SEL2        0.0000 
      6 N          -3.1850    9.4895  -17.4340 N.am      2 SEC2        0.0000 
      7 N          -3.4820   10.3320  -16.2890 N.am      6 SEP2        0.0000 
      8 O          -1.3360    8.5660  -16.5230 O.2       1 ALC1        0.0000 
      9 O          -0.9840    7.8130  -17.6880 O.2       9 ALL1        0.0000 
     10 O          -1.6880    9.3190  -15.3580 O.2       5 ALP1        0.0000 
     11 N           1.0280    8.4150  -16.1975 N.am      2 SEC2        0.0000 
     12 N           0.9360    7.0070  -16.8040 N.am     10 SEL2        0.0000 
     13 N           1.1200    9.8230  -15.5910 N.am      6 SEP2        0.0000 
     14 N           2.2270    6.4625  -16.4380 N.am      2 SEC2        0.0000 
     15 N           3.5180    5.9180  -16.0720 N.am      6 SEP2        0.0000 
     16 CA          5.1185    2.1460  -23.5370 C.3       4 GLC5        0.0000 
     17 CA          4.3890    2.7290  -21.8040 C.3      12 GLL5        0.0000 
     18 CA          5.8480    1.5630  -25.2700 C.3       8 GLP5        0.0000 
     19 CA          6.3870    2.5085  -21.6150 C.3       4 GLC5        0.0000 
     20 CA          8.3850    2.2880  -21.4260 C.3       8 GLP5        0.0000 
     21 CA          2.1475    1.5650  -25.1770 C.3       4 GLC5        0.0000 
     22 CA          2.5430    3.0020  -24.0700 C.3      12 GLL5        0.0000 
     23 CA          1.7520    0.1280  -26.2840 C.3       8 GLP5        0.0000 
     24 CA          1.6135    3.9990  -25.4675 C.3       4 GLC5        0.0000 
     25 CA          0.6840    4.9960  -26.8650 C.3       8 GLP5        0.0000 
     26 CA          4.1955    2.2825  -24.6700 C.3       4 GLC5        0.0000 
     27 CA          0.8945    4.7440  -24.7450 C.3       4 GLC5        0.0000 
     28 CA          1.1050    4.4920  -22.6250 C.3      12 GLL5        0.0000 
     29 CA         -0.6585    7.3040  -23.7890 C.3       4 GLC5        0.0000 
     30 CA         -1.2730    6.2020  -22.3670 C.3      12 GLL5        0.0000 
     31 CA         -0.0440    8.4060  -25.2110 C.3       8 GLP5        0.0000 
     32 CA         -1.6795    4.1470  -20.7940 C.3       4 GLC5        0.0000 
     33 CA         -2.4290    5.2590  -22.5810 C.3      12 GLL5        0.0000 
     34 CA         -0.9300    3.0350  -19.0070 C.3       8 GLP5        0.0000 
     35 O          -3.0470    3.0710  -22.2930 O.2       1 ALC1        0.0000 
     36 O          -1.9660    3.9510  -22.3210 O.2       9 ALL1        0.0000 
     37 O          -4.1280    2.1910  -22.2650 O.2       5 ALP1        0.0000 
     38 N          -4.6635    7.6265  -22.1835 N.am      2 SEC2        0.0000 
     39 N          -4.5930    7.0040  -23.5060 N.am     10 SEL2        0.0000 
     40 CA         -4.0735    7.6130  -27.4655 C.3       4 GLC5        0.0000 
     41 CA         -3.8520    6.9530  -25.8230 C.3      12 GLL5        0.0000 
     42 CA         -4.2950    8.2730  -29.1080 C.3       8 GLP5        0.0000 
     43 NZ         -6.3915    3.3270  -26.1630 N.4       3 LYC4        0.0000 
     44 NZ         -6.4680    4.5120  -27.0140 N.4      11 LYL4        0.0000 
     45 NZ         -6.9660    2.1890  -24.1530 N.4       7 LYP4        0.0000 
     46 N          -6.3915    3.3270  -26.1630 N.am      2 SEC2        0.0000 
     47 N          -6.4680    4.5120  -27.0140 N.am     10 SEL2        0.0000 
     48 N          -6.3150    2.1420  -25.3120 N.am      6 SEP2        0.0000 
     49 NZ         -6.9475    4.5975  -24.2345 N.4       3 LYC4        0.0000 
     50 NZ         -6.6010    5.8240  -24.8320 N.4      11 LYL4        0.0000 
     51 N          -6.9475    4.5975  -24.2345 N.am      2 SEC2        0.0000 
     52 N          -6.6010    5.8240  -24.8320 N.am     10 SEL2        0.0000 
     53 N          -7.2940    3.3710  -23.6370 N.am      6 SEP2        0.0000 
     54 NZ         -7.0345    8.0930  -27.5055 N.4       3 LYC4        0.0000 
     55 NZ         -6.7180    6.9960  -27.0140 N.4      11 LYL4        0.0000 
     56 NZ         -7.1460    9.8330  -29.1350 N.4       7 LYP4        0.0000 
     57 N          -7.0345    8.0930  -27.5055 N.am      2 SEC2        0.0000 
     58 N          -6.7180    6.9960  -27.0140 N.am     10 SEL2        0.0000 
     59 N          -7.3510    9.1900  -27.9970 N.am      6 SEP2        0.0000 
     60 CA          2.9640    3.2370  -19.0913 C.3       4 GLC5        0.0000 
     61 CA          1.6970    4.9860  -20.3450 C.3      12 GLL5        0.0000 
     62 CA          3.6600    1.8780  -17.7570 C.3       8 GLP5        0.0000 
     63 CA          0.6690    3.8155  -19.7163 C.3       4 GLC5        0.0000 
     64 CA          2.8390    4.2060  -20.5060 C.3      12 GLL5        0.0000 
     65 CA          1.6515    7.1520  -20.5990 C.3       4 GLC5        0.0000 
     66 CA          2.0430    9.2390  -20.3150 C.3       8 GLP5        0.0000 
     67 CA          3.2945    5.6770  -21.4722 C.3       4 GLC5        0.0000 
     68 CA          4.3210    6.7580  -22.5190 C.3       8 GLP5        0.0000 
     69 CA          3.7102    2.5115  -19.7518 C.3       4 GLC5        0.0000 
     70 CA          3.1320    3.5610  -21.6890 C.3      12 GLL5        0.0000 
     71 CA          3.1598    1.4000  -21.5652 C.3       4 GLC5        0.0000 
     72 CA          2.5590   -0.3450  -21.3840 C.3       8 GLP5        0.0000 
     73 CA          4.0408    4.9515  -22.1327 C.3       4 GLC5        0.0000 
     74 CA          5.0631    4.1496  -20.5264 C.3       4 GLC5        0.0000 
     75 CA          6.4390    4.9930  -19.6020 C.3       8 GLP5        0.0000 
     76 CA          2.4790    1.5020  -22.3993 C.3       4 GLC5        0.0000 
     77 CA          2.2550    3.6960  -22.7590 C.3      12 GLL5        0.0000 
     78 CA          3.3600    5.0535  -22.9667 C.3       4 GLC5        0.0000 
     79 CA          0.0170    3.9265  -20.5150 C.3       4 GLC5        0.0000 
     80 CA          2.6425    5.7880  -22.2710 C.3       4 GLC5        0.0000 
     81 CA          0.8230    5.1440  -21.4210 C.3      12 GLL5        0.0000 
     82 CA         -4.3853    4.9705  -22.1833 C.3       4 GLC5        0.0000 
     83 CA         -6.1060    4.6310  -21.0660 C.3       8 GLP5        0.0000 
     84 CA         -4.8447    8.4320  -25.0232 C.3       4 GLC5        0.0000 
     85 CA         -3.4730    6.7490  -24.3480 C.3      12 GLL5        0.0000 
     86 CA         -6.0270   10.0130  -24.9610 C.3       8 GLP5        0.0000 
     87 CA         -1.7816    7.4550  -25.1073 C.3       4 GLC5        0.0000 
@<TRIPOS>BOND
@<TRIPOS>SUBSTRUCTURE
     1 ALC1        8 GROUP        1 X    ALC  0     ROOT ALC X 1
     2 SEC2        1 GROUP        1 X    SEC  0     **** SEC X 2
     3 LYC4       43 GROUP        1 X    LYC  0     **** LYC X 4
     4 GLC5       16 GROUP        1 X    GLC  0     **** GLC X 6
     5 ALP1       10 GROUP        1 Y    ALP  0     ROOT ALP Y 8
     6 SEP2        3 GROUP        1 Y    SEP  0     **** SEP Y 9
     7 LYP4       45 GROUP        1 Y    LYP  0     **** LYP Y 11
     8 GLP5       18 GROUP        1 Y    GLP  0     **** GLP Y 13
     9 ALL1        9 GROUP        1 Z    ALL  0     ROOT ALL Z 15
    10 SEL2        2 GROUP        1 Z    SEL  0     **** SEL Z 16
    11 LYL4       44 GROUP        1 Z    LYL  0     **** LYL Z 18
    12 GLL5       17 GROUP        1 Z    GLL  0     **** GLL Z 20
@<TRIPOS>SET

