#    Name: 4eeu_FMN_1_ligand
#    Modification time : Mon Apr  7 23:36:01 2014

@<TRIPOS>MOLECULE
4eeu_FMN_1_ligand
   50    52     1     0     0
SMALL
NO_CHARGES


@<TRIPOS>ATOM
      1 N1         -1.6560    7.3040  -19.9070 N.2       1 FMN501      0.0000 
      2 C2         -1.8800    7.9480  -18.7250 C.2       1 FMN501      0.0000 
      3 O2         -2.8880    8.6470  -18.5790 O.2       1 FMN501      0.0000 
      4 N3         -0.9840    7.8130  -17.6880 N.am      1 FMN501      0.0000 
      5 C4          0.1600    7.0650  -17.7740 C.2       1 FMN501      0.0000 
      6 O4          0.9360    7.0070  -16.8040 O.2       1 FMN501      0.0000 
      7 C4A         0.3840    6.3880  -18.9720 C.2       1 FMN501      0.0000 
      8 N5          1.5020    5.6020  -19.1220 N.2       1 FMN501      0.0000 
      9 C5A         1.6970    4.9860  -20.3450 C.ar      1 FMN501      0.0000 
     10 C6          2.8390    4.2060  -20.5060 C.ar      1 FMN501      0.0000 
     11 C7          3.1320    3.5610  -21.6890 C.ar      1 FMN501      0.0000 
     12 C7M         4.3890    2.7290  -21.8040 C.3       1 FMN501      0.0000 
     13 C8          2.2550    3.6960  -22.7590 C.ar      1 FMN501      0.0000 
     14 C8M         2.5430    3.0020  -24.0700 C.3       1 FMN501      0.0000 
     15 C9          1.1050    4.4920  -22.6250 C.ar      1 FMN501      0.0000 
     16 C9A         0.8230    5.1440  -21.4210 C.ar      1 FMN501      0.0000 
     17 N10        -0.3260    5.9210  -21.2500 N.pl3     1 FMN501      0.0000 
     18 C10        -0.5150    6.5550  -20.0320 C.2       1 FMN501      0.0000 
     19 C1'        -1.2730    6.2020  -22.3670 C.3       1 FMN501      0.0000 
     20 C2'        -2.4290    5.2590  -22.5810 C.3       1 FMN501      0.0000 
     21 O2'        -1.9660    3.9510  -22.3210 O.3       1 FMN501      0.0000 
     22 C3'        -2.9000    5.3610  -24.0200 C.3       1 FMN501      0.0000 
     23 O3'        -1.8150    5.0600  -24.9130 O.3       1 FMN501      0.0000 
     24 C4'        -3.4730    6.7490  -24.3480 C.3       1 FMN501      0.0000 
     25 O4'        -4.5930    7.0040  -23.5060 O.3       1 FMN501      0.0000 
     26 C5'        -3.8520    6.9530  -25.8230 C.3       1 FMN501      0.0000 
     27 O5'        -4.5550    5.8320  -26.3020 O.3       1 FMN501      0.0000 
     28 P          -6.1540    5.7980  -26.2790 P.3       1 FMN501      0.0000 
     29 O1P        -6.4680    4.5120  -27.0140 O.co2     1 FMN501      0.0000 
     30 O2P        -6.6010    5.8240  -24.8320 O.co2     1 FMN501      0.0000 
     31 O3P        -6.7180    6.9960  -27.0140 O.co2     1 FMN501      0.0000 
     32 H          -1.1927    8.3136  -16.7803 H         1 FMN501      0.0000 
     33 H           3.4953    4.1092  -19.6964 H         1 FMN501      0.0000 
     34 H           0.4642    4.5944  -23.4249 H         1 FMN501      0.0000 
     35 H          -0.6894    6.2682  -23.3308 H         1 FMN501      0.0000 
     36 H          -1.6875    7.2440  -22.2391 H         1 FMN501      0.0000 
     37 H          -3.2277    5.5398  -21.9316 H         1 FMN501      0.0000 
     38 H          -3.7068    4.6349  -24.1620 H         1 FMN501      0.0000 
     39 H          -2.6750    7.4844  -24.1147 H         1 FMN501      0.0000 
     40 H          -2.9184    7.1294  -26.3766 H         1 FMN501      0.0000 
     41 H          -4.4469    7.8761  -25.8806 H         1 FMN501      0.0000 
     42 H           5.2116    3.2750  -21.6450 H         1 FMN501      0.0000 
     43 H           4.4011    1.9808  -21.1407 H         1 FMN501      0.0000 
     44 H           4.4807    2.3181  -22.7110 H         1 FMN501      0.0000 
     45 H           3.4133    3.2980  -24.4636 H         1 FMN501      0.0000 
     46 H           2.5930    2.0092  -23.9615 H         1 FMN501      0.0000 
     47 H           1.8350    3.1871  -24.7516 H         1 FMN501      0.0000 
     48 H          -2.6285    3.3488  -22.7664 H         1 FMN501      0.0000 
     49 H          -2.2420    4.9477  -25.8103 H         1 FMN501      0.0000 
     50 H          -5.2073    6.2283  -23.6507 H         1 FMN501      0.0000 
@<TRIPOS>BOND
     1    2    1 1    
     2   18    1 2    
     3    3    2 2    
     4    4    2 am   
     5    5    4 am   
     6   32    4 1    
     7    6    5 2    
     8    7    5 1    
     9    8    7 2    
    10   18    7 1    
    11    9    8 1    
    12   10    9 ar   
    13   16    9 ar   
    14   11   10 ar   
    15   33   10 1    
    16   12   11 1    
    17   13   11 ar   
    18   42   12 1    
    19   43   12 1    
    20   44   12 1    
    21   14   13 1    
    22   15   13 ar   
    23   45   14 1    
    24   46   14 1    
    25   47   14 1    
    26   16   15 ar   
    27   34   15 1    
    28   17   16 1    
    29   18   17 1    
    30   19   17 1    
    31   20   19 1    
    32   35   19 1    
    33   36   19 1    
    34   21   20 1    
    35   22   20 1    
    36   37   20 1    
    37   48   21 1    
    38   23   22 1    
    39   24   22 1    
    40   38   22 1    
    41   49   23 1    
    42   25   24 1    
    43   26   24 1    
    44   39   24 1    
    45   50   25 1    
    46   27   26 1    
    47   40   26 1    
    48   41   26 1    
    49   28   27 1    
    50   29   28 ar   
    51   30   28 ar   
    52   31   28 ar   
@<TRIPOS>SUBSTRUCTURE
     1 FMN501      1 GROUP   
@<TRIPOS>SET

