#    Name: 4c61_LMM_1_INTS_M
#    Modification time : Tue Mar 25 09:01:37 2014

@<TRIPOS>MOLECULE
4c61_LMM_1_INTS_M
   69     0     9     0     0
SMALL
NO_CHARGES


@<TRIPOS>ATOM
      1 CA         10.0765    9.2010   42.3080 C.3       3 GLC5        0.0000 
      2 CA         10.6370    7.4690   43.5650 C.3       9 GLL5        0.0000 
      3 CA          9.5160   10.9330   41.0510 C.3       6 GLP5        0.0000 
      4 CA         10.6790    5.0475   42.4010 C.3       3 GLC5        0.0000 
      5 CA         11.3470    5.2000   44.0990 C.3       9 GLL5        0.0000 
      6 CA         10.0110    4.8950   40.7030 C.3       6 GLP5        0.0000 
      7 CA         12.8970    5.3110   42.0345 C.3       3 GLC5        0.0000 
      8 CA         13.5630    4.7640   43.8730 C.3       9 GLL5        0.0000 
      9 CA         12.2310    5.8580   40.1960 C.3       6 GLP5        0.0000 
     10 CA         13.9330    8.2900   42.2095 C.3       3 GLC5        0.0000 
     11 CA         12.9050    6.8560   43.2790 C.3       9 GLL5        0.0000 
     12 CA         14.9610    9.7240   41.1400 C.3       6 GLP5        0.0000 
     13 CA         12.5680    6.3570   41.7375 C.3       3 GLC5        0.0000 
     14 CA         15.9675    2.1690   43.4250 C.3       3 GLC5        0.0000 
     15 CA         14.7600    3.7720   44.0640 C.3       9 GLL5        0.0000 
     16 CA         17.1750    0.5660   42.7860 C.3       6 GLP5        0.0000 
     17 CA         17.1605    3.2345   46.0660 C.3       3 GLC5        0.0000 
     18 CA         15.3030    3.9670   45.4770 C.3       9 GLL5        0.0000 
     19 CA         19.0180    2.5020   46.6550 C.3       6 GLP5        0.0000 
     20 CA         16.4830    2.1710   42.2765 C.3       3 GLC5        0.0000 
     21 CA         15.7910    3.7760   41.7670 C.3       9 GLL5        0.0000 
     22 CA         14.0110    4.8170   40.9815 C.3       3 GLC5        0.0000 
     23 CA         14.9945    1.1515   40.6950 C.3       3 GLC5        0.0000 
     24 CA         14.6160    2.8840   39.9840 C.3       9 GLL5        0.0000 
     25 CA         15.3730   -0.5810   41.4060 C.3       6 GLP5        0.0000 
     26 CA         13.4235    4.3710   40.0900 C.3       3 GLC5        0.0000 
     27 CA         15.1105    2.4875   35.6780 C.3       3 GLC5        0.0000 
     28 CA         16.0220    2.7760   37.4790 C.3       9 GLL5        0.0000 
     29 CA         14.1990    2.1990   33.8770 C.3       6 GLP5        0.0000 
     30 O          13.2750    2.3850   37.9265 O.2       1 ALC1        0.0000 
     31 O          13.4650    2.2720   39.4490 O.2       7 ALL1        0.0000 
     32 O          13.0850    2.4980   36.4040 O.2       4 ALP1        0.0000 
     33 N          11.0260    1.1695   38.0190 N.am      2 SEC2        0.0000 
     34 N          11.2970    1.3210   39.4640 N.am      8 SEL2        0.0000 
     35 N          10.7550    1.0180   36.5740 N.am      5 SEP2        0.0000 
     36 CA         10.5815   -0.0805   42.2075 C.3       3 GLC5        0.0000 
     37 CA          9.9000    1.6050   42.8030 C.3       9 GLL5        0.0000 
     38 CA         11.2630   -1.7660   41.6120 C.3       6 GLP5        0.0000 
     39 CA          8.1005    1.9805   41.6650 C.3       3 GLC5        0.0000 
     40 CA          6.3010    2.3560   40.5270 C.3       6 GLP5        0.0000 
     41 CA          9.0580    0.5670   44.0745 C.3       3 GLC5        0.0000 
     42 CA          8.2160   -0.4710   45.3460 C.3       6 GLP5        0.0000 
     43 CA          9.9555    3.2500   41.7530 C.3       3 GLC5        0.0000 
     44 CA         12.7450    1.0185   43.1630 C.3       3 GLC5        0.0000 
     45 CA         11.9420    2.1320   41.4280 C.3       9 GLL5        0.0000 
     46 CA         13.5480   -0.0950   44.8980 C.3       6 GLP5        0.0000 
     47 CA         10.8495    8.7933   44.1608 C.3       3 GLC5        0.0000 
     48 CA         11.6050    6.5200   43.6400 C.3       9 GLL5        0.0000 
     49 CA         10.5780   10.5920   44.7190 C.3       6 GLP5        0.0000 
     50 CA         10.9370    6.5758   41.9507 C.3       3 GLC5        0.0000 
     51 CA         10.7530    6.1570   40.2990 C.3       6 GLP5        0.0000 
     52 CA          9.3845    6.3221   43.2939 C.3       3 GLC5        0.0000 
     53 CA          7.5350    6.5470   42.7370 C.3       6 GLP5        0.0000 
     54 CA         10.0365    6.4321   45.4954 C.3       3 GLC5        0.0000 
     55 CA          8.8390    6.7670   47.1400 C.3       6 GLP5        0.0000 
     56 CA         14.6397    2.0907   45.4868 C.3       3 GLC5        0.0000 
     57 CA         14.2480    0.3120   46.2030 C.3       6 GLP5        0.0000 
     58 CA         15.3505    4.6640   38.6247 C.3       3 GLC5        0.0000 
     59 CA         15.7420    3.1300   39.1490 C.3       9 GLL5        0.0000 
     60 CA         15.5220    6.3210   37.6830 C.3       6 GLP5        0.0000 
     61 CA         13.7475    0.7300   41.0925 C.3       3 GLC5        0.0000 
     62 CA         12.3020    1.9500   40.1300 C.3       9 GLL5        0.0000 
     63 CA         11.6925    0.1375   41.1955 C.3       3 GLC5        0.0000 
     64 CA         11.0665    3.4680   40.7410 C.3       3 GLC5        0.0000 
     65 CA         16.3177    4.8837   38.0441 C.3       3 GLC5        0.0000 
     66 CA         16.8500    3.7280   39.7710 C.3       9 GLL5        0.0000 
     67 CA         17.1834    1.6013   39.3597 C.3       3 GLC5        0.0000 
     68 CA         17.6150    3.4150   37.5660 C.3       9 GLL5        0.0000 
     69 CA         17.6700   -0.0770   40.3490 C.3       6 GLP5        0.0000 
@<TRIPOS>BOND
@<TRIPOS>SUBSTRUCTURE
     1 ALC1       30 GROUP        1 X    ALC  0     ROOT ALC X 1
     2 SEC2       33 GROUP        1 X    SEC  0     **** SEC X 2
     3 GLC5        1 GROUP        1 X    GLC  0     **** GLC X 6
     4 ALP1       32 GROUP        1 Y    ALP  0     ROOT ALP Y 8
     5 SEP2       35 GROUP        1 Y    SEP  0     **** SEP Y 9
     6 GLP5        3 GROUP        1 Y    GLP  0     **** GLP Y 13
     7 ALL1       31 GROUP        1 Z    ALL  0     ROOT ALL Z 15
     8 SEL2       34 GROUP        1 Z    SEL  0     **** SEL Z 16
     9 GLL5        2 GROUP        1 Z    GLL  0     **** GLL Z 20
@<TRIPOS>SET

