#    Name: 4c61_LMM_1_ligand
#    Modification time : Tue Mar 25 09:01:37 2014

@<TRIPOS>MOLECULE
4c61_LMM_1_ligand
   44    47     1     0     0
SMALL
NO_CHARGES


@<TRIPOS>ATOM
      1 F28        10.6370    7.4690   43.5650 F         1 LMM2133     0.0000 
      2 C25        11.6050    6.5200   43.6400 C.ar      1 LMM2133     0.0000 
      3 C26        11.3470    5.2000   44.0990 C.ar      1 LMM2133     0.0000 
      4 N27        12.3470    4.3160   44.2220 N.ar      1 LMM2133     0.0000 
      5 C22        13.5630    4.7640   43.8730 C.ar      1 LMM2133     0.0000 
      6 N23        13.9020    5.9700   43.3940 N.ar      1 LMM2133     0.0000 
      7 C24        12.9050    6.8560   43.2790 C.ar      1 LMM2133     0.0000 
      8 C19        14.7600    3.7720   44.0640 C.3       1 LMM2133     0.0000 
      9 C21        15.3030    3.9670   45.4770 C.3       1 LMM2133     0.0000 
     10 N18        15.8400    4.0140   43.0940 N.pl3     1 LMM2133     0.0000 
     11 C8         15.7910    3.7760   41.7670 C.ar      1 LMM2133     0.0000 
     12 N7         16.8960    4.0740   41.0670 N.ar      1 LMM2133     0.0000 
     13 C6         16.8500    3.7280   39.7710 C.ar      1 LMM2133     0.0000 
     14 C2         17.9670    3.8670   38.8050 C.2       1 LMM2133     0.0000 
     15 C1         19.3600    4.3440   39.0980 C.3       1 LMM2133     0.0000 
     16 N9         14.6680    3.2120   41.2840 N.ar      1 LMM2133     0.0000 
     17 C10        14.6160    2.8840   39.9840 C.ar      1 LMM2133     0.0000 
     18 C5         15.7420    3.1300   39.1490 C.ar      1 LMM2133     0.0000 
     19 S4         16.0220    2.7760   37.4790 S.3       1 LMM2133     0.0000 
     20 C3         17.6150    3.4150   37.5660 C.2       1 LMM2133     0.0000 
     21 N11        13.4650    2.2720   39.4490 N.pl3     1 LMM2133     0.0000 
     22 C12        12.3020    1.9500   40.1300 C.2       1 LMM2133     0.0000 
     23 N16        11.2970    1.3210   39.4640 N.2       1 LMM2133     0.0000 
     24 C15        10.3140    1.1200   40.3110 C.2       1 LMM2133     0.0000 
     25 N14        10.6860    1.6190   41.5660 N.pl3     1 LMM2133     0.0000 
     26 C17         9.9000    1.6050   42.8030 C.3       1 LMM2133     0.0000 
     27 C13        11.9420    2.1320   41.4280 C.2       1 LMM2133     0.0000 
     28 H          10.3683    4.9545   44.3307 H         1 LMM2133     0.0000 
     29 H          13.0827    7.8181   42.9157 H         1 LMM2133     0.0000 
     30 H          14.3781    2.7754   43.9837 H         1 LMM2133     0.0000 
     31 H          16.7293    4.4175   43.5284 H         1 LMM2133     0.0000 
     32 H          18.0688    3.3794   36.7366 H         1 LMM2133     0.0000 
     33 H          13.5017    2.0332   38.4013 H         1 LMM2133     0.0000 
     34 H           9.4575    0.7025   40.1461 H         1 LMM2133     0.0000 
     35 H          12.4640    2.5388   42.1111 H         1 LMM2133     0.0000 
     36 H          16.0755    3.3604   45.6650 H         1 LMM2133     0.0000 
     37 H          15.6221    4.9029   45.6264 H         1 LMM2133     0.0000 
     38 H          14.6078    3.7801   46.1711 H         1 LMM2133     0.0000 
     39 H          19.8168    3.7644   39.7728 H         1 LMM2133     0.0000 
     40 H          19.9322    4.3458   38.2779 H         1 LMM2133     0.0000 
     41 H          19.3649    5.2759   39.4608 H         1 LMM2133     0.0000 
     42 H          10.3962    2.0245   43.5631 H         1 LMM2133     0.0000 
     43 H           9.0402    2.1056   42.7024 H         1 LMM2133     0.0000 
     44 H           9.6661    0.6742   43.0839 H         1 LMM2133     0.0000 
@<TRIPOS>BOND
     1    2    1 1    
     2    3    2 ar   
     3    7    2 ar   
     4    4    3 ar   
     5   28    3 1    
     6    5    4 ar   
     7    6    5 ar   
     8    8    5 1    
     9    7    6 ar   
    10   29    7 1    
    11    9    8 1    
    12   10    8 1    
    13   30    8 1    
    14   36    9 1    
    15   37    9 1    
    16   38    9 1    
    17   11   10 1    
    18   31   10 1    
    19   12   11 ar   
    20   16   11 ar   
    21   13   12 ar   
    22   14   13 1    
    23   18   13 ar   
    24   15   14 1    
    25   20   14 2    
    26   39   15 1    
    27   40   15 1    
    28   41   15 1    
    29   17   16 ar   
    30   18   17 ar   
    31   21   17 1    
    32   19   18 1    
    33   20   19 1    
    34   32   20 1    
    35   22   21 1    
    36   33   21 1    
    37   23   22 1    
    38   27   22 2    
    39   24   23 2    
    40   25   24 1    
    41   34   24 1    
    42   26   25 1    
    43   27   25 1    
    44   42   26 1    
    45   43   26 1    
    46   44   26 1    
    47   35   27 1    
@<TRIPOS>SUBSTRUCTURE
     1 LMM2133     1 GROUP   
@<TRIPOS>SET

