#    Name: 3gdp_FAD_1_INTS_M
#    Modification time : Tue Mar 25 07:36:20 2014

@<TRIPOS>MOLECULE
3gdp_FAD_1_INTS_M
  147     0     9     0     0
SMALL
NO_CHARGES


@<TRIPOS>ATOM
      1 N          75.3695   -5.2145  -30.7210 N.am      2 SEC2        0.0000 
      2 N          74.3060   -4.9530  -31.7790 N.am      8 SEL2        0.0000 
      3 N          76.4330   -5.4760  -29.6630 N.am      5 SEP2        0.0000 
      4 N          74.0210   -5.0560  -30.4205 N.am      2 SEC2        0.0000 
      5 N          73.7360   -5.1590  -29.0620 N.am      5 SEP2        0.0000 
      6 N          73.8635   -3.5665  -31.8065 N.am      2 SEC2        0.0000 
      7 N          73.4210   -2.1800  -31.8340 N.am      5 SEP2        0.0000 
      8 N          72.4710   -3.9805  -33.8525 N.am      2 SEC2        0.0000 
      9 N          73.5290   -4.9150  -34.0990 N.am      8 SEL2        0.0000 
     10 N          71.4130   -3.0460  -33.6060 N.am      5 SEP2        0.0000 
     11 CA         75.2420   -7.6160  -35.4840 C.3       3 GLC5        0.0000 
     12 CA         76.2100   -5.9410  -34.8270 C.3       9 GLL5        0.0000 
     13 CA         74.2740   -9.2910  -36.1410 C.3       6 GLP5        0.0000 
     14 CA         79.2060   -5.4930  -35.3135 C.3       3 GLC5        0.0000 
     15 CA         77.2800   -4.9050  -35.1200 C.3       9 GLL5        0.0000 
     16 CA         81.1320   -6.0810  -35.5070 C.3       6 GLP5        0.0000 
     17 CA         77.3945   -4.0370  -33.3315 C.3       3 GLC5        0.0000 
     18 CA         76.7780   -3.4390  -35.4000 C.3       9 GLL5        0.0000 
     19 CA         78.0110   -4.6350  -31.2630 C.3       6 GLP5        0.0000 
     20 CA         76.2880   -2.6405  -33.6890 C.3       3 GLC5        0.0000 
     21 CA         75.7980   -1.8420  -31.9780 C.3       6 GLP5        0.0000 
     22 O          78.7840   -2.4035  -34.8625 O.2       1 ALC1        0.0000 
     23 O          77.4290   -2.5010  -34.5940 O.2       7 ALL1        0.0000 
     24 O          80.1390   -2.3060  -35.1310 O.2       4 ALP1        0.0000 
     25 O          78.4255   -1.5890  -35.5090 O.2       1 ALC1        0.0000 
     26 O          79.4220   -0.6770  -36.4240 O.2       4 ALP1        0.0000 
     27 N          77.0515   -1.8415  -38.7240 N.am      2 SEC2        0.0000 
     28 N          77.2070   -1.9290  -37.3130 N.am      8 SEL2        0.0000 
     29 N          76.8960   -1.7540  -40.1350 N.am      5 SEP2        0.0000 
     30 O          78.3145   -1.3030  -36.8685 O.2       1 ALC1        0.0000 
     31 O          77.2070   -1.9290  -37.3130 O.2       7 ALL1        0.0000 
     32 CA         79.6815   -5.0935  -36.3360 C.3       3 GLC5        0.0000 
     33 CA         78.2310   -4.1060  -37.1650 C.3       9 GLL5        0.0000 
     34 CA         81.5900   -6.9420  -40.2725 C.3       3 GLC5        0.0000 
     35 CA         80.4570   -5.4500  -41.3860 C.3       9 GLL5        0.0000 
     36 CA         82.7230   -8.4340  -39.1590 C.3       6 GLP5        0.0000 
     37 CA         82.4160   -6.1320  -41.6760 C.3       3 GLC5        0.0000 
     38 CA         84.3750   -6.8140  -41.9660 C.3       6 GLP5        0.0000 
     39 O          81.4475   -6.3645  -43.4420 O.2       1 ALC1        0.0000 
     40 O          80.3320   -6.0390  -42.5440 O.2       7 ALL1        0.0000 
     41 O          82.5630   -6.6900  -44.3400 O.2       4 ALP1        0.0000 
     42 O          79.2745   -7.0145  -42.9010 O.2       1 ALC1        0.0000 
     43 O          78.2170   -7.9900  -43.2580 O.2       4 ALP1        0.0000 
     44 N          82.8380   -4.7480  -41.9495 N.am      2 SEC2        0.0000 
     45 N          81.6750   -4.9280  -40.9660 N.am      8 SEL2        0.0000 
     46 N          84.0010   -4.5680  -42.9330 N.am      5 SEP2        0.0000 
     47 CA         82.2795   -6.3685  -39.4530 C.3       3 GLC5        0.0000 
     48 CA         81.8360   -4.3030  -39.7470 C.3       9 GLL5        0.0000 
     49 CA         82.4645   -3.0850  -38.1515 C.3       3 GLC5        0.0000 
     50 CA         83.0930   -1.8670  -36.5560 C.3       6 GLP5        0.0000 
     51 CA         81.2050   -2.6255  -40.1710 C.3       3 GLC5        0.0000 
     52 CA         80.5740   -0.9480  -40.5950 C.3       6 GLP5        0.0000 
     53 CA         83.4785   -5.2540  -40.2625 C.3       3 GLC5        0.0000 
     54 CA         85.1210   -6.2050  -40.7780 C.3       6 GLP5        0.0000 
     55 N          81.3775   -2.6320  -38.6695 N.am      2 SEC2        0.0000 
     56 N          80.8700   -4.1280  -38.8050 N.am      8 SEL2        0.0000 
     57 N          81.8850   -1.1360  -38.5340 N.am      5 SEP2        0.0000 
     58 CA         80.3870   -5.3610  -37.3510 C.3       3 GLC5        0.0000 
     59 CA         79.6420   -4.6410  -39.1950 C.3       9 GLL5        0.0000 
     60 CA         79.4410   -2.8990  -39.5510 C.3       3 GLC5        0.0000 
     61 CA         79.2400   -1.1570  -39.9070 C.3       6 GLP5        0.0000 
     62 N          66.8065   -6.6415  -23.6180 N.am      2 SEC2        0.0000 
     63 N          66.5160   -5.9880  -24.8510 N.am      8 SEL2        0.0000 
     64 N          67.0970   -7.2950  -22.3850 N.am      5 SEP2        0.0000 
     65 N          67.4435   -6.9865  -25.1410 N.am      2 SEC2        0.0000 
     66 N          68.3710   -7.9850  -25.4310 N.am      5 SEP2        0.0000 
     67 O          66.0145   -4.0250  -23.6505 O.2       1 ALC1        0.0000 
     68 O          65.7090   -3.9010  -25.0020 O.2       7 ALL1        0.0000 
     69 O          66.3200   -4.1490  -22.2990 O.2       4 ALP1        0.0000 
     70 N          65.0125   -1.6690  -23.8250 N.am      2 SEC2        0.0000 
     71 N          64.6190   -1.9410  -25.2180 N.am      8 SEL2        0.0000 
     72 N          65.4060   -1.3970  -22.4320 N.am      5 SEP2        0.0000 
     73 N          65.1370   -0.6670  -27.4945 N.am      2 SEC2        0.0000 
     74 N          64.7040   -2.0510  -28.0490 N.am      8 SEL2        0.0000 
     75 N          65.5700    0.7170  -26.9400 N.am      5 SEP2        0.0000 
     76 CA         64.6375    1.9435  -30.7655 C.3       3 GLC5        0.0000 
     77 CA         64.8780    0.4290  -32.3160 C.3       9 GLL5        0.0000 
     78 CA         64.3970    3.4580  -29.2150 C.3       6 GLP5        0.0000 
     79 CA         64.8780    2.2390  -33.3400 C.3       3 GLC5        0.0000 
     80 CA         64.8780    4.0490  -34.3640 C.3       6 GLP5        0.0000 
     81 CA         65.2345    0.4625  -34.2580 C.3       3 GLC5        0.0000 
     82 CA         65.5910    0.4960  -36.2000 C.3       6 GLP5        0.0000 
     83 CA         63.2810   -0.5000  -32.5720 C.3       3 GLC5        0.0000 
     84 CA         61.6840   -1.4290  -32.8280 C.3       6 GLP5        0.0000 
     85 CA         66.0710   -0.6740  -34.8550 C.3       3 GLC5        0.0000 
     86 CA         66.5510   -1.8440  -33.5100 C.3       9 GLL5        0.0000 
     87 CA         68.0205   -0.2240  -33.6585 C.3       3 GLC5        0.0000 
     88 CA         69.4900    1.3960  -33.8070 C.3       6 GLP5        0.0000 
     89 CA         65.1410   -5.8010  -29.6825 C.3       3 GLC5        0.0000 
     90 CA         66.8620   -5.4600  -29.6640 C.3       9 GLL5        0.0000 
     91 CA         63.4200   -6.1420  -29.7010 C.3       6 GLP5        0.0000 
     92 CA         69.0645   -5.7425  -27.2385 C.3       3 GLC5        0.0000 
     93 CA         68.3720   -5.5450  -29.2860 C.3       9 GLL5        0.0000 
     94 CA         69.7570   -5.9400  -25.1910 C.3       6 GLP5        0.0000 
     95 N          69.0690   -3.1500  -27.9705 N.am      2 SEC2        0.0000 
     96 N          68.8900   -4.2060  -29.1850 N.am      8 SEL2        0.0000 
     97 N          69.2480   -2.0940  -26.7560 N.am      5 SEP2        0.0000 
     98 O          67.8120   -7.5505  -31.7510 O.2       1 ALC1        0.0000 
     99 O          68.4520   -7.6110  -30.4800 O.2       7 ALL1        0.0000 
    100 O          67.1720   -7.4900  -33.0220 O.2       4 ALP1        0.0000 
    101 CA         70.8375   -4.7035  -31.1220 C.3       3 GLC5        0.0000 
    102 CA         70.5700   -6.5310  -30.0300 C.3       9 GLL5        0.0000 
    103 CA         71.1050   -2.8760  -32.2140 C.3       6 GLP5        0.0000 
    104 O          72.4775   -5.2170  -29.4250 O.2       1 ALC1        0.0000 
    105 O          71.2190   -5.2750  -29.7880 O.2       7 ALL1        0.0000 
    106 O          73.7360   -5.1590  -29.0620 O.2       4 ALP1        0.0000 
    107 N          75.9490   -8.1925  -29.9475 N.am      2 SEC2        0.0000 
    108 N          75.0280   -8.1880  -31.1930 N.am      8 SEL2        0.0000 
    109 N          76.8700   -8.1970  -28.7020 N.am      5 SEP2        0.0000 
    110 N          73.1210  -10.7455  -32.3350 N.am      2 SEC2        0.0000 
    111 N          73.2180   -9.3170  -32.4770 N.am      8 SEL2        0.0000 
    112 N          73.0240  -12.1740  -32.1930 N.am      5 SEP2        0.0000 
    113 CA         77.3780   -5.0290  -33.1183 C.3       3 GLC5        0.0000 
    114 CA         77.3025   -7.0295  -36.0902 C.3       3 GLC5        0.0000 
    115 CA         77.8600   -8.6360  -37.2070 C.3       6 GLP5        0.0000 
    116 CA         78.4300   -2.4238  -38.4795 C.3       3 GLC5        0.0000 
    117 CA         79.0393   -3.5503  -40.8695 C.3       3 GLC5        0.0000 
    118 CA         79.3460   -5.3090  -40.4240 C.3       9 GLL5        0.0000 
    119 CA         78.1770   -1.7210  -40.8340 C.3       6 GLP5        0.0000 
    120 CA         78.9120   -6.8915  -39.2278 C.3       3 GLC5        0.0000 
    121 CA         78.3300   -8.8080  -38.6460 C.3       6 GLP5        0.0000 
    122 CA         66.6185   -1.6845  -28.8910 C.3       3 GLC5        0.0000 
    123 CA         65.8790   -3.1340  -29.9730 C.3       9 GLL5        0.0000 
    124 CA         67.7490   -0.7720  -28.1060 C.3       6 GLP5        0.0000 
    125 CA         64.4540   -4.3695  -29.6885 C.3       3 GLC5        0.0000 
    126 CA         65.0970   -2.0600  -29.3790 C.3       9 GLL5        0.0000 
    127 CA         66.2242   -0.0843  -29.6560 C.3       3 GLC5        0.0000 
    128 CA         64.7620   -0.9180  -30.1850 C.3       9 GLL5        0.0000 
    129 CA         67.4590    0.6940  -28.4670 C.3       6 GLP5        0.0000 
    130 CA         64.1157   -2.1742  -32.0450 C.3       3 GLC5        0.0000 
    131 CA         63.2420   -3.4860  -33.2450 C.3       6 GLP5        0.0000 
    132 CA         67.9665   -2.1745  -32.4453 C.3       3 GLC5        0.0000 
    133 CA         66.0150   -1.8980  -32.1010 C.3       9 GLL5        0.0000 
    134 CA         69.6500   -2.4780  -32.0850 C.3       6 GLP5        0.0000 
    135 CA         66.9528   -1.6245  -29.9108 C.3       3 GLC5        0.0000 
    136 CA         64.7625   -2.6785  -33.0252 C.3       3 GLC5        0.0000 
    137 CA         67.8692   -2.7865  -31.3682 C.3       3 GLC5        0.0000 
    138 CA         66.2980   -3.0560  -31.3300 C.3       9 GLL5        0.0000 
    139 CA         64.6653   -3.2905  -31.9482 C.3       3 GLC5        0.0000 
    140 CA         66.9040   -7.3163  -28.7150 C.3       3 GLC5        0.0000 
    141 CA         66.1910   -9.1300  -27.9550 C.3       6 GLP5        0.0000 
    142 CA         69.1893   -4.2077  -30.9603 C.3       3 GLC5        0.0000 
    143 CA         72.6580   -6.6043  -29.5663 C.3       3 GLC5        0.0000 
    144 CA         74.4220   -6.3030  -28.5300 C.3       6 GLP5        0.0000 
    145 CA         70.4709   -8.5231  -29.7526 C.3       3 GLC5        0.0000 
    146 CA         71.2180   -7.2800  -31.1750 C.3       9 GLL5        0.0000 
    147 CA         70.4190  -10.1910  -28.8140 C.3       6 GLP5        0.0000 
@<TRIPOS>BOND
@<TRIPOS>SUBSTRUCTURE
     1 ALC1       22 GROUP        1 X    ALC  0     ROOT ALC X 1
     2 SEC2        1 GROUP        1 X    SEC  0     **** SEC X 2
     3 GLC5       11 GROUP        1 X    GLC  0     **** GLC X 6
     4 ALP1       24 GROUP        1 Y    ALP  0     ROOT ALP Y 8
     5 SEP2        3 GROUP        1 Y    SEP  0     **** SEP Y 9
     6 GLP5       13 GROUP        1 Y    GLP  0     **** GLP Y 13
     7 ALL1       23 GROUP        1 Z    ALL  0     ROOT ALL Z 15
     8 SEL2        2 GROUP        1 Z    SEL  0     **** SEL Z 16
     9 GLL5       12 GROUP        1 Z    GLL  0     **** GLL Z 20
@<TRIPOS>SET

