#    Name: 3gdp_FAD_1_ligand
#    Modification time : Tue Mar 25 07:36:20 2014

@<TRIPOS>MOLECULE
3gdp_FAD_1_ligand
   84    89     1     0     0
SMALL
NO_CHARGES


@<TRIPOS>ATOM
      1 PA         74.1940   -5.6010  -33.1160 P.3       1 FAD523      0.0000 
      2 O1A        74.3060   -4.9530  -31.7790 O.co2     1 FAD523      0.0000 
      3 O2A        73.5290   -4.9150  -34.0990 O.co2     1 FAD523      0.0000 
      4 O5B        75.6540   -5.6020  -33.5120 O.3       1 FAD523      0.0000 
      5 C5B        76.2100   -5.9410  -34.8270 C.3       1 FAD523      0.0000 
      6 C4B        77.2800   -4.9050  -35.1200 C.3       1 FAD523      0.0000 
      7 O4B        77.9820   -5.3160  -36.3760 O.3       1 FAD523      0.0000 
      8 C3B        76.7780   -3.4390  -35.4000 C.3       1 FAD523      0.0000 
      9 O3B        77.4290   -2.5010  -34.5940 O.3       1 FAD523      0.0000 
     10 C2B        77.0090   -3.2750  -36.9390 C.3       1 FAD523      0.0000 
     11 O2B        77.2070   -1.9290  -37.3130 O.3       1 FAD523      0.0000 
     12 C1B        78.2310   -4.1060  -37.1650 C.3       1 FAD523      0.0000 
     13 N9A        78.4400   -4.6550  -38.5090 N.pl3     1 FAD523      0.0000 
     14 C8A        77.5110   -5.2840  -39.3230 C.2       1 FAD523      0.0000 
     15 N7A        78.0270   -5.6840  -40.4870 N.2       1 FAD523      0.0000 
     16 C5A        79.3460   -5.3090  -40.4240 C.ar      1 FAD523      0.0000 
     17 C6A        80.4570   -5.4500  -41.3860 C.ar      1 FAD523      0.0000 
     18 N6A        80.3320   -6.0390  -42.5440 N.pl3     1 FAD523      0.0000 
     19 N1A        81.6750   -4.9280  -40.9660 N.ar      1 FAD523      0.0000 
     20 C2A        81.8360   -4.3030  -39.7470 C.ar      1 FAD523      0.0000 
     21 N3A        80.8700   -4.1280  -38.8050 N.ar      1 FAD523      0.0000 
     22 C4A        79.6420   -4.6410  -39.1950 C.ar      1 FAD523      0.0000 
     23 N1         66.4070   -5.1790  -26.9180 N.2       1 FAD523      0.0000 
     24 C2         66.2390   -5.0870  -25.6000 C.2       1 FAD523      0.0000 
     25 O2         66.5160   -5.9880  -24.8510 O.2       1 FAD523      0.0000 
     26 N3         65.7090   -3.9010  -25.0020 N.am      1 FAD523      0.0000 
     27 C4         65.1500   -2.8760  -25.7690 C.2       1 FAD523      0.0000 
     28 O4         64.6190   -1.9410  -25.2180 O.2       1 FAD523      0.0000 
     29 C4X        65.2520   -3.0030  -27.2210 C.2       1 FAD523      0.0000 
     30 N5         64.7040   -2.0510  -28.0490 N.2       1 FAD523      0.0000 
     31 C5X        65.0970   -2.0600  -29.3790 C.ar      1 FAD523      0.0000 
     32 C6         64.7620   -0.9180  -30.1850 C.ar      1 FAD523      0.0000 
     33 C7         65.2170   -0.8070  -31.5050 C.ar      1 FAD523      0.0000 
     34 C7M        64.8780    0.4290  -32.3160 C.3       1 FAD523      0.0000 
     35 C8         66.0150   -1.8980  -32.1010 C.ar      1 FAD523      0.0000 
     36 C8M        66.5510   -1.8440  -33.5100 C.3       1 FAD523      0.0000 
     37 C9         66.2980   -3.0560  -31.3300 C.ar      1 FAD523      0.0000 
     38 C9A        65.8790   -3.1340  -29.9730 C.ar      1 FAD523      0.0000 
     39 N10        66.2170   -4.2480  -29.0850 N.pl3     1 FAD523      0.0000 
     40 C10        65.9740   -4.1790  -27.7500 C.2       1 FAD523      0.0000 
     41 C1'        66.8620   -5.4600  -29.6640 C.3       1 FAD523      0.0000 
     42 C2'        68.3720   -5.5450  -29.2860 C.3       1 FAD523      0.0000 
     43 O2'        68.8900   -4.2060  -29.1850 O.3       1 FAD523      0.0000 
     44 C3'        69.0850   -6.3300  -30.3850 C.3       1 FAD523      0.0000 
     45 O3'        68.4520   -7.6110  -30.4800 O.3       1 FAD523      0.0000 
     46 C4'        70.5700   -6.5310  -30.0300 C.3       1 FAD523      0.0000 
     47 O4'        71.2190   -5.2750  -29.7880 O.3       1 FAD523      0.0000 
     48 C5'        71.2180   -7.2800  -31.1750 C.3       1 FAD523      0.0000 
     49 O5'        72.6960   -7.6140  -30.8110 O.3       1 FAD523      0.0000 
     50 P          73.6690   -8.1400  -31.8650 P.3       1 FAD523      0.0000 
     51 O1P        75.0280   -8.1880  -31.1930 O.co2     1 FAD523      0.0000 
     52 O2P        73.2180   -9.3170  -32.4770 O.co2     1 FAD523      0.0000 
     53 O3P        73.7180   -7.1670  -32.9770 O.3       1 FAD523      0.0000 
     54 H          75.4520   -5.8875  -35.5926 H         1 FAD523      0.0000 
     55 H          76.6642   -6.9193  -34.8141 H         1 FAD523      0.0000 
     56 H          78.0009   -4.8664  -34.3306 H         1 FAD523      0.0000 
     57 H          75.7010   -3.4783  -35.2592 H         1 FAD523      0.0000 
     58 H          76.1830   -3.7505  -37.4206 H         1 FAD523      0.0000 
     59 H          79.0947   -3.6365  -36.7895 H         1 FAD523      0.0000 
     60 H          76.5684   -5.4103  -39.0449 H         1 FAD523      0.0000 
     61 H          79.4161   -6.3682  -42.7736 H         1 FAD523      0.0000 
     62 H          81.1636   -6.1070  -43.0951 H         1 FAD523      0.0000 
     63 H          82.8188   -3.9211  -39.5276 H         1 FAD523      0.0000 
     64 H          65.7472   -3.8132  -23.9727 H         1 FAD523      0.0000 
     65 H          64.1793   -0.1807  -29.7722 H         1 FAD523      0.0000 
     66 H          66.8039   -3.8360  -31.7499 H         1 FAD523      0.0000 
     67 H          66.7902   -5.4494  -30.7551 H         1 FAD523      0.0000 
     68 H          66.3737   -6.3672  -29.2977 H         1 FAD523      0.0000 
     69 H          68.4440   -6.0789  -28.3687 H         1 FAD523      0.0000 
     70 H          69.0172   -5.7886  -31.2980 H         1 FAD523      0.0000 
     71 H          70.6028   -7.1700  -29.1529 H         1 FAD523      0.0000 
     72 H          71.2155   -6.6707  -32.0690 H         1 FAD523      0.0000 
     73 H          70.6932   -8.2080  -31.3590 H         1 FAD523      0.0000 
     74 H          65.2368    1.2609  -31.8927 H         1 FAD523      0.0000 
     75 H          65.2581    0.3828  -33.2398 H         1 FAD523      0.0000 
     76 H          63.8901    0.5512  -32.4113 H         1 FAD523      0.0000 
     77 H          67.1658   -1.0668  -33.6439 H         1 FAD523      0.0000 
     78 H          67.0661   -2.6688  -33.7433 H         1 FAD523      0.0000 
     79 H          65.8170   -1.7565  -34.1835 H         1 FAD523      0.0000 
     80 H          78.3819   -2.5167  -34.8968 H         1 FAD523      0.0000 
     81 H          78.0481   -1.6524  -36.8482 H         1 FAD523      0.0000 
     82 H          69.8608   -4.2864  -29.4112 H         1 FAD523      0.0000 
     83 H          68.0137   -7.6169  -31.3788 H         1 FAD523      0.0000 
     84 H          72.1493   -5.5139  -29.5097 H         1 FAD523      0.0000 
@<TRIPOS>BOND
     1    2    1 ar   
     2    3    1 ar   
     3    4    1 1    
     4   53    1 1    
     5    5    4 1    
     6    6    5 1    
     7   54    5 1    
     8   55    5 1    
     9    7    6 1    
    10    8    6 1    
    11   56    6 1    
    12   12    7 1    
    13    9    8 1    
    14   10    8 1    
    15   57    8 1    
    16   80    9 1    
    17   11   10 1    
    18   12   10 1    
    19   58   10 1    
    20   81   11 1    
    21   13   12 1    
    22   59   12 1    
    23   14   13 1    
    24   22   13 1    
    25   15   14 2    
    26   60   14 1    
    27   16   15 1    
    28   17   16 ar   
    29   22   16 ar   
    30   18   17 1    
    31   19   17 ar   
    32   61   18 1    
    33   62   18 1    
    34   20   19 ar   
    35   21   20 ar   
    36   63   20 1    
    37   22   21 ar   
    38   24   23 1    
    39   40   23 2    
    40   25   24 2    
    41   26   24 am   
    42   27   26 am   
    43   64   26 1    
    44   28   27 2    
    45   29   27 1    
    46   30   29 2    
    47   40   29 1    
    48   31   30 1    
    49   32   31 ar   
    50   38   31 ar   
    51   33   32 ar   
    52   65   32 1    
    53   34   33 1    
    54   35   33 ar   
    55   74   34 1    
    56   75   34 1    
    57   76   34 1    
    58   36   35 1    
    59   37   35 ar   
    60   77   36 1    
    61   78   36 1    
    62   79   36 1    
    63   38   37 ar   
    64   66   37 1    
    65   39   38 1    
    66   40   39 1    
    67   41   39 1    
    68   42   41 1    
    69   67   41 1    
    70   68   41 1    
    71   43   42 1    
    72   44   42 1    
    73   69   42 1    
    74   82   43 1    
    75   45   44 1    
    76   46   44 1    
    77   70   44 1    
    78   83   45 1    
    79   47   46 1    
    80   48   46 1    
    81   71   46 1    
    82   84   47 1    
    83   49   48 1    
    84   72   48 1    
    85   73   48 1    
    86   50   49 1    
    87   51   50 ar   
    88   52   50 ar   
    89   53   50 1    
@<TRIPOS>SUBSTRUCTURE
     1 FAD523      1 GROUP   
@<TRIPOS>SET

