#    Name: 2OW2_1_CAVITY_N1_6.mol2
#    Modification time : Tue Mar 11 03:59:57 2014

@<TRIPOS>MOLECULE
2OW2_1_CAVITY_N1_6.mol2
   73     0     6     0     0
SMALL
NO_CHARGES


@<TRIPOS>ATOM
      1 O          23.5516    9.4637   53.2505 O.2       2 ALA2        0.0000 
      2 CA         27.0710   12.7492   50.3663 C.3       5 GLY6        0.0000 
      3 O          26.9210   11.9762   51.6430 O.2       2 ALA2        0.0000 
      4 CA         26.2553   12.5941   48.4142 C.3       5 GLY6        0.0000 
      5 DU         26.1053   11.8212   49.6909 H         6 CUB7        0.0000 
      6 DU         25.9553   11.0482   50.9676 H         6 CUB7        0.0000 
      7 CA         25.8053   10.2752   52.2443 C.3       5 GLY6        0.0000 
      8 N          25.1396   10.8931   49.0156 N.2       2 ALA2        0.0000 
      9 N          24.9896   10.1201   50.2923 N.2       2 ALA2        0.0000 
     10 N          24.8395    9.3472   51.5690 N.2       2 ALA2        0.0000 
     11 O          24.6895    8.5742   52.8457 O.2       2 ALA2        0.0000 
     12 N          24.3238   10.7381   47.0635 N.2       2 ALA2        0.0000 
     13 N          24.1738    9.9651   48.3402 N.2       2 ALA2        0.0000 
     14 N          28.2090   11.8597   49.9614 N.2       2 ALA2        0.0000 
     15 O          28.0589   11.0867   51.2381 O.2       2 ALA2        0.0000 
     16 N          27.3932   11.7046   48.0093 N.2       2 ALA2        0.0000 
     17 N          27.2432   10.9317   49.2861 N.2       2 ALA2        0.0000 
     18 N          27.0932   10.1587   50.5628 N.2       2 ALA2        0.0000 
     19 CA         26.9432    9.3857   51.8395 C.3       5 GLY6        0.0000 
     20 OD1        26.4275   10.7766   47.3340 O.3       3 ASP3        0.0000 
     21 OD1        26.2775   10.0036   48.6107 O.3       3 ASP3        0.0000 
     22 N          26.1275    9.2306   49.8874 N.2       2 ALA2        0.0000 
     23 N          25.9775    8.4577   51.1641 N.2       2 ALA2        0.0000 
     24 CA         25.8275    7.6847   52.4409 C.3       5 GLY6        0.0000 
     25 OD1        25.1617    8.3026   49.2121 O.3       3 ASP3        0.0000 
     26 N          25.0117    7.5296   50.4888 N.2       2 ALA2        0.0000 
     27 O          24.8617    6.7566   51.7655 O.2       2 ALA2        0.0000 
     28 N          22.4802    2.5816   54.2449 N.2       2 ALA2        0.0000 
     29 N          21.6645    2.4265   52.2929 N.2       2 ALA2        0.0000 
     30 N          21.5145    1.6536   53.5696 N.2       2 ALA2        0.0000 
     31 N          28.2311    9.2692   50.1579 N.2       2 ALA2        0.0000 
     32 CA         28.0811    8.4962   51.4346 C.3       5 GLY6        0.0000 
     33 CA         27.9311    7.7232   52.7114 C.3       5 GLY6        0.0000 
     34 OD1        27.4154    9.1141   48.2059 O.3       3 ASP3        0.0000 
     35 N          27.2654    8.3411   49.4826 N.2       2 ALA2        0.0000 
     36 N          27.1154    7.5681   50.7593 N.2       2 ALA2        0.0000 
     37 CA         26.9654    6.7952   52.0360 C.3       5 GLY6        0.0000 
     38 CZ         26.8154    6.0222   53.3127 C.ar      4 PHE5        0.0000 
     39 CA         26.1496    6.6401   50.0839 C.3       5 GLY6        0.0000 
     40 CA         25.9996    5.8671   51.3607 C.3       5 GLY6        0.0000 
     41 CZ         25.8496    5.0941   52.6374 C.ar      4 PHE5        0.0000 
     42 O          25.0339    4.9391   50.6853 O.2       2 ALA2        0.0000 
     43 CA         24.8839    4.1661   51.9620 C.3       5 GLY6        0.0000 
     44 CA         24.7339    3.3931   53.2387 C.3       5 GLY6        0.0000 
     45 N          24.5839    2.6201   54.5154 N.2       2 ALA2        0.0000 
     46 N          23.9182    3.2381   51.2867 N.2       2 ALA2        0.0000 
     47 N          23.7681    2.4651   52.5634 N.2       2 ALA2        0.0000 
     48 N          23.6181    1.6921   53.8401 N.2       2 ALA2        0.0000 
     49 N          22.8024    1.5370   51.8880 N.2       2 ALA2        0.0000 
     50 N          22.6524    0.7640   53.1647 N.2       2 ALA2        0.0000 
     51 N          22.5024   -0.0089   54.4415 N.2       2 ALA2        0.0000 
     52 N          24.6452   13.7553   52.4527 N.2       2 ALA2        0.0000 
     53 N          24.4952   12.9823   53.7294 N.2       2 ALA2        0.0000 
     54 DU         23.5294   12.0542   53.0540 H         6 CUB7        0.0000 
     55 N          25.7831   12.8658   52.0478 N.2       2 ALA2        0.0000 
     56 N          25.6331   12.0928   53.3245 N.2       2 ALA2        0.0000 
     57 N          24.8174   11.9377   51.3725 N.2       2 ALA2        0.0000 
     58 N          24.6674   11.1647   52.6492 N.2       2 ALA2        0.0000 
     59 CA         24.5173   10.3918   53.9259 C.3       5 GLY6        0.0000 
     60 N          28.2533    6.6786   50.3544 N.2       2 ALA2        0.0000 
     61 CA         27.1376    4.9776   50.9558 C.3       5 GLY6        0.0000 
     62 CA         26.9875    4.2046   52.2325 C.3       5 GLY6        0.0000 
     63 CA         26.0218    3.2766   51.5572 C.3       5 GLY6        0.0000 
     64 CA         25.8718    2.5036   52.8339 C.3       5 GLY6        0.0000 
     65 CA         25.7218    1.7306   54.1106 C.3       5 GLY6        0.0000 
     66 CA         24.9061    1.5756   52.1585 C.3       5 GLY6        0.0000 
     67 CA         24.7561    0.8026   53.4352 C.3       5 GLY6        0.0000 
     68 N          24.6060    0.0296   54.7120 N.2       2 ALA2        0.0000 
     69 CA         23.9403    0.6475   51.4832 C.3       5 GLY6        0.0000 
     70 CA         23.7903   -0.1255   52.7599 C.3       5 GLY6        0.0000 
     71 OG         23.6403   -0.8984   54.0366 O.2       1 SER1        0.0000 
     72 CA         25.8940   -0.0869   53.0304 C.3       5 GLY6        0.0000 
     73 CA         25.7440   -0.8599   54.3071 C.3       5 GLY6        0.0000 
@<TRIPOS>BOND
@<TRIPOS>SUBSTRUCTURE
     1 SER1       71 GROUP   
     2 ALA2        1 GROUP   
     3 ASP3       20 GROUP   
     4 PHE5       38 GROUP   
     5 GLY6        2 GROUP   
     6 CUB7        5 GROUP   
@<TRIPOS>SET

