#    Name: 2ow2_8MR_1_INTS_M
#    Modification time : Mon Mar 24 17:54:25 2014

@<TRIPOS>MOLECULE
2ow2_8MR_1_INTS_M
   35     0     9     0     0
SMALL
NO_CHARGES


@<TRIPOS>ATOM
      1 CA         26.8555    3.9205   50.6245 C.3       3 GLC5        0.0000 
      2 CA         25.7750    4.4590   52.5070 C.3       9 GLL5        0.0000 
      3 CA         27.9360    3.3820   48.7420 C.3       6 GLP5        0.0000 
      4 CA         26.0390    4.7805   54.1435 C.3       3 GLC5        0.0000 
      5 CA         26.3030    5.1020   55.7800 C.3       6 GLP5        0.0000 
      6 CA         26.6715    5.2395   49.6185 C.3       3 GLC5        0.0000 
      7 CA         26.4000    6.1580   51.1150 C.3       9 GLL5        0.0000 
      8 CA         26.9430    4.3210   48.1220 C.3       6 GLP5        0.0000 
      9 CA         27.3090    6.2085   49.5095 C.3       3 GLC5        0.0000 
     10 CA         27.5090    6.8990   51.5110 C.3       9 GLL5        0.0000 
     11 CA         27.1090    5.5180   47.5080 C.3       6 GLP5        0.0000 
     12 N          28.6170   11.9875   51.5045 N.am      1 SEC2        0.0000 
     13 N          27.8570   11.1390   50.2960 N.am      7 SEL2        0.0000 
     14 N          29.3770   12.8360   52.7130 N.am      4 SEP2        0.0000 
     15 N          29.4770   11.2655   50.6975 N.am      1 SEC2        0.0000 
     16 N          31.0970   11.3920   51.0990 N.am      4 SEP2        0.0000 
     17 CA         27.8350   12.7450   48.5760 C.3       3 GLC5        0.0000 
     18 CA         26.3570   11.2690   47.7740 C.3       9 GLL5        0.0000 
     19 CA         29.3130   14.2210   49.3780 C.3       6 GLP5        0.0000 
     20 Zn         26.2170    8.4490   46.7815 Zn        2 ZIC7        0.0000 
     21 Zn         26.5280    8.9210   47.4660 Zn        8 ZIL7        0.0000 
     22 Zn         25.9060    7.9770   46.0970 Zn        5 ZIP7        0.0000 
     23 N          28.0585    8.3325   47.1705 N.am      1 SEC2        0.0000 
     24 N          26.5280    8.9210   47.4660 N.am      7 SEL2        0.0000 
     25 N          29.5890    7.7440   46.8750 N.am      4 SEP2        0.0000 
     26 CA         29.2760    6.9035   51.8242 C.3       3 GLC5        0.0000 
     27 CA         27.5270    8.2790   51.3340 C.3       9 GLL5        0.0000 
     28 CA         31.0340    6.2180   52.2260 C.3       6 GLP5        0.0000 
     29 CA         26.2127    6.5038   48.9817 C.3       3 GLC5        0.0000 
     30 CA         25.3070    6.8000   50.5450 C.3       9 GLL5        0.0000 
     31 CA         23.4367    7.6342   49.4503 C.3       3 GLC5        0.0000 
     32 CA         21.5570    7.7790   48.4450 C.3       6 GLP5        0.0000 
     33 CA         27.3537    8.8350   52.9924 C.3       3 GLC5        0.0000 
     34 CA         26.4350    8.9210   50.7570 C.3       9 GLL5        0.0000 
     35 CA         27.7310    9.4150   54.8950 C.3       6 GLP5        0.0000 
@<TRIPOS>BOND
@<TRIPOS>SUBSTRUCTURE
     1 SEC2       12 GROUP        1 X    SEC  0     ROOT SEC X 2
     2 ZIC7       20 GROUP        1 X    ZIC  0     **** ZIC X 5
     3 GLC5        1 GROUP        1 X    GLC  0     **** GLC X 6
     4 SEP2       14 GROUP        1 Y    SEP  0     ROOT SEP Y 9
     5 ZIP7       22 GROUP        1 Y    ZIP  0     **** ZIP Y 12
     6 GLP5        3 GROUP        1 Y    GLP  0     **** GLP Y 13
     7 SEL2       13 GROUP        1 Z    SEL  0     ROOT SEL Z 16
     8 ZIL7       21 GROUP        1 Z    ZIL  0     **** ZIL Z 19
     9 GLL5        2 GROUP        1 Z    GLL  0     **** GLL Z 20
@<TRIPOS>SET

