#    Name: 2ow2_8MR_1_ligand
#    Modification time : Mon Mar 24 17:54:25 2014

@<TRIPOS>MOLECULE
2ow2_8MR_1_ligand
   30    30     1     0     0
SMALL
NO_CHARGES


@<TRIPOS>ATOM
      1 CAI        25.7750    4.4590   52.5070 C.3       1 8MR501      0.0000 
      2 OAH        26.3920    4.8050   51.2640 O.3       1 8MR501      0.0000 
      3 CAG        26.4000    6.1580   51.1150 C.ar      1 8MR501      0.0000 
      4 CAQ        27.5090    6.8990   51.5110 C.ar      1 8MR501      0.0000 
      5 CAP        27.5270    8.2790   51.3340 C.ar      1 8MR501      0.0000 
      6 CAF        25.3070    6.8000   50.5450 C.ar      1 8MR501      0.0000 
      7 CAE        25.3260    8.1790   50.3660 C.ar      1 8MR501      0.0000 
      8 CAO        26.4350    8.9210   50.7570 C.ar      1 8MR501      0.0000 
      9 SAN        26.4490   10.6540   50.4910 S.o2      1 8MR501      0.0000 
     10 OAS        27.8570   11.1390   50.2960 O.2       1 8MR501      0.0000 
     11 OAD        25.8560   11.3510   51.6790 O.2       1 8MR501      0.0000 
     12 CAM        25.4640   10.9980   48.9870 C.3       1 8MR501      0.0000 
     13 CAB        24.4720   12.1440   49.2060 C.3       1 8MR501      0.0000 
     14 FA         23.5560   11.8150   50.1940 F         1 8MR501      0.0000 
     15 FB         23.7800   12.4110   48.0340 F         1 8MR501      0.0000 
     16 CAL        26.3570   11.2690   47.7740 C.3       1 8MR501      0.0000 
     17 CAK        27.1300   10.0120   47.3680 C.2       1 8MR501      0.0000 
     18 OAR        28.3020   10.1680   46.9670 O.co2     1 8MR501      0.0000 
     19 OAJ        26.5280    8.9210   47.4660 O.co2     1 8MR501      0.0000 
     20 H          28.3179    6.4254   51.9358 H         1 8MR501      0.0000 
     21 H          28.3466    8.8246   51.6293 H         1 8MR501      0.0000 
     22 H          24.4840    6.2556   50.2555 H         1 8MR501      0.0000 
     23 H          24.5153    8.6525   49.9421 H         1 8MR501      0.0000 
     24 H          24.9286   10.0615   48.8544 H         1 8MR501      0.0000 
     25 H          25.0654   13.0136   49.5063 H         1 8MR501      0.0000 
     26 H          27.0636   12.0609   48.0187 H         1 8MR501      0.0000 
     27 H          25.7383   11.5947   46.9389 H         1 8MR501      0.0000 
     28 H          25.7565    3.4694   52.6497 H         1 8MR501      0.0000 
     29 H          26.2589    4.8584   53.2857 H         1 8MR501      0.0000 
     30 H          24.8290    4.7797   52.5540 H         1 8MR501      0.0000 
@<TRIPOS>BOND
     1    2    1 1    
     2   28    1 1    
     3   29    1 1    
     4   30    1 1    
     5    3    2 1    
     6    4    3 ar   
     7    6    3 ar   
     8    5    4 ar   
     9   20    4 1    
    10    8    5 ar   
    11   21    5 1    
    12    7    6 ar   
    13   22    6 1    
    14    8    7 ar   
    15   23    7 1    
    16    9    8 1    
    17   10    9 2    
    18   11    9 2    
    19   12    9 1    
    20   13   12 1    
    21   16   12 1    
    22   24   12 1    
    23   14   13 1    
    24   15   13 1    
    25   25   13 1    
    26   17   16 1    
    27   26   16 1    
    28   27   16 1    
    29   18   17 ar   
    30   19   17 ar   
@<TRIPOS>SUBSTRUCTURE
     1 8MR501      1 GROUP   
@<TRIPOS>SET

