#    Name: 1l7e_NAI_1_INTS_M
#    Modification time : Tue Mar 25 11:00:48 2014

@<TRIPOS>MOLECULE
1l7e_NAI_1_INTS_M
   82     0     9     0     0
SMALL
NO_CHARGES


@<TRIPOS>ATOM
      1 CA         -7.3760  -30.5805    4.0465 C.3       3 GLC5        0.0000 
      2 CA         -8.0120  -28.7270    4.7730 C.3       9 GLL5        0.0000 
      3 CA         -6.7400  -32.4340    3.3200 C.3       6 GLP5        0.0000 
      4 CA         -9.9075  -26.4180    3.4955 C.3       3 GLC5        0.0000 
      5 CA         -9.0560  -27.7200    4.9140 C.3       9 GLL5        0.0000 
      6 CA        -10.7590  -25.1160    2.0770 C.3       6 GLP5        0.0000 
      7 N          -9.8475  -25.8000    7.9615 N.am      2 SEC2        0.0000 
      8 N          -9.8570  -26.1440    6.7110 N.am      8 SEL2        0.0000 
      9 N          -9.8380  -25.4560    9.2120 N.am      5 SEP2        0.0000 
     10 O         -10.8270  -25.4805    6.1000 O.2       1 ALC1        0.0000 
     11 O          -9.8570  -26.1440    6.7110 O.2       7 ALL1        0.0000 
     12 O         -11.7970  -24.8170    5.4890 O.2       4 ALP1        0.0000 
     13 O         -11.9015  -26.3440    6.3110 O.2       1 ALC1        0.0000 
     14 O         -12.0060  -27.8710    7.1330 O.2       7 ALL1        0.0000 
     15 O         -12.7980  -26.7530    6.8050 O.2       1 ALC1        0.0000 
     16 O         -13.5900  -25.6350    6.4770 O.2       4 ALP1        0.0000 
     17 CA        -11.0425  -26.5590    3.4045 C.3       3 GLC5        0.0000 
     18 CA        -11.3260  -28.0020    4.7320 C.3       9 GLL5        0.0000 
     19 CA        -10.4060  -28.7250    2.8745 C.3       3 GLC5        0.0000 
     20 CA         -9.4860  -29.4480    1.0170 C.3       6 GLP5        0.0000 
     21 CA        -16.2560  -29.2455    3.4595 C.3       3 GLC5        0.0000 
     22 CA        -15.1460  -29.9100    2.1250 C.3       9 GLL5        0.0000 
     23 CA        -17.3660  -28.5810    4.7940 C.3       6 GLP5        0.0000 
     24 CA        -14.7990  -30.1055    0.2285 C.3       3 GLC5        0.0000 
     25 CA        -14.4520  -30.3010   -1.6680 C.3       6 GLP5        0.0000 
     26 N         -16.7525  -27.8025    1.1620 N.am      2 SEC2        0.0000 
     27 N         -15.5360  -28.5990    1.6950 N.am      8 SEL2        0.0000 
     28 N         -17.9690  -27.0060    0.6290 N.am      5 SEP2        0.0000 
     29 CA        -14.9195  -25.8020    3.1080 C.3       3 GLC5        0.0000 
     30 CA        -14.9370  -27.4550    2.0060 C.3       9 GLL5        0.0000 
     31 CA        -14.9020  -24.1490    4.2100 C.3       6 GLP5        0.0000 
     32 CA        -16.1515  -28.0180    3.4000 C.3       3 GLC5        0.0000 
     33 CA        -13.9270  -27.9115    0.0800 C.3       3 GLC5        0.0000 
     34 CA        -12.9170  -28.3680   -1.8460 C.3       6 GLP5        0.0000 
     35 N          -4.7375  -25.5520    6.9545 N.am      2 SEC2        0.0000 
     36 N          -5.0050  -26.9860    7.2350 N.am      8 SEL2        0.0000 
     37 N          -4.4700  -24.1180    6.6740 N.am      5 SEP2        0.0000 
     38 N          -5.5645  -29.3695    9.7835 N.am      2 SEC2        0.0000 
     39 N          -5.8110  -27.7770    9.5120 N.am      8 SEL2        0.0000 
     40 N          -5.3180  -30.9620   10.0550 N.am      5 SEP2        0.0000 
     41 CA         -6.8510  -25.6015    7.9535 C.3       3 GLC5        0.0000 
     42 CA         -6.8440  -26.7660    9.6100 C.3       9 GLL5        0.0000 
     43 CA         -6.8580  -24.4370    6.2970 C.3       6 GLP5        0.0000 
     44 N          -8.6885  -24.4690   11.8110 N.am      2 SEC2        0.0000 
     45 N          -7.4750  -24.3590   12.2950 N.am      8 SEL2        0.0000 
     46 N          -9.9020  -24.5790   11.3270 N.am      5 SEP2        0.0000 
     47 CA         -3.7405  -24.6595   10.2090 C.3       3 GLC5        0.0000 
     48 CA         -5.1430  -24.7760   11.7190 C.3       9 GLL5        0.0000 
     49 CA         -2.3380  -24.5430    8.6990 C.3       6 GLP5        0.0000 
     50 CA         -0.7710  -25.6050   15.2740 C.3       3 GLC5        0.0000 
     51 CA         -2.0470  -27.1240   14.2520 C.3       9 GLL5        0.0000 
     52 CA          0.5050  -24.0860   16.2960 C.3       6 GLP5        0.0000 
     53 O          -0.1420  -27.2330   17.3935 O.2       1 ALC1        0.0000 
     54 O          -0.1390  -27.1860   15.9930 O.2       7 ALL1        0.0000 
     55 O          -0.1450  -27.2800   18.7940 O.2       4 ALP1        0.0000 
     56 CA          0.8745  -28.1690   13.1775 C.3       3 GLC5        0.0000 
     57 CA         -1.3370  -27.8570   13.2470 C.3       9 GLL5        0.0000 
     58 CA          3.0860  -28.4810   13.1080 C.3       6 GLP5        0.0000 
     59 CA         -2.8105  -25.9415   10.2270 C.3       3 GLC5        0.0000 
     60 CA         -3.2830  -27.3400   11.7550 C.3       9 GLL5        0.0000 
     61 CA         -9.0100  -28.8357    2.9302 C.3       3 GLC5        0.0000 
     62 CA         -8.1255  -26.0380    5.9630 C.3       3 GLC5        0.0000 
     63 CA        -11.3010  -27.3990    7.9935 C.3       3 GLC5        0.0000 
     64 CA         -9.7300  -27.5580    6.3440 C.3       9 GLL5        0.0000 
     65 CA        -12.2180  -26.8960    9.6920 C.3       6 GLP5        0.0000 
     66 CA        -12.0200  -29.6025    6.5170 C.3       3 GLC5        0.0000 
     67 CA        -11.0380  -28.2460    6.2460 C.3       9 GLL5        0.0000 
     68 CA        -12.8580  -31.0810    7.5450 C.3       6 GLP5        0.0000 
     69 CA        -14.5675  -28.9503    4.8163 C.3       3 GLC5        0.0000 
     70 CA        -13.2970  -28.6950    3.3420 C.3       9 GLL5        0.0000 
     71 CA        -15.5280  -28.5990    6.4510 C.3       6 GLP5        0.0000 
     72 CA        -12.2725  -29.4173    1.8592 C.3       3 GLC5        0.0000 
     73 CA        -10.9380  -29.5330    0.5370 C.3       6 GLP5        0.0000 
     74 CA        -13.6137  -31.3430    1.5440 C.3       3 GLC5        0.0000 
     75 CA        -13.9170  -29.9080    3.0210 C.3       9 GLL5        0.0000 
     76 CA        -12.6960  -32.7770    0.5150 C.3       6 GLP5        0.0000 
     77 CA         -3.0884  -28.8395   14.1659 C.3       3 GLC5        0.0000 
     78 CA         -3.2740  -26.5180   14.1130 C.3       9 GLL5        0.0000 
     79 CA         -4.1780  -30.3400   14.6170 C.3       6 GLP5        0.0000 
     80 CA         -3.2350  -29.4090   12.6310 C.3       3 GLC5        0.0000 
     81 CA         -2.0370  -27.9340   11.9650 C.3       9 GLL5        0.0000 
     82 CA         -3.8100  -31.1810   13.4020 C.3       6 GLP5        0.0000 
@<TRIPOS>BOND
@<TRIPOS>SUBSTRUCTURE
     1 ALC1       10 GROUP        1 X    ALC  0     ROOT ALC X 1
     2 SEC2        7 GROUP        1 X    SEC  0     **** SEC X 2
     3 GLC5        1 GROUP        1 X    GLC  0     **** GLC X 6
     4 ALP1       12 GROUP        1 Y    ALP  0     ROOT ALP Y 8
     5 SEP2        9 GROUP        1 Y    SEP  0     **** SEP Y 9
     6 GLP5        3 GROUP        1 Y    GLP  0     **** GLP Y 13
     7 ALL1       11 GROUP        1 Z    ALL  0     ROOT ALL Z 15
     8 SEL2        8 GROUP        1 Z    SEL  0     **** SEL Z 16
     9 GLL5        2 GROUP        1 Z    GLL  0     **** GLL Z 20
@<TRIPOS>SET

