#    Name: 1l7e_NAI_1_ligand
#    Modification time : Tue Mar 25 11:00:48 2014

@<TRIPOS>MOLECULE
1l7e_NAI_1_ligand
   71    75     1     0     0
SMALL
NO_CHARGES


@<TRIPOS>ATOM
      1 PA         -6.1630  -29.8780    6.2860 P.3       1 NAI701      0.0000 
      2 O1A        -5.1560  -29.8980    5.1750 O.co2     1 NAI701      0.0000 
      3 O2A        -6.9310  -31.1710    6.6370 O.co2     1 NAI701      0.0000 
      4 O5B        -7.1530  -28.7060    5.9760 O.3       1 NAI701      0.0000 
      5 C5B        -8.0120  -28.7270    4.7730 C.3       1 NAI701      0.0000 
      6 C4B        -9.0560  -27.7200    4.9140 C.3       1 NAI701      0.0000 
      7 O4B       -10.1790  -28.0220    4.0010 O.3       1 NAI701      0.0000 
      8 C3B        -9.7300  -27.5580    6.3440 C.3       1 NAI701      0.0000 
      9 O3B        -9.8570  -26.1440    6.7110 O.3       1 NAI701      0.0000 
     10 C2B       -11.0380  -28.2460    6.2460 C.3       1 NAI701      0.0000 
     11 O2B       -12.0060  -27.8710    7.1330 O.3       1 NAI701      0.0000 
     12 C1B       -11.3260  -28.0020    4.7320 C.3       1 NAI701      0.0000 
     13 N9A       -12.2060  -28.9760    4.1760 N.pl3     1 NAI701      0.0000 
     14 C8A       -12.2510  -30.3520    4.2910 C.2       1 NAI701      0.0000 
     15 N7A       -13.2300  -30.9300    3.6350 N.2       1 NAI701      0.0000 
     16 C5A       -13.9170  -29.9080    3.0210 C.ar      1 NAI701      0.0000 
     17 C6A       -15.1460  -29.9100    2.1250 C.ar      1 NAI701      0.0000 
     18 N6A       -15.8160  -30.9630    1.7540 N.pl3     1 NAI701      0.0000 
     19 N1A       -15.5360  -28.5990    1.6950 N.ar      1 NAI701      0.0000 
     20 C2A       -14.9370  -27.4550    2.0060 C.ar      1 NAI701      0.0000 
     21 N3A       -13.7780  -27.4210    2.8510 N.ar      1 NAI701      0.0000 
     22 C4A       -13.2970  -28.6950    3.3420 C.ar      1 NAI701      0.0000 
     23 O3         -5.5080  -29.3960    7.6240 O.3       1 NAI701      0.0000 
     24 PN         -4.8940  -28.0130    8.2170 P.3       1 NAI701      0.0000 
     25 O1N        -5.0050  -26.9860    7.2350 O.co2     1 NAI701      0.0000 
     26 O2N        -3.5560  -28.3860    8.7310 O.co2     1 NAI701      0.0000 
     27 O5D        -5.8110  -27.7770    9.5120 O.3       1 NAI701      0.0000 
     28 C5D        -6.8440  -26.7660    9.6100 C.3       1 NAI701      0.0000 
     29 C4D        -7.0110  -26.2290   10.9960 C.3       1 NAI701      0.0000 
     30 O4D        -6.0050  -26.9460   11.8860 O.3       1 NAI701      0.0000 
     31 C3D        -6.6200  -24.7200   11.2890 C.3       1 NAI701      0.0000 
     32 O3D        -7.4750  -24.3590   12.2950 O.3       1 NAI701      0.0000 
     33 C2D        -5.1430  -24.7760   11.7190 C.3       1 NAI701      0.0000 
     34 O2D        -4.7190  -23.6460   12.3950 O.3       1 NAI701      0.0000 
     35 C1D        -5.1890  -26.0270   12.5540 C.3       1 NAI701      0.0000 
     36 N1N        -3.8460  -26.6620   12.8270 N.pl3     1 NAI701      0.0000 
     37 C2N        -3.2740  -26.5180   14.1130 C.2       1 NAI701      0.0000 
     38 C3N        -2.0470  -27.1240   14.2520 C.2       1 NAI701      0.0000 
     39 C7N        -1.4870  -26.8890   15.7540 C.2       1 NAI701      0.0000 
     40 O7N        -2.2810  -26.4620   16.6210 O.2       1 NAI701      0.0000 
     41 N7N        -0.1390  -27.1860   15.9930 N.am      1 NAI701      0.0000 
     42 C4N        -1.3370  -27.8570   13.2470 C.3       1 NAI701      0.0000 
     43 C5N        -2.0370  -27.9340   11.9650 C.2       1 NAI701      0.0000 
     44 C6N        -3.2830  -27.3400   11.7550 C.2       1 NAI701      0.0000 
     45 H          -8.4555  -29.7217    4.6579 H         1 NAI701      0.0000 
     46 H          -7.4034  -28.5229    3.8857 H         1 NAI701      0.0000 
     47 H          -8.6852  -26.7225    4.6469 H         1 NAI701      0.0000 
     48 H          -9.0935  -28.0916    7.0302 H         1 NAI701      0.0000 
     49 H         -10.7930  -29.3372    6.2804 H         1 NAI701      0.0000 
     50 H         -11.8071  -27.0096    4.6743 H         1 NAI701      0.0000 
     51 H         -11.5663  -30.8435    4.8461 H         1 NAI701      0.0000 
     52 H         -16.5857  -30.7999    1.1367 H         1 NAI701      0.0000 
     53 H         -15.4992  -31.8378    2.1205 H         1 NAI701      0.0000 
     54 H         -15.2813  -26.5367    1.6513 H         1 NAI701      0.0000 
     55 H          -7.8195  -27.1763    9.2714 H         1 NAI701      0.0000 
     56 H          -6.6202  -25.9177    8.9283 H         1 NAI701      0.0000 
     57 H          -7.9696  -26.4074   11.4056 H         1 NAI701      0.0000 
     58 H          -6.7195  -24.2102   10.3873 H         1 NAI701      0.0000 
     59 H          -4.5887  -25.0158   10.8253 H         1 NAI701      0.0000 
     60 H          -5.6447  -25.7679   13.5198 H         1 NAI701      0.0000 
     61 H          -3.7307  -26.0230   14.8328 H         1 NAI701      0.0000 
     62 H           0.1987  -26.9882   16.9132 H         1 NAI701      0.0000 
     63 H           0.3701  -27.5703   15.2229 H         1 NAI701      0.0000 
     64 H          -1.1245  -28.8958   13.6067 H         1 NAI701      0.0000 
     65 H          -0.3269  -27.4032   13.0815 H         1 NAI701      0.0000 
     66 H          -1.5691  -28.4534   11.2039 H         1 NAI701      0.0000 
     67 H          -3.7486  -27.4030   10.8646 H         1 NAI701      0.0000 
     68 H         -10.6077  -25.7972    6.1487 H         1 NAI701      0.0000 
     69 H         -12.4284  -27.0603    6.7275 H         1 NAI701      0.0000 
     70 H          -7.6103  -25.1923   12.8310 H         1 NAI701      0.0000 
     71 H          -3.7537  -23.8122   12.5967 H         1 NAI701      0.0000 
@<TRIPOS>BOND
     1    2    1 ar   
     2    3    1 ar   
     3    4    1 1    
     4   23    1 1    
     5    5    4 1    
     6    6    5 1    
     7   45    5 1    
     8   46    5 1    
     9    7    6 1    
    10    8    6 1    
    11   47    6 1    
    12   12    7 1    
    13    9    8 1    
    14   10    8 1    
    15   48    8 1    
    16   68    9 1    
    17   11   10 1    
    18   12   10 1    
    19   49   10 1    
    20   69   11 1    
    21   13   12 1    
    22   50   12 1    
    23   14   13 1    
    24   22   13 1    
    25   15   14 2    
    26   51   14 1    
    27   16   15 1    
    28   17   16 ar   
    29   22   16 ar   
    30   18   17 1    
    31   19   17 ar   
    32   52   18 1    
    33   53   18 1    
    34   20   19 ar   
    35   21   20 ar   
    36   54   20 1    
    37   22   21 ar   
    38   24   23 1    
    39   25   24 ar   
    40   26   24 ar   
    41   27   24 1    
    42   28   27 1    
    43   29   28 1    
    44   55   28 1    
    45   56   28 1    
    46   30   29 1    
    47   31   29 1    
    48   57   29 1    
    49   35   30 1    
    50   32   31 1    
    51   33   31 1    
    52   58   31 1    
    53   70   32 1    
    54   34   33 1    
    55   35   33 1    
    56   59   33 1    
    57   71   34 1    
    58   36   35 1    
    59   60   35 1    
    60   37   36 1    
    61   44   36 1    
    62   38   37 2    
    63   61   37 1    
    64   39   38 1    
    65   42   38 1    
    66   40   39 2    
    67   41   39 am   
    68   62   41 1    
    69   63   41 1    
    70   43   42 1    
    71   64   42 1    
    72   65   42 1    
    73   44   43 2    
    74   66   43 1    
    75   67   44 1    
@<TRIPOS>SUBSTRUCTURE
     1 NAI701      1 GROUP   
@<TRIPOS>SET

