#    Name: 3rpn_GTX_5_INTS_M
#    Modification time : Tue Mar 25 11:47:23 2014

@<TRIPOS>MOLECULE
3rpn_GTX_5_INTS_M
   88     0    15     0     0
SMALL
NO_CHARGES


@<TRIPOS>ATOM
      1 OD1         1.6540  -33.5955   20.9835 O.co2     3 ASC3        0.0000 
      2 OD1         0.6160  -33.6770   19.4290 O.co2    13 ASL3        0.0000 
      3 OD1         2.6920  -33.5140   22.5380 O.co2     8 ASP3        0.0000 
      4 OD1         0.8005  -33.0030   20.6305 O.co2     3 ASC3        0.0000 
      5 OD1         0.9850  -32.3290   21.8320 O.co2     8 ASP3        0.0000 
      6 O           0.8005  -33.0030   20.6305 O.2       1 ALC1        0.0000 
      7 O           0.6160  -33.6770   19.4290 O.2      11 ALL1        0.0000 
      8 O           0.9850  -32.3290   21.8320 O.2       6 ALP1        0.0000 
      9 CA          2.7315  -33.1800   17.4605 C.3       5 GLC5        0.0000 
     10 CA          1.7940  -34.4030   18.9800 C.3      15 GLL5        0.0000 
     11 CA          3.6690  -31.9570   15.9410 C.3      10 GLP5        0.0000 
     12 CA          3.4215  -35.2000   19.9805 C.3       5 GLC5        0.0000 
     13 CA          5.0490  -35.9970   20.9810 C.3      10 GLP5        0.0000 
     14 N           5.0065  -33.8055   19.6900 N.am      2 SEC2        0.0000 
     15 N           4.0880  -33.8380   18.7210 N.am     12 SEL2        0.0000 
     16 N           5.9250  -33.7730   20.6590 N.am      7 SEP2        0.0000 
     17 N           4.7945  -32.4995   19.0715 N.am      2 SEC2        0.0000 
     18 N           5.5010  -31.1610   19.4220 N.am      7 SEP2        0.0000 
     19 NZ          1.6570  -31.1650   19.1260 N.4       4 LYC4        0.0000 
     20 NZ          2.7350  -32.2570   19.3510 N.4      14 LYL4        0.0000 
     21 NZ          0.1370  -29.3200   19.9040 N.4       9 LYP4        0.0000 
     22 N           1.6570  -31.1650   19.1260 N.am      2 SEC2        0.0000 
     23 N           2.7350  -32.2570   19.3510 N.am     12 SEL2        0.0000 
     24 N           0.5790  -30.0730   18.9010 N.am      7 SEP2        0.0000 
     25 N           4.1180  -31.7090   19.3865 N.am      2 SEC2        0.0000 
     26 CA          3.9335  -35.9235   19.0600 C.3       5 GLC5        0.0000 
     27 CA          2.8180  -35.8500   17.1390 C.3      15 GLL5        0.0000 
     28 O           4.6070  -37.8305   15.7070 O.2       1 ALC1        0.0000 
     29 O           3.3760  -37.2910   15.2520 O.2      11 ALL1        0.0000 
     30 O           5.8380  -38.3700   16.1620 O.2       6 ALP1        0.0000 
     31 CA          1.0300  -38.4200   13.2370 C.3       5 GLC5        0.0000 
     32 CA          3.0190  -38.1840   14.1650 C.3      15 GLL5        0.0000 
     33 CA         -0.9590  -38.6560   12.3090 C.3      10 GLP5        0.0000 
     34 N           4.8395  -40.8190   15.5055 N.am      2 SEC2        0.0000 
     35 N           3.6400  -40.5660   14.8140 N.am     12 SEL2        0.0000 
     36 N           6.0390  -41.0720   16.1970 N.am      7 SEP2        0.0000 
     37 CA          2.8570  -34.3375   12.6390 C.3       5 GLC5        0.0000 
     38 CA          2.5070  -35.1680   11.0810 C.3      15 GLL5        0.0000 
     39 CA          3.2070  -33.5070   14.1970 C.3      10 GLP5        0.0000 
     40 CA          2.2270  -31.7555    9.9455 C.3       5 GLC5        0.0000 
     41 CA          1.3080  -33.6170    9.4970 C.3      15 GLL5        0.0000 
     42 CA          3.1460  -29.8940   10.3940 C.3      10 GLP5        0.0000 
     43 CA         -0.2585  -30.1085    8.2675 C.3       5 GLC5        0.0000 
     44 CA          0.8370  -31.9160    7.6850 C.3      15 GLL5        0.0000 
     45 CA         -1.3540  -28.3010    8.8500 C.3      10 GLP5        0.0000 
     46 CA          1.9915  -30.9050    9.0395 C.3       5 GLC5        0.0000 
     47 CA          1.0490  -33.5290    6.1500 C.3       5 GLC5        0.0000 
     48 CA          1.2610  -35.1420    4.6150 C.3      10 GLP5        0.0000 
     49 CA          2.9985  -31.9640    7.1425 C.3       5 GLC5        0.0000 
     50 CA          5.1600  -32.0120    6.6000 C.3      10 GLP5        0.0000 
     51 CA          1.6815  -42.1540   14.0410 C.3       5 GLC5        0.0000 
     52 CA          1.0310  -41.0420   15.6740 C.3      15 GLL5        0.0000 
     53 CA          2.3320  -43.2660   12.4080 C.3      10 GLP5        0.0000 
     54 CA          0.2540  -40.4940   13.6770 C.3       5 GLC5        0.0000 
     55 CA         -0.5230  -39.9460   11.6800 C.3      10 GLP5        0.0000 
     56 CA          1.0220  -42.3650   17.2800 C.3       5 GLC5        0.0000 
     57 CA          1.0130  -43.6880   18.8860 C.3      10 GLP5        0.0000 
     58 CA          2.7490  -41.9855   15.9965 C.3       5 GLC5        0.0000 
     59 CA          4.4670  -42.9290   16.3190 C.3      10 GLP5        0.0000 
     60 CA          1.6570  -40.1395   17.1515 C.3       5 GLC5        0.0000 
     61 CA          2.2830  -39.2370   18.6290 C.3      10 GLP5        0.0000 
     62 NZ         -2.2795  -42.6160   16.5295 N.4       4 LYC4        0.0000 
     63 NZ         -1.1080  -42.0340   16.1370 N.4      14 LYL4        0.0000 
     64 NZ         -3.4510  -43.1980   16.9220 N.4       9 LYP4        0.0000 
     65 N          -2.2795  -42.6160   16.5295 N.am      2 SEC2        0.0000 
     66 N          -1.1080  -42.0340   16.1370 N.am     12 SEL2        0.0000 
     67 N          -3.4510  -43.1980   16.9220 N.am      7 SEP2        0.0000 
     68 N          -0.6160  -43.2560   15.6640 N.am      2 SEC2        0.0000 
     69 N          -0.1240  -44.4780   15.1910 N.am      7 SEP2        0.0000 
     70 CA          3.1378  -34.2355   16.2735 C.3       5 GLC5        0.0000 
     71 CA          4.0530  -33.0640   15.1990 C.3      10 GLP5        0.0000 
     72 CA          2.2527  -37.3220   17.9885 C.3       5 GLC5        0.0000 
     73 CA          6.2642  -37.2700   12.3837 C.3       5 GLC5        0.0000 
     74 CA          4.1090  -38.1640   13.0880 C.3      15 GLL5        0.0000 
     75 CA          8.2160  -37.2130   11.9930 C.3      10 GLP5        0.0000 
     76 CA          5.0655  -35.3440   10.9620 C.3       5 GLC5        0.0000 
     77 CA          4.5160  -36.4900   12.4610 C.3      15 GLL5        0.0000 
     78 CA          6.2900  -34.1770   10.0700 C.3      10 GLP5        0.0000 
     79 CA          3.5240  -35.0090   13.0255 C.3       5 GLC5        0.0000 
     80 CA          0.3568  -34.9838   11.1010 C.3       5 GLC5        0.0000 
     81 CA         -1.4220  -34.8580   11.7840 C.3      10 GLP5        0.0000 
     82 CA          3.6069  -33.6311   10.1433 C.3       5 GLC5        0.0000 
     83 CA          5.4920  -32.8990   10.3290 C.3      10 GLP5        0.0000 
     84 CA          1.9595  -34.9965    7.6357 C.3       5 GLC5        0.0000 
     85 CA          0.9920  -33.3980    8.0170 C.3      15 GLL5        0.0000 
     86 CA          2.6550  -36.1270    6.4500 C.3      10 GLP5        0.0000 
     87 CA         -0.2512  -32.4374    9.7320 C.3       5 GLC5        0.0000 
     88 CA         -1.4960  -32.1630   11.2430 C.3      10 GLP5        0.0000 
@<TRIPOS>BOND
@<TRIPOS>SUBSTRUCTURE
     1 ALC1        6 GROUP        1 X    ALC  0     ROOT ALC X 1
     2 SEC2       14 GROUP        1 X    SEC  0     **** SEC X 2
     3 ASC3        1 GROUP        1 X    ASC  0     **** ASC X 3
     4 LYC4       19 GROUP        1 X    LYC  0     **** LYC X 4
     5 GLC5        9 GROUP        1 X    GLC  0     **** GLC X 6
     6 ALP1        8 GROUP        1 Y    ALP  0     ROOT ALP Y 8
     7 SEP2       16 GROUP        1 Y    SEP  0     **** SEP Y 9
     8 ASP3        3 GROUP        1 Y    ASP  0     **** ASP Y 10
     9 LYP4       21 GROUP        1 Y    LYP  0     **** LYP Y 11
    10 GLP5       11 GROUP        1 Y    GLP  0     **** GLP Y 13
    11 ALL1        7 GROUP        1 Z    ALL  0     ROOT ALL Z 15
    12 SEL2       15 GROUP        1 Z    SEL  0     **** SEL Z 16
    13 ASL3        2 GROUP        1 Z    ASL  0     **** ASL Z 17
    14 LYL4       20 GROUP        1 Z    LYL  0     **** LYL Z 18
    15 GLL5       10 GROUP        1 Z    GLL  0     **** GLL Z 20
@<TRIPOS>SET

