#    Name: 3rpn_GTX_5_ligand
#    Modification time : Tue Mar 25 11:47:23 2014

@<TRIPOS>MOLECULE
3rpn_GTX_5_ligand
   54    53     1     0     0
SMALL
NO_CHARGES


@<TRIPOS>ATOM
      1 N1          0.6160  -33.6770   19.4290 N.4       1 GTX302      0.0000 
      2 CA1         1.7940  -34.4030   18.9800 C.3       1 GTX302      0.0000 
      3 C1          2.9390  -33.4500   19.0190 C.2       1 GTX302      0.0000 
      4 O11         4.0880  -33.8380   18.7210 O.co2     1 GTX302      0.0000 
      5 O12         2.7350  -32.2570   19.3510 O.co2     1 GTX302      0.0000 
      6 CB1         1.6270  -34.9640   17.5570 C.3       1 GTX302      0.0000 
      7 CG1         2.8180  -35.8500   17.1390 C.3       1 GTX302      0.0000 
      8 CD1         2.4300  -36.6280   15.9000 C.2       1 GTX302      0.0000 
      9 OE1         1.0940  -36.6740   15.4710 O.2       1 GTX302      0.0000 
     10 N2          3.3760  -37.2910   15.2520 N.am      1 GTX302      0.0000 
     11 CA2         3.0190  -38.1840   14.1650 C.3       1 GTX302      0.0000 
     12 C2          2.6770  -39.5720   14.6670 C.2       1 GTX302      0.0000 
     13 O2          3.6400  -40.5660   14.8140 O.2       1 GTX302      0.0000 
     14 CB2         4.1090  -38.1640   13.0880 C.3       1 GTX302      0.0000 
     15 SG2         4.5160  -36.4900   12.4610 S.3       1 GTX302      0.0000 
     16 C1S         3.1660  -36.5320   11.2470 C.3       1 GTX302      0.0000 
     17 C2S         2.5070  -35.1680   11.0810 C.3       1 GTX302      0.0000 
     18 C3S         1.7640  -35.0510    9.7550 C.3       1 GTX302      0.0000 
     19 C4S         1.3080  -33.6170    9.4970 C.3       1 GTX302      0.0000 
     20 C5S         0.9920  -33.3980    8.0170 C.3       1 GTX302      0.0000 
     21 C6S         0.8370  -31.9160    7.6850 C.3       1 GTX302      0.0000 
     22 N3          1.4110  -39.8280   14.9760 N.am      1 GTX302      0.0000 
     23 CA3         1.0310  -41.0420   15.6740 C.3       1 GTX302      0.0000 
     24 C3         -0.4500  -40.9930   15.9390 C.2       1 GTX302      0.0000 
     25 O31        -1.1080  -42.0340   16.1370 O.co2     1 GTX302      0.0000 
     26 O32        -1.0260  -39.8880   15.9430 O.co2     1 GTX302      0.0000 
     27 H           2.0067  -35.2238   19.6476 H         1 GTX302      0.0000 
     28 H           1.5385  -34.1339   16.8539 H         1 GTX302      0.0000 
     29 H           0.7113  -35.5562   17.5117 H         1 GTX302      0.0000 
     30 H           3.0482  -36.5296   17.9456 H         1 GTX302      0.0000 
     31 H           3.6670  -35.2176   16.9280 H         1 GTX302      0.0000 
     32 H           4.3785  -37.2120   15.4756 H         1 GTX302      0.0000 
     33 H           2.0964  -37.7772   13.6777 H         1 GTX302      0.0000 
     34 H           3.8298  -38.6781   12.1828 H         1 GTX302      0.0000 
     35 H           5.0680  -38.5086   13.4390 H         1 GTX302      0.0000 
     36 H           2.5159  -37.2768   11.6560 H         1 GTX302      0.0000 
     37 H           3.6637  -36.8793   10.3659 H         1 GTX302      0.0000 
     38 H           3.2742  -34.3892   11.1328 H         1 GTX302      0.0000 
     39 H           1.8026  -35.0065   11.9029 H         1 GTX302      0.0000 
     40 H           0.8917  -35.7071    9.7717 H         1 GTX302      0.0000 
     41 H           2.4218  -35.3695    8.9442 H         1 GTX302      0.0000 
     42 H           2.0964  -32.9285    9.8006 H         1 GTX302      0.0000 
     43 H           0.4158  -33.4112   10.0880 H         1 GTX302      0.0000 
     44 H           0.0657  -33.9212    7.7676 H         1 GTX302      0.0000 
     45 H           1.7988  -33.8195    7.4126 H         1 GTX302      0.0000 
     46 H           0.6354  -39.1771   14.7354 H         1 GTX302      0.0000 
     47 H           1.5557  -41.1263   16.6255 H         1 GTX302      0.0000 
     48 H           1.2514  -41.9239   15.0727 H         1 GTX302      0.0000 
     49 H           0.7281  -33.3257   20.3585 H         1 GTX302      0.0000 
     50 H           0.4167  -32.8928   18.8414 H         1 GTX302      0.0000 
     51 H          -0.1990  -34.2565   19.4310 H         1 GTX302      0.0000 
     52 H           1.6698  -31.4009    7.8876 H         1 GTX302      0.0000 
     53 H           0.6314  -31.7718    6.7171 H         1 GTX302      0.0000 
     54 H           0.0966  -31.4937    8.2080 H         1 GTX302      0.0000 
@<TRIPOS>BOND
     1    2    1 1    
     2   49    1 1    
     3   50    1 1    
     4   51    1 1    
     5    3    2 1    
     6    6    2 1    
     7   27    2 1    
     8    4    3 ar   
     9    5    3 ar   
    10    7    6 1    
    11   28    6 1    
    12   29    6 1    
    13    8    7 1    
    14   30    7 1    
    15   31    7 1    
    16    9    8 2    
    17   10    8 am   
    18   11   10 1    
    19   32   10 1    
    20   12   11 1    
    21   14   11 1    
    22   33   11 1    
    23   13   12 2    
    24   22   12 am   
    25   15   14 1    
    26   34   14 1    
    27   35   14 1    
    28   16   15 1    
    29   17   16 1    
    30   36   16 1    
    31   37   16 1    
    32   18   17 1    
    33   38   17 1    
    34   39   17 1    
    35   19   18 1    
    36   40   18 1    
    37   41   18 1    
    38   20   19 1    
    39   42   19 1    
    40   43   19 1    
    41   21   20 1    
    42   44   20 1    
    43   45   20 1    
    44   52   21 1    
    45   53   21 1    
    46   54   21 1    
    47   23   22 1    
    48   46   22 1    
    49   24   23 1    
    50   47   23 1    
    51   48   23 1    
    52   25   24 ar   
    53   26   24 ar   
@<TRIPOS>SUBSTRUCTURE
     1 GTX302      1 GROUP   
@<TRIPOS>SET

