#    Name: 2jkk_BI9_1_INTS_M
#    Modification time : Tue Mar 25 21:02:23 2014

@<TRIPOS>MOLECULE
2jkk_BI9_1_INTS_M
   89     0     9     0     0
SMALL
NO_CHARGES


@<TRIPOS>ATOM
      1 CA         10.8575   -2.3965   28.2805 C.3       3 GLC5        0.0000 
      2 CA         10.8670   -2.2280   30.3140 C.3       9 GLL5        0.0000 
      3 CA         10.8480   -2.5650   26.2470 C.3       6 GLP5        0.0000 
      4 CA          7.7360    0.2620   32.0490 C.3       3 GLC5        0.0000 
      5 CA          7.2790   -0.9350   30.5310 C.3       9 GLL5        0.0000 
      6 CA          8.1930    1.4590   33.5670 C.3       6 GLP5        0.0000 
      7 CA          4.3245    1.4280   30.7265 C.3       3 GLC5        0.0000 
      8 CA          4.7900   -0.5600   31.3940 C.3       9 GLL5        0.0000 
      9 CA          3.8590    3.4160   30.0590 C.3       6 GLP5        0.0000 
     10 CA          3.0200   -0.8470   30.1410 C.3       3 GLC5        0.0000 
     11 CA          1.2500   -1.1340   28.8880 C.3       6 GLP5        0.0000 
     12 CA          8.2500    0.1725   25.9625 C.3       3 GLC5        0.0000 
     13 CA          8.1160    0.2040   28.1470 C.3       9 GLL5        0.0000 
     14 CA          8.3840    0.1410   23.7780 C.3       6 GLP5        0.0000 
     15 O           4.7210    0.4755   27.7015 O.2       1 ALC1        0.0000 
     16 O           5.9230    1.2440   27.9650 O.2       7 ALL1        0.0000 
     17 O           3.5190   -0.2930   27.4380 O.2       4 ALP1        0.0000 
     18 CA          7.0890    2.8305   29.1560 C.3       3 GLC5        0.0000 
     19 CA          6.2010    2.3770   27.2920 C.3       9 GLL5        0.0000 
     20 CA          7.9770    3.2840   31.0200 C.3       6 GLP5        0.0000 
     21 CA          5.0300    2.8965   28.6755 C.3       3 GLC5        0.0000 
     22 CA          4.6490    1.5015   25.9910 C.3       3 GLC5        0.0000 
     23 CA          3.0970    0.6260   24.6900 C.3       6 GLP5        0.0000 
     24 CA          6.6465    2.3105   25.4195 C.3       3 GLC5        0.0000 
     25 CA          7.0920    2.2440   23.5470 C.3       6 GLP5        0.0000 
     26 N           3.8525    2.6520   26.6095 N.am      2 SEC2        0.0000 
     27 N           5.1990    3.0670   26.7550 N.am      8 SEL2        0.0000 
     28 N           2.5060    2.2370   26.4640 N.am      5 SEP2        0.0000 
     29 CA          4.9040    4.4315   23.9150 C.3       3 GLC5        0.0000 
     30 CA          5.4270    4.1840   26.0740 C.3       9 GLL5        0.0000 
     31 CA          4.3810    4.6790   21.7560 C.3       6 GLP5        0.0000 
     32 CA          3.6860    4.2320   26.8835 C.3       3 GLC5        0.0000 
     33 CA          1.9450    4.2800   27.6930 C.3       6 GLP5        0.0000 
     34 CA          4.1735    3.0055   24.6990 C.3       3 GLC5        0.0000 
     35 CA          2.9200    1.8270   23.3240 C.3       6 GLP5        0.0000 
     36 CA          6.4195    6.3375   26.9910 C.3       3 GLC5        0.0000 
     37 CA          6.9780    6.1210   24.9630 C.3       9 GLL5        0.0000 
     38 CA          5.8610    6.5540   29.0190 C.3       6 GLP5        0.0000 
     39 CA          6.3240    6.4240   23.0685 C.3       3 GLC5        0.0000 
     40 CA          5.6700    6.7270   21.1740 C.3       6 GLP5        0.0000 
     41 CA          5.9060    7.7680   25.3240 C.3       3 GLC5        0.0000 
     42 CA          4.8340    9.4150   25.6850 C.3       6 GLP5        0.0000 
     43 CA          7.0350    4.1825   24.2550 C.3       3 GLC5        0.0000 
     44 CA          8.4160    7.0360   23.8590 C.3       3 GLC5        0.0000 
     45 CA          9.8540    7.9510   22.7550 C.3       6 GLP5        0.0000 
     46 CA          9.1770    3.3160   29.4815 C.3       3 GLC5        0.0000 
     47 CA         10.3770    3.3480   27.9430 C.3       9 GLL5        0.0000 
     48 CA         10.2720    5.0015   29.0205 C.3       3 GLC5        0.0000 
     49 CA         10.1670    6.6550   30.0980 C.3       6 GLP5        0.0000 
     50 CA         10.3750    2.8985   30.1190 C.3       3 GLC5        0.0000 
     51 CA         11.5180    2.6950   28.3730 C.3       9 GLL5        0.0000 
     52 CA          9.2320    3.1020   31.8650 C.3       6 GLP5        0.0000 
     53 CA         11.5440    4.6090   29.5415 C.3       3 GLC5        0.0000 
     54 CA         11.5700    6.5230   30.7100 C.3       6 GLP5        0.0000 
     55 N           9.7935    5.3285   22.6325 N.am      2 SEC2        0.0000 
     56 N          10.3950    4.6710   23.8180 N.am      8 SEL2        0.0000 
     57 N           9.1920    5.9860   21.4470 N.am      5 SEP2        0.0000 
     58 CA         12.1050    1.7155   20.8785 C.3       3 GLC5        0.0000 
     59 CA         11.8190    3.3030   21.9240 C.3       9 GLL5        0.0000 
     60 CA         12.3910    0.1280   19.8330 C.3       6 GLP5        0.0000 
     61 CA         10.1000    3.5820   21.2635 C.3       3 GLC5        0.0000 
     62 CA          8.3810    3.8610   20.6030 C.3       6 GLP5        0.0000 
     63 CA         12.5955    4.8965   23.0270 C.3       3 GLC5        0.0000 
     64 CA         13.3720    6.4900   24.1300 C.3       6 GLP5        0.0000 
     65 CA         13.4415    4.0975   21.0035 C.3       3 GLC5        0.0000 
     66 CA         15.0640    4.8920   20.0830 C.3       6 GLP5        0.0000 
     67 CA          9.0742    0.4277   31.0365 C.3       3 GLC5        0.0000 
     68 CA          8.9970   -0.6060   28.8740 C.3       9 GLL5        0.0000 
     69 CA          9.3630    1.7600   32.6000 C.3       6 GLP5        0.0000 
     70 CA          7.0938   -2.0405   28.8618 C.3       3 GLC5        0.0000 
     71 CA          8.5740   -1.2030   30.0720 C.3       9 GLL5        0.0000 
     72 CA          6.2610   -3.0120   27.4220 C.3       6 GLP5        0.0000 
     73 CA          5.2323    1.7967   29.6315 C.3       3 GLC5        0.0000 
     74 CA          6.8140    0.4680   28.6080 C.3       9 GLL5        0.0000 
     75 CA          6.4333   -1.4173   28.3130 C.3       3 GLC5        0.0000 
     76 CA          6.3970   -0.1130   29.8000 C.3       9 GLL5        0.0000 
     77 CA          7.4087   -1.6065   27.9663 C.3       3 GLC5        0.0000 
     78 CA          9.7022   -1.3830   27.3787 C.3       3 GLC5        0.0000 
     79 CA          7.6689    1.7374   29.8478 C.3       3 GLC5        0.0000 
     80 CA          6.3907    5.3655   27.6076 C.3       3 GLC5        0.0000 
     81 CA          6.7110    4.6620   25.8790 C.3       9 GLL5        0.0000 
     82 CA          7.0062    3.2105   24.8716 C.3       3 GLC5        0.0000 
     83 CA         11.0257    5.2480   26.6608 C.3       3 GLC5        0.0000 
     84 CA         10.1860    3.7000   26.5900 C.3       9 GLL5        0.0000 
     85 CA         11.7700    6.9720   26.0550 C.3       6 GLP5        0.0000 
     86 CA         12.9683    2.7160   29.7750 C.3       3 GLC5        0.0000 
     87 CA         13.9110    2.8760   31.6350 C.3       6 GLP5        0.0000 
     88 CA         11.7800    5.0308   25.9760 C.3       3 GLC5        0.0000 
     89 CA         12.3700    2.7740   26.1200 C.3       9 GLL5        0.0000 
@<TRIPOS>BOND
@<TRIPOS>SUBSTRUCTURE
     1 ALC1       15 GROUP        1 X    ALC  0     ROOT ALC X 1
     2 SEC2       26 GROUP        1 X    SEC  0     **** SEC X 2
     3 GLC5        1 GROUP        1 X    GLC  0     **** GLC X 6
     4 ALP1       17 GROUP        1 Y    ALP  0     ROOT ALP Y 8
     5 SEP2       28 GROUP        1 Y    SEP  0     **** SEP Y 9
     6 GLP5        3 GROUP        1 Y    GLP  0     **** GLP Y 13
     7 ALL1       16 GROUP        1 Z    ALL  0     ROOT ALL Z 15
     8 SEL2       27 GROUP        1 Z    SEL  0     **** SEL Z 16
     9 GLL5        2 GROUP        1 Z    GLL  0     **** GLL Z 20
@<TRIPOS>SET

