#    Name: 2jkk_BI9_1_ligand
#    Modification time : Tue Mar 25 21:02:23 2014

@<TRIPOS>MOLECULE
2jkk_BI9_1_ligand
   58    61     1     0     0
SMALL
NO_CHARGES


@<TRIPOS>ATOM
      1 CBC         9.0410   -2.7190   32.0490 C.3       1 BI91686     0.0000 
      2 CBE        10.2130   -2.9610   33.0220 C.3       1 BI91686     0.0000 
      3 OBG        11.3040   -3.5690   32.3390 O.3       1 BI91686     0.0000 
      4 CBF        11.8660   -2.6670   31.3900 C.3       1 BI91686     0.0000 
      5 CBD        10.8670   -2.2280   30.3140 C.3       1 BI91686     0.0000 
      6 NBB         9.4790   -2.0480   30.8040 N.3       1 BI91686     0.0000 
      7 CBA         8.5740   -1.2030   30.0720 C.ar      1 BI91686     0.0000 
      8 CAY         7.2790   -0.9350   30.5310 C.ar      1 BI91686     0.0000 
      9 CAS         6.3970   -0.1130   29.8000 C.ar      1 BI91686     0.0000 
     10 OAT         5.1280    0.1660   30.2020 O.3       1 BI91686     0.0000 
     11 CAU         4.7900   -0.5600   31.3940 C.3       1 BI91686     0.0000 
     12 CAX         8.9970   -0.6060   28.8740 C.ar      1 BI91686     0.0000 
     13 CAR         8.1160    0.2040   28.1470 C.ar      1 BI91686     0.0000 
     14 CAL         6.8140    0.4680   28.6080 C.ar      1 BI91686     0.0000 
     15 NAH         5.9230    1.2440   27.9650 N.pl3     1 BI91686     0.0000 
     16 C2          6.2010    2.3770   27.2920 C.ar      1 BI91686     0.0000 
     17 N3          7.4540    2.8240   27.1340 N.ar      1 BI91686     0.0000 
     18 N1          5.1990    3.0670   26.7550 N.ar      1 BI91686     0.0000 
     19 C6          5.4270    4.1840   26.0740 C.ar      1 BI91686     0.0000 
     20 C5          6.7110    4.6620   25.8790 C.ar      1 BI91686     0.0000 
     21 CL5         6.9780    6.1210   24.9630 Cl        1 BI91686     0.0000 
     22 C4          7.7720    3.9310   26.4160 C.ar      1 BI91686     0.0000 
     23 NAE         9.0490    4.3410   26.2290 N.pl3     1 BI91686     0.0000 
     24 CAJ        10.1860    3.7000   26.5900 C.ar      1 BI91686     0.0000 
     25 CAQ        10.3770    3.3480   27.9430 C.ar      1 BI91686     0.0000 
     26 CAW        11.5180    2.6950   28.3730 C.ar      1 BI91686     0.0000 
     27 CAZ        12.5330    2.4170   27.4570 C.ar      1 BI91686     0.0000 
     28 CAV        12.3700    2.7740   26.1200 C.ar      1 BI91686     0.0000 
     29 CAP        11.2100    3.4050   25.6740 C.ar      1 BI91686     0.0000 
     30 CAO        11.1170    3.7550   24.1830 C.2       1 BI91686     0.0000 
     31 OAI        10.3950    4.6710   23.8180 O.2       1 BI91686     0.0000 
     32 NAN        11.8370    2.9880   23.3590 N.am      1 BI91686     0.0000 
     33 CAM        11.8190    3.3030   21.9240 C.3       1 BI91686     0.0000 
     34 H           8.2881   -2.1113   32.5685 H         1 BI91686     0.0000 
     35 H           8.5826   -3.6906   31.8210 H         1 BI91686     0.0000 
     36 H           9.8349   -3.5908   33.8376 H         1 BI91686     0.0000 
     37 H          10.4861   -1.9886   33.4516 H         1 BI91686     0.0000 
     38 H          12.7361   -3.1163   30.8671 H         1 BI91686     0.0000 
     39 H          12.2475   -1.7466   31.8796 H         1 BI91686     0.0000 
     40 H          10.8868   -2.9805   29.4999 H         1 BI91686     0.0000 
     41 H          11.2368   -1.2828   29.8676 H         1 BI91686     0.0000 
     42 H           6.9588   -1.3459   31.4232 H         1 BI91686     0.0000 
     43 H           9.9499   -0.7637   28.5331 H         1 BI91686     0.0000 
     44 H           8.4269    0.6179   27.2520 H         1 BI91686     0.0000 
     45 H           4.8858    0.9290   27.9904 H         1 BI91686     0.0000 
     46 H           4.6317    4.7344   25.6647 H         1 BI91686     0.0000 
     47 H           9.1774    5.3043   25.7267 H         1 BI91686     0.0000 
     48 H           9.6328    3.5913   28.6262 H         1 BI91686     0.0000 
     49 H          11.6220    2.4161   29.3530 H         1 BI91686     0.0000 
     50 H          13.3923    1.9534   27.7662 H         1 BI91686     0.0000 
     51 H          13.1271    2.5660   25.4428 H         1 BI91686     0.0000 
     52 H          12.3992    2.1983   23.6543 H         1 BI91686     0.0000 
     53 H           4.8464   -1.5487   31.2552 H         1 BI91686     0.0000 
     54 H           5.4022   -0.3351   32.1520 H         1 BI91686     0.0000 
     55 H           3.8592   -0.3595   31.6996 H         1 BI91686     0.0000 
     56 H          12.1588    4.2257   21.7420 H         1 BI91686     0.0000 
     57 H          12.3889    2.6717   21.3980 H         1 BI91686     0.0000 
     58 H          10.8956    3.2504   21.5438 H         1 BI91686     0.0000 
@<TRIPOS>BOND
     1    2    1 1    
     2    6    1 1    
     3   34    1 1    
     4   35    1 1    
     5    3    2 1    
     6   36    2 1    
     7   37    2 1    
     8    4    3 1    
     9    5    4 1    
    10   38    4 1    
    11   39    4 1    
    12    6    5 1    
    13   40    5 1    
    14   41    5 1    
    15    7    6 1    
    16    8    7 ar   
    17   12    7 ar   
    18    9    8 ar   
    19   42    8 1    
    20   10    9 1    
    21   14    9 ar   
    22   11   10 1    
    23   53   11 1    
    24   54   11 1    
    25   55   11 1    
    26   13   12 ar   
    27   43   12 1    
    28   14   13 ar   
    29   44   13 1    
    30   15   14 1    
    31   16   15 1    
    32   45   15 1    
    33   17   16 ar   
    34   18   16 ar   
    35   22   17 ar   
    36   19   18 ar   
    37   20   19 ar   
    38   46   19 1    
    39   21   20 1    
    40   22   20 ar   
    41   23   22 1    
    42   24   23 1    
    43   47   23 1    
    44   25   24 ar   
    45   29   24 ar   
    46   26   25 ar   
    47   48   25 1    
    48   27   26 ar   
    49   49   26 1    
    50   28   27 ar   
    51   50   27 1    
    52   29   28 ar   
    53   51   28 1    
    54   30   29 1    
    55   31   30 2    
    56   32   30 am   
    57   33   32 1    
    58   52   32 1    
    59   56   33 1    
    60   57   33 1    
    61   58   33 1    
@<TRIPOS>SUBSTRUCTURE
     1 BI91686     1 GROUP   
@<TRIPOS>SET

