#    Name: 3sl4_JN4_1_INTS_M
#    Modification time : Mon Mar 24 17:48:49 2014

@<TRIPOS>MOLECULE
3sl4_JN4_1_INTS_M
   46     0     3     0     0
SMALL
NO_CHARGES


@<TRIPOS>ATOM
      1 CA        -21.7150    6.8385   25.0835 C.3       1 GLC5        0.0000 
      2 CA        -21.1610    8.3330   26.5270 C.3       3 GLL5        0.0000 
      3 CA        -22.2690    5.3440   23.6400 C.3       2 GLP5        0.0000 
      4 CA        -20.3145    9.1740   30.3485 C.3       1 GLC5        0.0000 
      5 CA        -21.9350    9.6800   29.0650 C.3       3 GLL5        0.0000 
      6 CA        -18.6940    8.6680   31.6320 C.3       2 GLP5        0.0000 
      7 CA        -22.2560   10.9680   30.6190 C.3       1 GLC5        0.0000 
      8 CA        -22.5770   12.2560   32.1730 C.3       2 GLP5        0.0000 
      9 CA        -23.5920    8.3075   28.8445 C.3       1 GLC5        0.0000 
     10 CA        -25.2490    6.9350   28.6240 C.3       2 GLP5        0.0000 
     11 CA        -24.9545    8.3485   32.5975 C.3       1 GLC5        0.0000 
     12 CA        -23.1150    8.7870   33.2470 C.3       3 GLL5        0.0000 
     13 CA        -26.7940    7.9100   31.9480 C.3       2 GLP5        0.0000 
     14 CA        -20.6895    9.1175   35.3745 C.3       1 GLC5        0.0000 
     15 CA        -21.9690    8.9500   34.1920 C.3       3 GLL5        0.0000 
     16 CA        -19.4100    9.2850   36.5570 C.3       2 GLP5        0.0000 
     17 CA        -20.3315    8.8090   32.9120 C.3       1 GLC5        0.0000 
     18 CA        -20.2700    1.0860   31.3400 C.3       1 GLC5        0.0000 
     19 CA        -22.1060    1.9560   30.9860 C.3       3 GLL5        0.0000 
     20 CA        -18.4340    0.2160   31.6940 C.3       2 GLP5        0.0000 
     21 CA        -23.1015    1.8415   29.1375 C.3       1 GLC5        0.0000 
     22 CA        -24.0970    1.7270   27.2890 C.3       2 GLP5        0.0000 
     23 CA        -20.3450    3.2925   31.3140 C.3       1 GLC5        0.0000 
     24 CA        -18.5840    4.6290   31.6420 C.3       2 GLP5        0.0000 
     25 CA        -23.6865    3.4825   30.5055 C.3       1 GLC5        0.0000 
     26 CA        -25.2670    5.0090   30.0250 C.3       2 GLP5        0.0000 
     27 CA        -20.8975    1.0075   35.7150 C.3       1 GLC5        0.0000 
     28 CA        -21.6250    2.6700   34.7640 C.3       3 GLL5        0.0000 
     29 CA        -20.1700   -0.6550   36.6660 C.3       2 GLP5        0.0000 
     30 CA        -20.2365    5.4705   30.7898 C.3       1 GLC5        0.0000 
     31 CA        -21.7480    5.6130   29.6500 C.3       3 GLL5        0.0000 
     32 CA        -22.5595   10.5622   32.9463 C.3       1 GLC5        0.0000 
     33 CA        -23.3435   10.3828   34.6923 C.3       1 GLC5        0.0000 
     34 CA        -24.1450   11.8970   35.6650 C.3       2 GLP5        0.0000 
     35 CA        -23.1805    0.7425   33.4483 C.3       1 GLC5        0.0000 
     36 CA        -23.6540    2.8230   32.7630 C.3       3 GLL5        0.0000 
     37 CA        -23.3290   -1.1090   34.3080 C.3       2 GLP5        0.0000 
     38 CA        -22.4117    0.6863   34.2035 C.3       1 GLC5        0.0000 
     39 CA        -21.2732    3.2403   36.6285 C.3       1 GLC5        0.0000 
     40 CA        -20.2790    3.5730   38.3160 C.3       2 GLP5        0.0000 
     41 CA        -23.3733    1.0368   34.4663 C.3       1 GLC5        0.0000 
     42 CA        -22.9100    3.1450   35.1180 C.3       3 GLL5        0.0000 
     43 CA        -25.1214    2.2776   34.1377 C.3       1 GLC5        0.0000 
     44 CA        -26.8930    1.4720   33.9930 C.3       2 GLP5        0.0000 
     45 CA        -20.5981    4.0266   34.6942 C.3       1 GLC5        0.0000 
     46 CA        -18.9940    5.2400   34.7800 C.3       2 GLP5        0.0000 
@<TRIPOS>BOND
@<TRIPOS>SUBSTRUCTURE
     1 GLC5        1 GROUP        1 X    GLC  0     ROOT GLC X 6
     2 GLP5        3 GROUP        1 Y    GLP  0     ROOT GLP Y 13
     3 GLL5        2 GROUP        1 Z    GLL  0     ROOT GLL Z 20
@<TRIPOS>SET

