#    Name: 3sl4_JN4_1_ligand
#    Modification time : Mon Mar 24 17:48:49 2014

@<TRIPOS>MOLECULE
3sl4_JN4_1_ligand
   46    48     1     0     0
SMALL
NO_CHARGES


@<TRIPOS>ATOM
      1 C1        -21.7120   10.4640   27.7740 C.3       1 JN423       0.0000 
      2 N2        -21.7410    9.7030   26.5330 N.am      1 JN423       0.0000 
      3 C3        -21.1610    8.3330   26.5270 C.3       1 JN423       0.0000 
      4 C4        -21.4000    7.4820   27.7960 C.2       1 JN423       0.0000 
      5 C5        -21.7940    8.1610   29.0070 C.2       1 JN423       0.0000 
      6 C6        -21.9350    9.6800   29.0650 C.3       1 JN423       0.0000 
      7 C7        -22.6440   10.1420   25.5060 C.2       1 JN423       0.0000 
      8 O8        -22.7430    9.5140   24.4640 O.2       1 JN423       0.0000 
      9 N9        -23.2570   11.4360   25.6380 N.am      1 JN423       0.0000 
     10 C10       -24.0290   12.0100   24.5690 C.2       1 JN423       0.0000 
     11 C11       -24.1120   13.4980   24.4980 C.2       1 JN423       0.0000 
     12 S12       -21.3460    5.7780   28.1250 S.3       1 JN423       0.0000 
     13 C13       -21.7480    5.6130   29.6500 C.2       1 JN423       0.0000 
     14 C14       -22.0300    7.0110   30.2250 C.2       1 JN423       0.0000 
     15 C15       -22.4590    7.3070   31.6300 C.2       1 JN423       0.0000 
     16 O16       -22.8000    8.4910   31.9310 O.3       1 JN423       0.0000 
     17 C17       -23.1150    8.7870   33.2470 C.2       1 JN423       0.0000 
     18 C18       -21.9690    8.9500   34.1920 C.2       1 JN423       0.0000 
     19 O19       -22.5810    6.3720   32.4740 O.2       1 JN423       0.0000 
     20 N20       -21.9060    4.4320   30.4830 N.am      1 JN423       0.0000 
     21 C21       -21.8150    3.0730   30.0170 C.2       1 JN423       0.0000 
     22 C22       -22.1060    1.9560   30.9860 C.3       1 JN423       0.0000 
     23 C23       -22.4100    2.3650   32.4140 C.ar      1 JN423       0.0000 
     24 C24       -23.6540    2.8230   32.7630 C.ar      1 JN423       0.0000 
     25 C25       -21.3640    2.2930   33.4340 C.ar      1 JN423       0.0000 
     26 C26       -21.6250    2.6700   34.7640 C.ar      1 JN423       0.0000 
     27 C27       -22.9100    3.1450   35.1180 C.ar      1 JN423       0.0000 
     28 C28       -23.9250    3.2200   34.1310 C.ar      1 JN423       0.0000 
     29 O29       -21.3700    2.8560   28.9110 O.2       1 JN423       0.0000 
     30 H         -22.4776   11.2848   27.7429 H         1 JN423       0.0000 
     31 H         -20.7328   11.0045   27.8740 H         1 JN423       0.0000 
     32 H         -20.0592    8.3892   26.3625 H         1 JN423       0.0000 
     33 H         -21.5572    7.7580   25.6571 H         1 JN423       0.0000 
     34 H         -22.9545    9.9262   29.4570 H         1 JN423       0.0000 
     35 H         -21.2312   10.0714   29.8429 H         1 JN423       0.0000 
     36 H         -23.1418   11.9583   26.5089 H         1 JN423       0.0000 
     37 H         -24.4957   11.4617   23.8952 H         1 JN423       0.0000 
     38 H         -24.0350    8.8955   33.5949 H         1 JN423       0.0000 
     39 H         -22.1009    4.5878   31.4998 H         1 JN423       0.0000 
     40 H         -21.2402    1.2507   30.9954 H         1 JN423       0.0000 
     41 H         -22.9640    1.3555   30.5984 H         1 JN423       0.0000 
     42 H         -24.4151    2.8978   32.0838 H         1 JN423       0.0000 
     43 H         -20.4408    1.9618   33.1529 H         1 JN423       0.0000 
     44 H         -20.8947    2.6027   35.4717 H         1 JN423       0.0000 
     45 H         -23.1055    3.4310   36.0739 H         1 JN423       0.0000 
     46 H         -24.8565    3.5535   34.3707 H         1 JN423       0.0000 
@<TRIPOS>BOND
     1    2    1 1    
     2    6    1 1    
     3   30    1 1    
     4   31    1 1    
     5    3    2 1    
     6    7    2 am   
     7    4    3 1    
     8   32    3 1    
     9   33    3 1    
    10    5    4 2    
    11   12    4 1    
    12    6    5 1    
    13   14    5 1    
    14   34    6 1    
    15   35    6 1    
    16    8    7 2    
    17    9    7 am   
    18   10    9 1    
    19   36    9 1    
    20   11   10 2    
    21   37   10 1    
    22   13   12 1    
    23   14   13 2    
    24   20   13 1    
    25   15   14 1    
    26   16   15 1    
    27   19   15 2    
    28   17   16 1    
    29   18   17 2    
    30   38   17 1    
    31   21   20 am   
    32   39   20 1    
    33   22   21 1    
    34   29   21 2    
    35   23   22 1    
    36   40   22 1    
    37   41   22 1    
    38   24   23 ar   
    39   25   23 ar   
    40   28   24 ar   
    41   42   24 1    
    42   26   25 ar   
    43   43   25 1    
    44   27   26 ar   
    45   44   26 1    
    46   28   27 ar   
    47   45   27 1    
    48   46   28 1    
@<TRIPOS>SUBSTRUCTURE
     1 JN423       1 GROUP   
@<TRIPOS>SET

