#    Name: 1sny_NAP_1_INTS_M
#    Modification time : Tue Mar 25 02:34:10 2014

@<TRIPOS>MOLECULE
1sny_NAP_1_INTS_M
  103     0    12     0     0
SMALL
NO_CHARGES


@<TRIPOS>ATOM
      1 NZ         20.2205   23.0065   47.9260 N.4       3 LYC4        0.0000 
      2 NZ         19.1020   21.6510   47.8590 N.4      11 LYL4        0.0000 
      3 NZ         21.3390   24.3620   47.9930 N.4       7 LYP4        0.0000 
      4 N          15.7020   22.1915   43.2625 N.am      2 SEC2        0.0000 
      5 N          17.1980   23.0240   43.1730 N.am     10 SEL2        0.0000 
      6 N          14.2060   21.3590   43.3520 N.am      6 SEP2        0.0000 
      7 CA         21.0250   24.2720   44.8165 C.3       4 GLC5        0.0000 
      8 CA         19.4410   23.7140   43.6960 C.3      12 GLL5        0.0000 
      9 CA         22.6090   24.8300   45.9370 C.3       8 GLP5        0.0000 
     10 O          21.1660   24.6740   41.9720 O.2       1 ALC1        0.0000 
     11 O          20.2130   23.6640   42.4860 O.2       9 ALL1        0.0000 
     12 O          22.1190   25.6840   41.4580 O.2       5 ALP1        0.0000 
     13 CA         18.1260   23.7560   41.1285 C.3       4 GLC5        0.0000 
     14 CA         17.3170   24.3890   42.8540 C.3      12 GLL5        0.0000 
     15 CA         18.9350   23.1230   39.4030 C.3       8 GLP5        0.0000 
     16 CA         15.9180   23.6315   41.5835 C.3       4 GLC5        0.0000 
     17 CA         14.5190   22.8740   40.3130 C.3       8 GLP5        0.0000 
     18 CA         12.6535   25.5590   43.3495 C.3       4 GLC5        0.0000 
     19 CA         14.4780   26.6120   42.8150 C.3      12 GLL5        0.0000 
     20 CA         10.8290   24.5060   43.8840 C.3       8 GLP5        0.0000 
     21 CA         12.7390   27.2990   40.1155 C.3       4 GLC5        0.0000 
     22 CA         13.7120   27.5400   42.0870 C.3      12 GLL5        0.0000 
     23 CA         11.7660   27.0580   38.1440 C.3       8 GLP5        0.0000 
     24 O          12.5220   29.6545   41.7005 O.2       1 ALC1        0.0000 
     25 O          12.6180   28.2190   42.5170 O.2       9 ALL1        0.0000 
     26 O          12.4260   31.0900   40.8840 O.2       5 ALP1        0.0000 
     27 N          13.4195   28.5475   39.4850 N.am      2 SEC2        0.0000 
     28 N          14.1160   27.8010   40.7640 N.am     10 SEL2        0.0000 
     29 N          12.7230   29.2940   38.2060 N.am      6 SEP2        0.0000 
     30 CA         16.2715   28.6800   40.4750 C.3       4 GLC5        0.0000 
     31 CA         15.2350   27.1610   40.2050 C.3      12 GLL5        0.0000 
     32 CA         17.3080   30.1990   40.7450 C.3       8 GLP5        0.0000 
     33 CA         14.1075   26.8120   38.8075 C.3       4 GLC5        0.0000 
     34 CA         12.9800   26.4630   37.4100 C.3       8 GLP5        0.0000 
     35 CA         14.8770   25.0175   40.2590 C.3       4 GLC5        0.0000 
     36 N          20.4100   16.8900   47.9980 N.am      2 SEC2        0.0000 
     37 N          19.4810   16.9730   47.0850 N.am     10 SEL2        0.0000 
     38 N          21.3390   16.8070   48.9110 N.am      6 SEP2        0.0000 
     39 N          21.3725   17.6540   44.2915 N.am      2 SEC2        0.0000 
     40 N          20.2700   18.3400   45.1200 N.am     10 SEL2        0.0000 
     41 N          22.4750   16.9680   43.4630 N.am      6 SEP2        0.0000 
     42 CA         14.1915   19.3215   44.4610 C.3       4 GLC5        0.0000 
     43 CA         15.1130   17.5700   44.5030 C.3      12 GLL5        0.0000 
     44 CA         13.2700   21.0730   44.4190 C.3       8 GLP5        0.0000 
     45 N          12.6290   17.0140   44.0755 N.am      2 SEC2        0.0000 
     46 N          13.9720   17.5920   43.6120 N.am     10 SEL2        0.0000 
     47 N          11.2860   16.4360   44.5390 N.am      6 SEP2        0.0000 
     48 O          14.7025   18.2665   42.6420 O.2       1 ALC1        0.0000 
     49 O          13.9720   17.5920   43.6120 O.2       9 ALL1        0.0000 
     50 O          15.4330   18.9410   41.6720 O.2       5 ALP1        0.0000 
     51 CA         12.7720   16.4110   45.8065 C.3       4 GLC5        0.0000 
     52 CA         14.8820   16.7670   45.7740 C.3      12 GLL5        0.0000 
     53 CA         10.6620   16.0550   45.8390 C.3       8 GLP5        0.0000 
     54 CA         15.2245   17.2905   47.4460 C.3       4 GLC5        0.0000 
     55 CA         15.5670   17.8140   49.1180 C.3       8 GLP5        0.0000 
     56 N          13.1700   16.1890   47.3465 N.am      2 SEC2        0.0000 
     57 N          13.5870   16.9220   46.3110 N.am     10 SEL2        0.0000 
     58 N          12.7530   15.4560   48.3820 N.am      6 SEP2        0.0000 
     59 N          12.4365   16.6790   45.4250 N.am      2 SEC2        0.0000 
     60 CA         15.1730   14.7300   43.5355 C.3       4 GLC5        0.0000 
     61 CA         15.1480   15.3810   45.3230 C.3      12 GLL5        0.0000 
     62 CA         15.1980   14.0790   41.7480 C.3       8 GLP5        0.0000 
     63 CA         18.0900   14.2410   45.5995 C.3       4 GLC5        0.0000 
     64 CA         16.8210   14.5200   47.0970 C.3      12 GLL5        0.0000 
     65 CA         19.3590   13.9620   44.1020 C.3       8 GLP5        0.0000 
     66 CA         16.1940   16.1670   48.1075 C.3       4 GLC5        0.0000 
     67 N          19.6850   11.6845   49.5355 N.am      2 SEC2        0.0000 
     68 N          18.5690   12.6500   49.6380 N.am     10 SEL2        0.0000 
     69 N          20.8010   10.7190   49.4330 N.am      6 SEP2        0.0000 
     70 O          20.5325   13.8715   49.5715 O.2       1 ALC1        0.0000 
     71 O          19.2270   14.5560   48.7310 O.2       9 ALL1        0.0000 
     72 O          21.8380   13.1870   50.4120 O.2       5 ALP1        0.0000 
     73 N          22.2685   26.6510   43.8180 N.am      2 SEC2        0.0000 
     74 N          21.0780   26.7400   44.6040 N.am     10 SEL2        0.0000 
     75 N          23.4590   26.5620   43.0320 N.am      6 SEP2        0.0000 
     76 N          20.8435   26.0970   46.2070 N.am      2 SEC2        0.0000 
     77 N          20.6090   25.4540   47.8100 N.am      6 SEP2        0.0000 
     78 NZ         18.1475   28.9170   44.5055 N.4       3 LYC4        0.0000 
     79 NZ         19.5310   28.4800   43.6060 N.4      11 LYL4        0.0000 
     80 NZ         16.2450   29.9200   44.3240 N.4       7 LYP4        0.0000 
     81 N          18.2130   29.1755   43.3860 N.am      2 SEC2        0.0000 
     82 N          19.5310   28.4800   43.6060 N.am     10 SEL2        0.0000 
     83 N          16.8950   29.8710   43.1660 N.am      6 SEP2        0.0000 
     84 N          18.1475   28.9170   44.5055 N.am      2 SEC2        0.0000 
     85 N          16.7640   29.3540   45.4050 N.am      6 SEP2        0.0000 
     86 N          19.7230   26.3130   46.7495 N.am      2 SEC2        0.0000 
     87 N          18.8370   27.1720   45.6890 N.am     10 SEL2        0.0000 
     88 N          17.8005   28.2630   45.5470 N.am      2 SEC2        0.0000 
     89 CA         18.9525   23.1073   41.5455 C.3       4 GLC5        0.0000 
     90 CA         15.2425   28.7640   42.1890 C.3       4 GLC5        0.0000 
     91 CA         16.3900   30.4520   41.9270 C.3       8 GLP5        0.0000 
     92 CA         14.7765   24.5912   41.4112 C.3       4 GLC5        0.0000 
     93 CA         18.1800   15.5475   44.0285 C.3       4 GLC5        0.0000 
     94 CA         17.6850   17.4420   44.0680 C.3      12 GLL5        0.0000 
     95 CA         15.4565   15.6380   42.9603 C.3       4 GLC5        0.0000 
     96 CA         16.3170   16.8240   43.8420 C.3      12 GLL5        0.0000 
     97 CA         16.8995   12.2563   46.2814 C.3       4 GLC5        0.0000 
     98 CA         17.2220   11.3270   44.6810 C.3       8 GLP5        0.0000 
     99 CA         13.1415   12.5375   47.3627 C.3       4 GLC5        0.0000 
    100 CA         15.0120   12.3090   47.4250 C.3      12 GLL5        0.0000 
    101 CA         11.4250   12.2570   47.7700 C.3       8 GLP5        0.0000 
    102 CA         15.3735   11.7620   45.6433 C.3       4 GLC5        0.0000 
    103 CA         15.8890   10.7060   44.3310 C.3       8 GLP5        0.0000 
@<TRIPOS>BOND
@<TRIPOS>SUBSTRUCTURE
     1 ALC1       10 GROUP        1 X    ALC  0     ROOT ALC X 1
     2 SEC2        4 GROUP        1 X    SEC  0     **** SEC X 2
     3 LYC4        1 GROUP        1 X    LYC  0     **** LYC X 4
     4 GLC5        7 GROUP        1 X    GLC  0     **** GLC X 6
     5 ALP1       12 GROUP        1 Y    ALP  0     ROOT ALP Y 8
     6 SEP2        6 GROUP        1 Y    SEP  0     **** SEP Y 9
     7 LYP4        3 GROUP        1 Y    LYP  0     **** LYP Y 11
     8 GLP5        9 GROUP        1 Y    GLP  0     **** GLP Y 13
     9 ALL1       11 GROUP        1 Z    ALL  0     ROOT ALL Z 15
    10 SEL2        5 GROUP        1 Z    SEL  0     **** SEL Z 16
    11 LYL4        2 GROUP        1 Z    LYL  0     **** LYL Z 18
    12 GLL5        8 GROUP        1 Z    GLL  0     **** GLL Z 20
@<TRIPOS>SET

