#    Name: 1sny_NAP_1_ligand
#    Modification time : Tue Mar 25 02:34:10 2014

@<TRIPOS>MOLECULE
1sny_NAP_1_ligand
   72    76     1     0     0
SMALL
NO_CHARGES


@<TRIPOS>ATOM
      1 PA         19.7420   20.7990   46.9370 P.3       1 NAP400      0.0000 
      2 O1A        19.1020   21.6510   47.8590 O.co2     1 NAP400      0.0000 
      3 O2A        21.2060   20.4130   46.9640 O.co2     1 NAP400      0.0000 
      4 O5B        19.5010   21.3390   45.4510 O.3       1 NAP400      0.0000 
      5 C5B        18.1930   21.8470   45.0790 C.3       1 NAP400      0.0000 
      6 C4B        18.4990   22.4690   43.6800 C.3       1 NAP400      0.0000 
      7 O4B        17.1980   23.0240   43.1730 O.3       1 NAP400      0.0000 
      8 C3B        19.4410   23.7140   43.6960 C.3       1 NAP400      0.0000 
      9 O3B        20.2130   23.6640   42.4860 O.3       1 NAP400      0.0000 
     10 C2B        18.4680   24.8720   43.7650 C.3       1 NAP400      0.0000 
     11 O2B        18.9590   26.1420   43.3580 O.3       1 NAP400      0.0000 
     12 C1B        17.3170   24.3890   42.8540 C.3       1 NAP400      0.0000 
     13 N9A        16.1290   25.1790   43.1330 N.pl3     1 NAP400      0.0000 
     14 C8A        15.3370   25.3040   44.2570 C.2       1 NAP400      0.0000 
     15 N7A        14.3280   26.1560   44.1160 N.2       1 NAP400      0.0000 
     16 C5A        14.4780   26.6120   42.8150 C.ar      1 NAP400      0.0000 
     17 C6A        13.7120   27.5400   42.0870 C.ar      1 NAP400      0.0000 
     18 N6A        12.6180   28.2190   42.5170 N.pl3     1 NAP400      0.0000 
     19 N1A        14.1160   27.8010   40.7640 N.ar      1 NAP400      0.0000 
     20 C2A        15.2350   27.1610   40.2050 C.ar      1 NAP400      0.0000 
     21 N3A        16.0090   26.2460   40.9040 N.ar      1 NAP400      0.0000 
     22 C4A        15.5900   26.0050   42.2040 C.ar      1 NAP400      0.0000 
     23 O3         18.9760   19.4180   46.9050 O.3       1 NAP400      0.0000 
     24 PN         19.2160   18.0650   46.1340 P.3       1 NAP400      0.0000 
     25 O1N        19.4810   16.9730   47.0850 O.co2     1 NAP400      0.0000 
     26 O2N        20.2700   18.3400   45.1200 O.co2     1 NAP400      0.0000 
     27 O5D        17.7940   17.7990   45.4890 O.3       1 NAP400      0.0000 
     28 C5D        17.6850   17.4420   44.0680 C.3       1 NAP400      0.0000 
     29 C4D        16.3170   16.8240   43.8420 C.3       1 NAP400      0.0000 
     30 O4D        16.2860   15.4870   44.4050 O.3       1 NAP400      0.0000 
     31 C3D        15.1130   17.5700   44.5030 C.3       1 NAP400      0.0000 
     32 O3D        13.9720   17.5920   43.6120 O.3       1 NAP400      0.0000 
     33 C2D        14.8820   16.7670   45.7740 C.3       1 NAP400      0.0000 
     34 O2D        13.5870   16.9220   46.3110 O.3       1 NAP400      0.0000 
     35 C1D        15.1480   15.3810   45.3230 C.3       1 NAP400      0.0000 
     36 N1N        15.6110   14.4100   46.3390 N.pl3     1 NAP400      0.0000 
     37 C2N        16.8210   14.5200   47.0970 C.ar      1 NAP400      0.0000 
     38 C3N        17.1010   13.5000   48.0200 C.ar      1 NAP400      0.0000 
     39 C7N        18.3850   13.5660   48.8580 C.2       1 NAP400      0.0000 
     40 O7N        18.5690   12.6500   49.6380 O.2       1 NAP400      0.0000 
     41 N7N        19.2270   14.5560   48.7310 N.am      1 NAP400      0.0000 
     42 C4N        16.1930   12.3610   48.2050 C.ar      1 NAP400      0.0000 
     43 C5N        15.0120   12.3090   47.4250 C.ar      1 NAP400      0.0000 
     44 C6N        14.7040   13.3270   46.4860 C.ar      1 NAP400      0.0000 
     45 P2B        19.6380   27.2180   44.3960 P.3       1 NAP400      0.0000 
     46 O1X        21.0780   26.7400   44.6040 O.co2     1 NAP400      0.0000 
     47 O2X        19.5310   28.4800   43.6060 O.co2     1 NAP400      0.0000 
     48 O3X        18.8370   27.1720   45.6890 O.co2     1 NAP400      0.0000 
     49 H          17.8666   22.6240   45.7154 H         1 NAP400      0.0000 
     50 H          17.4847   21.0754   44.9434 H         1 NAP400      0.0000 
     51 H          18.8567   21.7510   43.0168 H         1 NAP400      0.0000 
     52 H          20.0070   23.6581   44.5756 H         1 NAP400      0.0000 
     53 H          18.0482   24.8807   44.7724 H         1 NAP400      0.0000 
     54 H          17.6604   24.5317   41.8462 H         1 NAP400      0.0000 
     55 H          15.5290   24.7862   45.0914 H         1 NAP400      0.0000 
     56 H          15.4904   27.3900   39.2153 H         1 NAP400      0.0000 
     57 H          18.4456   16.7188   43.7929 H         1 NAP400      0.0000 
     58 H          17.7792   18.3226   43.4411 H         1 NAP400      0.0000 
     59 H          16.1113   16.7625   42.7796 H         1 NAP400      0.0000 
     60 H          15.4647   18.5383   44.7708 H         1 NAP400      0.0000 
     61 H          15.6674   17.0442   46.4649 H         1 NAP400      0.0000 
     62 H          14.3199   14.9888   44.7753 H         1 NAP400      0.0000 
     63 H          17.4349   15.2995   46.9641 H         1 NAP400      0.0000 
     64 H          18.9913   15.2496   48.0503 H         1 NAP400      0.0000 
     65 H          20.0302   14.5296   49.3262 H         1 NAP400      0.0000 
     66 H          16.4239   11.6524   48.8707 H         1 NAP400      0.0000 
     67 H          14.3644   11.5185   47.5407 H         1 NAP400      0.0000 
     68 H          13.8609   13.2832   45.9355 H         1 NAP400      0.0000 
     69 H          20.7426   24.5123   42.4818 H         1 NAP400      0.0000 
     70 H          12.5914   29.0476   41.9577 H         1 NAP400      0.0000 
     71 H          14.3620   17.5637   42.6916 H         1 NAP400      0.0000 
     72 H          13.6752   17.6471   46.9940 H         1 NAP400      0.0000 
@<TRIPOS>BOND
     1    2    1 ar   
     2    3    1 ar   
     3    4    1 1    
     4   23    1 1    
     5    5    4 1    
     6    6    5 1    
     7   49    5 1    
     8   50    5 1    
     9    7    6 1    
    10    8    6 1    
    11   51    6 1    
    12   12    7 1    
    13    9    8 1    
    14   10    8 1    
    15   52    8 1    
    16   69    9 1    
    17   11   10 1    
    18   12   10 1    
    19   53   10 1    
    20   45   11 1    
    21   13   12 1    
    22   54   12 1    
    23   14   13 1    
    24   22   13 1    
    25   15   14 2    
    26   55   14 1    
    27   16   15 1    
    28   17   16 ar   
    29   22   16 ar   
    30   18   17 1    
    31   19   17 ar   
    32   70   18 1    
    33   20   19 ar   
    34   21   20 ar   
    35   56   20 1    
    36   22   21 ar   
    37   24   23 1    
    38   25   24 ar   
    39   26   24 ar   
    40   27   24 1    
    41   28   27 1    
    42   29   28 1    
    43   57   28 1    
    44   58   28 1    
    45   30   29 1    
    46   31   29 1    
    47   59   29 1    
    48   35   30 1    
    49   32   31 1    
    50   33   31 1    
    51   60   31 1    
    52   71   32 1    
    53   34   33 1    
    54   35   33 1    
    55   61   33 1    
    56   72   34 1    
    57   36   35 1    
    58   62   35 1    
    59   37   36 ar   
    60   44   36 ar   
    61   38   37 ar   
    62   63   37 1    
    63   39   38 1    
    64   42   38 ar   
    65   40   39 2    
    66   41   39 am   
    67   64   41 1    
    68   65   41 1    
    69   43   42 ar   
    70   66   42 1    
    71   44   43 ar   
    72   67   43 1    
    73   68   44 1    
    74   46   45 ar   
    75   47   45 ar   
    76   48   45 ar   
@<TRIPOS>SUBSTRUCTURE
     1 NAP400      1 GROUP   
@<TRIPOS>SET

