#    Name: 3nsq_CHZ_1_INTS_M
#    Modification time : Tue Mar 25 02:05:40 2014

@<TRIPOS>MOLECULE
3nsq_CHZ_1_INTS_M
   20     0     3     0     0
SMALL
NO_CHARGES


@<TRIPOS>ATOM
      1 CA         52.1480  -12.9460    8.9295 C.3       1 GLC5        0.0000 
      2 CA         52.5480  -15.0310    9.4560 C.3       3 GLL5        0.0000 
      3 CA         51.7480  -10.8610    8.4030 C.3       2 GLP5        0.0000 
      4 CA         50.4810  -14.5230    9.0220 C.3       1 GLC5        0.0000 
      5 CA         48.4140  -14.0150    8.5880 C.3       2 GLP5        0.0000 
      6 CA         52.9305  -12.4470   10.4335 C.3       1 GLC5        0.0000 
      7 CA         52.5200  -14.5230   10.7460 C.3       3 GLL5        0.0000 
      8 CA         53.3410  -10.3710   10.1210 C.3       2 GLP5        0.0000 
      9 CA         51.4535  -13.5695   11.7875 C.3       1 GLC5        0.0000 
     10 CA         50.3870  -12.6160   12.8290 C.3       2 GLP5        0.0000 
     11 CA         52.3390  -13.9065   12.8775 C.3       1 GLC5        0.0000 
     12 CA         53.4500  -14.9500   11.6860 C.3       3 GLL5        0.0000 
     13 CA         51.2280  -12.8630   14.0690 C.3       2 GLP5        0.0000 
     14 CA         54.8495  -20.4023    7.3157 C.3       1 GLC5        0.0000 
     15 CA         55.4900  -18.8710    5.8160 C.3       3 GLL5        0.0000 
     16 CA         53.7440  -21.7190    8.3460 C.3       2 GLP5        0.0000 
     17 CA         54.3566  -19.7394    7.9755 C.3       1 GLC5        0.0000 
     18 CA         55.4260  -17.8460    8.3970 C.3       3 GLL5        0.0000 
     19 CA         51.6315  -16.3347   11.2688 C.3       1 GLC5        0.0000 
     20 CA         50.2710  -17.8060   11.6440 C.3       2 GLP5        0.0000 
@<TRIPOS>BOND
@<TRIPOS>SUBSTRUCTURE
     1 GLC5        1 GROUP        1 X    GLC  0     ROOT GLC X 6
     2 GLP5        3 GROUP        1 Y    GLP  0     ROOT GLP Y 13
     3 GLL5        2 GROUP        1 Z    GLL  0     ROOT GLL Z 20
@<TRIPOS>SET

