#    Name: 3nsq_CHZ_1_ligand
#    Modification time : Tue Mar 25 02:05:40 2014

@<TRIPOS>MOLECULE
3nsq_CHZ_1_ligand
   24    26     1     0     0
SMALL
NO_CHARGES


@<TRIPOS>ATOM
      1 OAA        52.7090  -16.0920    6.9920 O.2       1 CHZ1        0.0000 
      2 CAM        53.5360  -16.4780    7.8160 C.2       1 CHZ1        0.0000 
      3 CAO        54.4960  -17.4180    7.4590 C.ar      1 CHZ1        0.0000 
      4 CAI        54.5290  -17.9290    6.1670 C.ar      1 CHZ1        0.0000 
      5 CAE        55.4900  -18.8710    5.8160 C.ar      1 CHZ1        0.0000 
      6 CAG        56.4200  -19.3000    6.7550 C.ar      1 CHZ1        0.0000 
      7 CAK        56.3840  -18.7840    8.0450 C.ar      1 CHZ1        0.0000 
      8 OAC        57.2860  -19.1940    8.9700 O.co2     1 CHZ1        0.0000 
      9 CAQ        55.4260  -17.8460    8.3970 C.ar      1 CHZ1        0.0000 
     10 CAN        55.4010  -17.3390    9.6910 C.2       1 CHZ1        0.0000 
     11 OAB        56.2260  -17.7200   10.5220 O.2       1 CHZ1        0.0000 
     12 CAR        54.4400  -16.3990   10.0450 C.ar      1 CHZ1        0.0000 
     13 CAP        53.5100  -15.9690    9.1070 C.ar      1 CHZ1        0.0000 
     14 CAJ        52.5480  -15.0310    9.4560 C.ar      1 CHZ1        0.0000 
     15 CAF        52.5200  -14.5230   10.7460 C.ar      1 CHZ1        0.0000 
     16 CAH        53.4500  -14.9500   11.6860 C.ar      1 CHZ1        0.0000 
     17 CAL        54.4120  -15.8890   11.3360 C.ar      1 CHZ1        0.0000 
     18 OAD        55.3250  -16.3080   12.2540 O.co2     1 CHZ1        0.0000 
     19 H          53.8429  -17.6108    5.4701 H         1 CHZ1        0.0000 
     20 H          55.5119  -19.2504    4.8598 H         1 CHZ1        0.0000 
     21 H          57.1303  -19.9947    6.4974 H         1 CHZ1        0.0000 
     22 H          51.8604  -14.7151    8.7614 H         1 CHZ1        0.0000 
     23 H          51.8077  -13.8265   11.0097 H         1 CHZ1        0.0000 
     24 H          53.4259  -14.5702   12.6421 H         1 CHZ1        0.0000 
@<TRIPOS>BOND
     1    2    1 2    
     2    3    2 1    
     3   13    2 1    
     4    4    3 ar   
     5    9    3 ar   
     6    5    4 ar   
     7   19    4 1    
     8    6    5 ar   
     9   20    5 1    
    10    7    6 ar   
    11   21    6 1    
    12    8    7 ar   
    13    9    7 ar   
    14   10    9 1    
    15   11   10 2    
    16   12   10 1    
    17   13   12 ar   
    18   17   12 ar   
    19   14   13 ar   
    20   15   14 ar   
    21   22   14 1    
    22   16   15 ar   
    23   23   15 1    
    24   17   16 ar   
    25   24   16 1    
    26   18   17 ar   
@<TRIPOS>SUBSTRUCTURE
     1 CHZ1        1 GROUP   
@<TRIPOS>SET

