#    Name: 4hlc_T05_2_INTS_M
#    Modification time : Tue Mar 25 01:09:51 2014

@<TRIPOS>MOLECULE
4hlc_T05_2_INTS_M
   74     0    12     0     0
SMALL
NO_CHARGES


@<TRIPOS>ATOM
      1 CA         20.1390    7.2275   34.4900 C.3       4 GLC5        0.0000 
      2 CA         20.9970    5.3660   35.3650 C.3      12 GLL5        0.0000 
      3 CA         19.2810    9.0890   33.6150 C.3       8 GLP5        0.0000 
      4 CA         22.2515    1.9470   37.4740 C.3       4 GLC5        0.0000 
      5 CA         22.3030    4.1010   36.9130 C.3      12 GLL5        0.0000 
      6 CA         22.2000   -0.2070   38.0350 C.3       8 GLP5        0.0000 
      7 CA         21.7580    5.2295   38.4070 C.3       4 GLC5        0.0000 
      8 CA         21.0960    4.6650   36.5470 C.3      12 GLL5        0.0000 
      9 CA         22.4200    5.7940   40.2670 C.3       8 GLP5        0.0000 
     10 CA         25.4175    0.0825   28.0760 C.3       4 GLC5        0.0000 
     11 CA         25.9950    1.4060   29.2950 C.3      12 GLL5        0.0000 
     12 CA         24.8400   -1.2410   26.8570 C.3       8 GLP5        0.0000 
     13 CA         24.1295    3.6405   28.5860 C.3       4 GLC5        0.0000 
     14 CA         24.5580    1.9240   29.2580 C.3      12 GLL5        0.0000 
     15 CA         23.7010    5.3570   27.9140 C.3       8 GLP5        0.0000 
     16 CA         24.6185    0.8710   27.6215 C.3       4 GLC5        0.0000 
     17 CA         24.6790   -0.1820   25.9850 C.3       8 GLP5        0.0000 
     18 CA         23.7155   -0.3185   28.8600 C.3       4 GLC5        0.0000 
     19 CA         23.7170    1.2490   30.3420 C.3      12 GLL5        0.0000 
     20 CA         23.7140   -1.8860   27.3780 C.3       8 GLP5        0.0000 
     21 CA         18.5090    4.0745   38.8855 C.3       4 GLC5        0.0000 
     22 CA         19.8910    4.4760   37.3970 C.3      12 GLL5        0.0000 
     23 CA         17.1270    3.6730   40.3740 C.3       8 GLP5        0.0000 
     24 CA         20.7925    4.5000   39.0825 C.3       4 GLC5        0.0000 
     25 CA         21.6940    4.5240   40.7680 C.3       8 GLP5        0.0000 
     26 CA         19.9400    2.4695   38.2265 C.3       4 GLC5        0.0000 
     27 CA         19.9890    0.4630   39.0560 C.3       8 GLP5        0.0000 
     28 CA         19.6920    3.4375   35.6930 C.3       4 GLC5        0.0000 
     29 CA         19.4930    2.3990   33.9890 C.3       8 GLP5        0.0000 
     30 CA         18.3900    5.4670   37.3530 C.3       4 GLC5        0.0000 
     31 CA         16.8890    6.4580   37.3090 C.3       8 GLP5        0.0000 
     32 CA         19.9155    3.6245   32.2975 C.3       4 GLC5        0.0000 
     33 CA         20.3380    4.8500   30.6060 C.3      12 GLL5        0.0000 
     34 CA         21.0875    5.9315   29.1205 C.3       4 GLC5        0.0000 
     35 CA         21.8370    7.0130   27.6350 C.3       8 GLP5        0.0000 
     36 O          19.2370   -0.0455   30.2385 O.2       1 ALC1        0.0000 
     37 O          20.1040    1.0660   30.3280 O.2       9 ALL1        0.0000 
     38 O          18.3700   -1.1570   30.1490 O.2       5 ALP1        0.0000 
     39 N          17.7595    3.9410   30.3020 N.am      2 SEC2        0.0000 
     40 N          18.4760    2.6650   30.3710 N.am     10 SEL2        0.0000 
     41 N          17.0430    5.2170   30.2330 N.am      6 SEP2        0.0000 
     42 N          17.2985    2.1245   30.1210 N.am      2 SEC2        0.0000 
     43 N          16.1210    1.5840   29.8710 N.am      6 SEP2        0.0000 
     44 N          20.7340   -1.5735   30.7760 N.am      2 SEC2        0.0000 
     45 N          21.6960   -0.5640   30.3820 N.am     10 SEL2        0.0000 
     46 N          19.7720   -2.5830   31.1700 N.am      6 SEP2        0.0000 
     47 NZ         28.1215    5.8530   38.2485 N.4       3 LYC4        0.0000 
     48 NZ         28.0320    5.2490   37.0260 N.4      11 LYL4        0.0000 
     49 NZ         26.9740    6.6770   39.8940 N.4       7 LYP4        0.0000 
     50 N          26.9885    5.9245   38.0340 N.am      2 SEC2        0.0000 
     51 N          28.0320    5.2490   37.0260 N.am     10 SEL2        0.0000 
     52 N          25.9450    6.6000   39.0420 N.am      6 SEP2        0.0000 
     53 N          28.1215    5.8530   38.2485 N.am      2 SEC2        0.0000 
     54 N          28.2110    6.4570   39.4710 N.am      6 SEP2        0.0000 
     55 NZ         26.0370    6.3975   37.6650 N.4       3 LYC4        0.0000 
     56 NZ         26.1290    6.1950   36.2880 N.4      11 LYL4        0.0000 
     57 N          26.0370    6.3975   37.6650 N.am      2 SEC2        0.0000 
     58 N          26.1290    6.1950   36.2880 N.am     10 SEL2        0.0000 
     59 CA         23.3700    4.8562   38.1923 C.3       4 GLC5        0.0000 
     60 CA         23.8770    5.5340   39.8690 C.3       8 GLP5        0.0000 
     61 CA         26.3927    2.3058   37.0791 C.3       4 GLC5        0.0000 
     62 CA         25.5710    3.2590   35.6930 C.3      12 GLL5        0.0000 
     63 CA         26.6750    1.2700   38.7020 C.3       8 GLP5        0.0000 
     64 CA         21.7645    7.0030   36.4241 C.3       4 GLC5        0.0000 
     65 CA         22.2040    8.9580   37.0940 C.3       8 GLP5        0.0000 
     66 CA         21.0953    2.6093   32.2737 C.3       4 GLC5        0.0000 
     67 CA         20.7100    3.3990   30.5010 C.3      12 GLL5        0.0000 
     68 CA         20.8430    2.0320   34.0550 C.3       8 GLP5        0.0000 
     69 CA         22.5243    4.2717   29.2033 C.3       4 GLC5        0.0000 
     70 CA         22.6075    0.9858   32.5250 C.3       4 GLC5        0.0000 
     71 CA         21.1940    0.7000   34.0230 C.3       8 GLP5        0.0000 
     72 CA         20.5319    3.6941   28.6616 C.3       4 GLC5        0.0000 
     73 CA         21.9850    2.9740   30.4840 C.3      12 GLL5        0.0000 
     74 CA         20.2210    3.3700   26.7740 C.3       8 GLP5        0.0000 
@<TRIPOS>BOND
@<TRIPOS>SUBSTRUCTURE
     1 ALC1       36 GROUP        1 X    ALC  0     ROOT ALC X 1
     2 SEC2       39 GROUP        1 X    SEC  0     **** SEC X 2
     3 LYC4       47 GROUP        1 X    LYC  0     **** LYC X 4
     4 GLC5        1 GROUP        1 X    GLC  0     **** GLC X 6
     5 ALP1       38 GROUP        1 Y    ALP  0     ROOT ALP Y 8
     6 SEP2       41 GROUP        1 Y    SEP  0     **** SEP Y 9
     7 LYP4       49 GROUP        1 Y    LYP  0     **** LYP Y 11
     8 GLP5        3 GROUP        1 Y    GLP  0     **** GLP Y 13
     9 ALL1       37 GROUP        1 Z    ALL  0     ROOT ALL Z 15
    10 SEL2       40 GROUP        1 Z    SEL  0     **** SEL Z 16
    11 LYL4       48 GROUP        1 Z    LYL  0     **** LYL Z 18
    12 GLL5        2 GROUP        1 Z    GLL  0     **** GLL Z 20
@<TRIPOS>SET

