#    Name: 4hlc_T05_2_ligand
#    Modification time : Tue Mar 25 01:09:51 2014

@<TRIPOS>MOLECULE
4hlc_T05_2_ligand
   59    62     1     0     0
SMALL
NO_CHARGES


@<TRIPOS>ATOM
      1 C4         22.1110    5.4960   34.5580 C.ar      1 T05301      0.0000 
      2 C13        27.7310    3.5960   34.7180 C.ar      1 T05301      0.0000 
      3 C3         20.9970    5.3660   35.3650 C.ar      1 T05301      0.0000 
      4 C5         23.3350    4.9540   34.9250 C.ar      1 T05301      0.0000 
      5 C12        27.5830    2.4430   33.9750 C.ar      1 T05301      0.0000 
      6 C7         22.3030    4.1010   36.9130 C.ar      1 T05301      0.0000 
      7 C10        25.4110    2.0850   34.9740 C.ar      1 T05301      0.0000 
      8 C14        26.7300    4.0110   35.5790 C.ar      1 T05301      0.0000 
      9 C2         21.0960    4.6650   36.5470 C.ar      1 T05301      0.0000 
     10 C6         23.4230    4.2560   36.1180 C.ar      1 T05301      0.0000 
     11 C9         25.5710    3.2590   35.6930 C.ar      1 T05301      0.0000 
     12 C11        26.4220    1.7040   34.1030 C.ar      1 T05301      0.0000 
     13 C28        21.9850    2.9740   30.4840 C.2       1 T05301      0.0000 
     14 C29        20.7100    3.3990   30.5010 C.2       1 T05301      0.0000 
     15 C30        19.6620    2.3630   30.3920 C.2       1 T05301      0.0000 
     16 C33        21.4050    0.6310   30.3720 C.2       1 T05301      0.0000 
     17 C15        26.9650    5.2440   36.3550 C.2       1 T05301      0.0000 
     18 C23        25.9950    1.4060   29.2950 C.3       1 T05301      0.0000 
     19 C24        24.5580    1.9240   29.2580 C.3       1 T05301      0.0000 
     20 C22        26.5560    1.5390   30.7030 C.3       1 T05301      0.0000 
     21 C26        24.3250    1.2940   31.7120 C.3       1 T05301      0.0000 
     22 C25        23.7170    1.2490   30.3420 C.3       1 T05301      0.0000 
     23 C1         19.8910    4.4760   37.3970 C.3       1 T05301      0.0000 
     24 C35        20.3380    4.8500   30.6060 C.3       1 T05301      0.0000 
     25 N32        20.1040    1.0660   30.3280 N.am      1 T05301      0.0000 
     26 N27        22.3330    1.6450   30.3670 N.am      1 T05301      0.0000 
     27 N21        25.6910    0.7450   31.6020 N.pl3     1 T05301      0.0000 
     28 O31        18.4760    2.6650   30.3710 O.2       1 T05301      0.0000 
     29 O34        21.6960   -0.5640   30.3820 O.2       1 T05301      0.0000 
     30 O16        28.0320    5.2490   37.0260 O.co2     1 T05301      0.0000 
     31 O19        27.6080   -0.2960   32.8820 O.2       1 T05301      0.0000 
     32 O20        25.2430   -0.5700   33.7680 O.2       1 T05301      0.0000 
     33 O17        26.1290    6.1950   36.2880 O.co2     1 T05301      0.0000 
     34 O8         24.6060    3.6840   36.5960 O.3       1 T05301      0.0000 
     35 S18        26.2740    0.2280   33.1160 S.o2      1 T05301      0.0000 
     36 H          22.0337    6.0094   33.6576 H         1 T05301      0.0000 
     37 H          28.5968    4.1565   34.6322 H         1 T05301      0.0000 
     38 H          20.1033    5.7891   35.0845 H         1 T05301      0.0000 
     39 H          24.1537    5.0684   34.3262 H         1 T05301      0.0000 
     40 H          28.3242    2.1371   33.3356 H         1 T05301      0.0000 
     41 H          22.3695    3.5567   37.7916 H         1 T05301      0.0000 
     42 H          24.5739    1.5163   35.0814 H         1 T05301      0.0000 
     43 H          22.7692    3.6815   30.5633 H         1 T05301      0.0000 
     44 H          26.6021    1.9853   28.6067 H         1 T05301      0.0000 
     45 H          26.0070    0.3625   28.9971 H         1 T05301      0.0000 
     46 H          24.1244    1.7122   28.2837 H         1 T05301      0.0000 
     47 H          24.5589    2.9988   29.4220 H         1 T05301      0.0000 
     48 H          26.5468    2.5820   30.9874 H         1 T05301      0.0000 
     49 H          27.5685    1.1601   30.7147 H         1 T05301      0.0000 
     50 H          23.7307    0.6949   32.3904 H         1 T05301      0.0000 
     51 H          24.3568    2.3191   32.0592 H         1 T05301      0.0000 
     52 H          23.7262    0.1275   30.0585 H         1 T05301      0.0000 
     53 H          19.3421    0.3001   30.2321 H         1 T05301      0.0000 
     54 H          20.0968    3.9481   38.2210 H         1 T05301      0.0000 
     55 H          19.5072    5.3494   37.6967 H         1 T05301      0.0000 
     56 H          19.1659    3.9888   36.9103 H         1 T05301      0.0000 
     57 H          20.6851    5.2624   31.4483 H         1 T05301      0.0000 
     58 H          20.7063    5.3838   29.8448 H         1 T05301      0.0000 
     59 H          19.3465    4.9804   30.6028 H         1 T05301      0.0000 
@<TRIPOS>BOND
     1    3    1 ar   
     2    4    1 ar   
     3   36    1 1    
     4    5    2 ar   
     5    8    2 ar   
     6   37    2 1    
     7    9    3 ar   
     8   38    3 1    
     9   10    4 ar   
    10   39    4 1    
    11   12    5 ar   
    12   40    5 1    
    13    9    6 ar   
    14   10    6 ar   
    15   41    6 1    
    16   11    7 ar   
    17   12    7 ar   
    18   42    7 1    
    19   11    8 ar   
    20   17    8 1    
    21   23    9 1    
    22   34   10 1    
    23   34   11 1    
    24   35   12 1    
    25   14   13 2    
    26   26   13 1    
    27   43   13 1    
    28   15   14 1    
    29   24   14 1    
    30   25   15 am   
    31   28   15 2    
    32   25   16 am   
    33   26   16 am   
    34   29   16 2    
    35   30   17 ar   
    36   33   17 ar   
    37   19   18 1    
    38   20   18 1    
    39   44   18 1    
    40   45   18 1    
    41   22   19 1    
    42   46   19 1    
    43   47   19 1    
    44   27   20 1    
    45   48   20 1    
    46   49   20 1    
    47   22   21 1    
    48   27   21 1    
    49   50   21 1    
    50   51   21 1    
    51   26   22 1    
    52   52   22 1    
    53   54   23 1    
    54   55   23 1    
    55   56   23 1    
    56   57   24 1    
    57   58   24 1    
    58   59   24 1    
    59   53   25 1    
    60   35   27 1    
    61   35   31 2    
    62   35   32 2    
@<TRIPOS>SUBSTRUCTURE
     1 T05301      1 GROUP   
@<TRIPOS>SET

