#    Name: 2exl_GDM_2_INTS_M
#    Modification time : Tue Mar 25 12:13:08 2014

@<TRIPOS>MOLECULE
2exl_GDM_2_INTS_M
   57     0     9     0     0
SMALL
NO_CHARGES


@<TRIPOS>ATOM
      1 N          44.7215    8.8555  -34.3660 N.am      2 SEC2        0.0000 
      2 N          45.4770    7.7170  -33.8770 N.am      8 SEL2        0.0000 
      3 N          43.9660    9.9940  -34.8550 N.am      5 SEP2        0.0000 
      4 N          50.4125    0.3020  -39.5640 N.am      2 SEC2        0.0000 
      5 N          49.1610   -0.5750  -39.4610 N.am      8 SEL2        0.0000 
      6 N          51.6640    1.1790  -39.6670 N.am      5 SEP2        0.0000 
      7 N          51.1915    2.3110  -38.5620 N.am      2 SEC2        0.0000 
      8 N          50.7190    3.4430  -37.4570 N.am      8 SEL2        0.0000 
      9 O          43.8145    5.0580  -44.6905 O.2       1 ALC1        0.0000 
     10 O          44.2860    5.0810  -43.4440 O.2       7 ALL1        0.0000 
     11 O          43.3430    5.0350  -45.9370 O.2       4 ALP1        0.0000 
     12 CA         42.7055    3.4680  -35.5110 C.3       3 GLC5        0.0000 
     13 CA         44.2980    3.8840  -36.2910 C.3       9 GLL5        0.0000 
     14 CA         41.1130    3.0520  -34.7310 C.3       6 GLP5        0.0000 
     15 CA         43.6655    1.8585  -38.4760 C.3       3 GLC5        0.0000 
     16 CA         44.5960    3.3630  -37.7000 C.3       9 GLL5        0.0000 
     17 CA         42.7350    0.3540  -39.2520 C.3       6 GLP5        0.0000 
     18 CA         44.5735    1.1435  -39.6880 C.3       3 GLC5        0.0000 
     19 CA         46.4120    1.9330  -40.1240 C.3       9 GLL5        0.0000 
     20 CA         48.8440    6.9070  -33.8890 C.3       3 GLC5        0.0000 
     21 CA         48.0750    6.0420  -35.5320 C.3       9 GLL5        0.0000 
     22 CA         49.6130    7.7720  -32.2460 C.3       6 GLP5        0.0000 
     23 CA         42.9575    3.8875  -34.0960 C.3       3 GLC5        0.0000 
     24 CA         44.8020    4.7230  -33.4610 C.3       9 GLL5        0.0000 
     25 CA         43.5980    5.8095  -31.9060 C.3       3 GLC5        0.0000 
     26 CA         42.3940    6.8960  -30.3510 C.3       6 GLP5        0.0000 
     27 CA         41.7010    4.2585  -36.3590 C.3       3 GLC5        0.0000 
     28 CA         42.2890    5.4650  -37.9870 C.3       9 GLL5        0.0000 
     29 CA         41.3755    6.6130  -37.3005 C.3       3 GLC5        0.0000 
     30 CA         40.4620    7.7610  -36.6140 C.3       6 GLP5        0.0000 
     31 CA         46.7095    6.1455  -40.2930 C.3       3 GLC5        0.0000 
     32 CA         47.2830    4.3230  -40.0520 C.3       9 GLL5        0.0000 
     33 CA         46.1360    7.9680  -40.5340 C.3       6 GLP5        0.0000 
     34 CA         49.1765    4.9785  -40.9540 C.3       3 GLC5        0.0000 
     35 CA         51.0700    5.6340  -41.8560 C.3       6 GLP5        0.0000 
     36 CA         48.5945    2.1240  -43.1300 C.3       3 GLC5        0.0000 
     37 CA         48.3210    1.1760  -41.5280 C.3       9 GLL5        0.0000 
     38 CA         48.8680    3.0720  -44.7320 C.3       6 GLP5        0.0000 
     39 CA         50.1205    0.7350  -41.7385 C.3       3 GLC5        0.0000 
     40 CA         51.9200    0.2940  -41.9490 C.3       6 GLP5        0.0000 
     41 CA         48.2375   -0.0610  -42.9895 C.3       3 GLC5        0.0000 
     42 CA         48.1540   -1.2980  -44.4510 C.3       6 GLP5        0.0000 
     43 CA         44.9555   -3.1380  -37.1540 C.3       3 GLC5        0.0000 
     44 CA         46.4840   -1.7410  -37.1540 C.3       9 GLL5        0.0000 
     45 CA         43.4270   -4.5350  -37.1540 C.3       6 GLP5        0.0000 
     46 CA         45.4520   -1.4035  -35.5105 C.3       3 GLC5        0.0000 
     47 CA         44.4200   -1.0660  -33.8670 C.3       6 GLP5        0.0000 
     48 CA         45.7830    0.1250  -34.3855 C.3       3 GLC5        0.0000 
     49 CA         47.1460    1.3160  -34.9040 C.3       9 GLL5        0.0000 
     50 CA         45.2910    6.0068  -40.0120 C.3       3 GLC5        0.0000 
     51 CA         44.2020    4.3260  -38.8260 C.3       9 GLL5        0.0000 
     52 CA         43.1785    2.7218  -39.9900 C.3       3 GLC5        0.0000 
     53 CA         44.6900    3.7650  -40.1540 C.3       9 GLL5        0.0000 
     54 CA         41.9110    1.3980  -40.4900 C.3       6 GLP5        0.0000 
     55 CA         43.7563    6.5242  -34.8204 C.3       3 GLC5        0.0000 
     56 CA         45.0010    5.0410  -35.9690 C.3       9 GLL5        0.0000 
     57 CA         42.5390    8.0520  -35.2460 C.3       6 GLP5        0.0000 
@<TRIPOS>BOND
@<TRIPOS>SUBSTRUCTURE
     1 ALC1        9 GROUP        1 X    ALC  0     ROOT ALC X 1
     2 SEC2        1 GROUP        1 X    SEC  0     **** SEC X 2
     3 GLC5       12 GROUP        1 X    GLC  0     **** GLC X 6
     4 ALP1       11 GROUP        1 Y    ALP  0     ROOT ALP Y 8
     5 SEP2        3 GROUP        1 Y    SEP  0     **** SEP Y 9
     6 GLP5       14 GROUP        1 Y    GLP  0     **** GLP Y 13
     7 ALL1       10 GROUP        1 Z    ALL  0     ROOT ALL Z 15
     8 SEL2        2 GROUP        1 Z    SEL  0     **** SEL Z 16
     9 GLL5       13 GROUP        1 Z    GLL  0     **** GLL Z 20
@<TRIPOS>SET

