#    Name: 2exl_GDM_2_ligand
#    Modification time : Tue Mar 25 12:13:08 2014

@<TRIPOS>MOLECULE
2exl_GDM_2_ligand
   80    81     1     0     0
SMALL
NO_CHARGES


@<TRIPOS>ATOM
      1 O1         45.4770    7.7170  -33.8770 O.2       1 GDM302      0.0000 
      2 O2         42.7760    4.4890  -38.9130 O.3       1 GDM302      0.0000 
      3 O3         44.5120    4.7630  -41.1730 O.3       1 GDM302      0.0000 
      4 O4         44.5040    3.0190  -42.5820 O.2       1 GDM302      0.0000 
      5 O5         49.1610   -0.5750  -39.4610 O.3       1 GDM302      0.0000 
      6 O6         47.7220   -1.0260  -37.1140 O.3       1 GDM302      0.0000 
      7 O7         50.7190    3.4430  -37.4570 O.3       1 GDM302      0.0000 
      8 O8         50.1520    5.8330  -38.3710 O.2       1 GDM302      0.0000 
      9 O9         47.8680    4.2940  -33.8860 O.2       1 GDM302      0.0000 
     10 N1         47.3140    6.9340  -34.8960 N.am      1 GDM302      0.0000 
     11 N2         44.2860    5.0810  -43.4440 N.am      1 GDM302      0.0000 
     12 C1         46.0580    6.8050  -34.4640 C.2       1 GDM302      0.0000 
     13 C2         45.2890    5.4990  -34.6880 C.2       1 GDM302      0.0000 
     14 C3         45.0010    5.0410  -35.9690 C.2       1 GDM302      0.0000 
     15 C4         44.2980    3.8840  -36.2910 C.2       1 GDM302      0.0000 
     16 C5         44.5960    3.3630  -37.7000 C.2       1 GDM302      0.0000 
     17 C6         44.2020    4.3260  -38.8260 C.3       1 GDM302      0.0000 
     18 C7         44.6900    3.7650  -40.1540 C.3       1 GDM302      0.0000 
     19 C8         46.1480    3.2980  -40.1100 C.2       1 GDM302      0.0000 
     20 C9         46.4120    1.9330  -40.1240 C.2       1 GDM302      0.0000 
     21 C10        47.8400    1.3810  -40.0900 C.3       1 GDM302      0.0000 
     22 C11        47.8840    0.0450  -39.2880 C.3       1 GDM302      0.0000 
     23 C12        47.6070    0.2340  -37.7940 C.3       1 GDM302      0.0000 
     24 C13        48.6490    1.1880  -37.2050 C.3       1 GDM302      0.0000 
     25 C14        48.4710    1.3620  -35.6690 C.3       1 GDM302      0.0000 
     26 C15        49.4940    2.3600  -35.1180 C.3       1 GDM302      0.0000 
     27 C16        49.2490    3.7860  -35.6210 C.2       1 GDM302      0.0000 
     28 C17        49.8510    4.2520  -36.7890 C.2       1 GDM302      0.0000 
     29 C18        49.5960    5.5140  -37.3210 C.2       1 GDM302      0.0000 
     30 C19        48.7190    6.4040  -36.7090 C.2       1 GDM302      0.0000 
     31 C20        48.0750    6.0420  -35.5320 C.2       1 GDM302      0.0000 
     32 C21        48.3710    4.6380  -34.9540 C.2       1 GDM302      0.0000 
     33 C22        44.8020    4.7230  -33.4610 C.3       1 GDM302      0.0000 
     34 C23        42.2890    5.4650  -37.9870 C.3       1 GDM302      0.0000 
     35 C24        44.4400    4.2380  -42.4270 C.2       1 GDM302      0.0000 
     36 C25        47.2830    4.3230  -40.0520 C.3       1 GDM302      0.0000 
     37 C26        48.3210    1.1760  -41.5280 C.3       1 GDM302      0.0000 
     38 C27        46.4840   -1.7410  -37.1540 C.3       1 GDM302      0.0000 
     39 C28        47.1460    1.3160  -34.9040 C.3       1 GDM302      0.0000 
     40 C29        52.0650    3.6510  -37.0170 C.3       1 GDM302      0.0000 
     41 H          47.7889    7.9151  -34.6997 H         1 GDM302      0.0000 
     42 H          44.2350    6.0513  -43.2074 H         1 GDM302      0.0000 
     43 H          44.2350    4.6686  -44.3536 H         1 GDM302      0.0000 
     44 H          45.3546    5.6366  -36.7881 H         1 GDM302      0.0000 
     45 H          43.6755    3.4080  -35.7380 H         1 GDM302      0.0000 
     46 H          44.9865    2.5257  -37.8613 H         1 GDM302      0.0000 
     47 H          44.6953    5.2664  -38.6620 H         1 GDM302      0.0000 
     48 H          44.0690    2.8908  -40.3899 H         1 GDM302      0.0000 
     49 H          45.6717    1.2294  -40.1575 H         1 GDM302      0.0000 
     50 H          48.4762    2.0943  -39.6046 H         1 GDM302      0.0000 
     51 H          47.0989   -0.5978  -39.6949 H         1 GDM302      0.0000 
     52 H          46.6422    0.6657  -37.6706 H         1 GDM302      0.0000 
     53 H          48.5565    2.1656  -37.6774 H         1 GDM302      0.0000 
     54 H          49.6487    0.7989  -37.3960 H         1 GDM302      0.0000 
     55 H          49.0222    0.3127  -35.2701 H         1 GDM302      0.0000 
     56 H          50.4988    2.0435  -35.4160 H         1 GDM302      0.0000 
     57 H          49.4466    2.3536  -34.0243 H         1 GDM302      0.0000 
     58 H          48.5483    7.3269  -37.1270 H         1 GDM302      0.0000 
     59 H          45.5607    4.4475  -32.8706 H         1 GDM302      0.0000 
     60 H          44.1776    5.2675  -32.9010 H         1 GDM302      0.0000 
     61 H          44.3134    3.8894  -33.7186 H         1 GDM302      0.0000 
     62 H          42.4945    5.2144  -37.0410 H         1 GDM302      0.0000 
     63 H          42.6959    6.3643  -38.1470 H         1 GDM302      0.0000 
     64 H          41.2973    5.5762  -38.0519 H         1 GDM302      0.0000 
     65 H          48.1805    3.8825  -40.0297 H         1 GDM302      0.0000 
     66 H          47.2748    4.9315  -40.8455 H         1 GDM302      0.0000 
     67 H          47.2200    4.9012  -39.2386 H         1 GDM302      0.0000 
     68 H          49.2532    0.8156  -41.5600 H         1 GDM302      0.0000 
     69 H          47.7404    0.5315  -42.0255 H         1 GDM302      0.0000 
     70 H          48.3196    2.0316  -42.0456 H         1 GDM302      0.0000 
     71 H          46.1950   -1.9311  -38.0923 H         1 GDM302      0.0000 
     72 H          46.5479   -2.6209  -36.6831 H         1 GDM302      0.0000 
     73 H          45.7446   -1.2281  -36.7178 H         1 GDM302      0.0000 
     74 H          47.2792    1.4501  -33.9220 H         1 GDM302      0.0000 
     75 H          46.5135    2.0260  -35.2136 H         1 GDM302      0.0000 
     76 H          46.6808    0.4384  -35.0195 H         1 GDM302      0.0000 
     77 H          52.7096    3.0595  -37.5013 H         1 GDM302      0.0000 
     78 H          52.3631    4.5938  -37.1664 H         1 GDM302      0.0000 
     79 H          52.1700    3.4616  -36.0407 H         1 GDM302      0.0000 
     80 H          48.9781   -1.3985  -39.9979 H         1 GDM302      0.0000 
@<TRIPOS>BOND
     1   12    1 2    
     2   17    2 1    
     3   34    2 1    
     4   18    3 1    
     5   35    3 1    
     6   35    4 2    
     7   22    5 1    
     8   80    5 1    
     9   23    6 1    
    10   38    6 1    
    11   28    7 1    
    12   40    7 1    
    13   29    8 2    
    14   32    9 2    
    15   12   10 am   
    16   31   10 1    
    17   41   10 1    
    18   35   11 am   
    19   42   11 1    
    20   43   11 1    
    21   13   12 1    
    22   14   13 2    
    23   33   13 1    
    24   15   14 1    
    25   44   14 1    
    26   16   15 2    
    27   45   15 1    
    28   17   16 1    
    29   46   16 1    
    30   18   17 1    
    31   47   17 1    
    32   19   18 1    
    33   48   18 1    
    34   20   19 2    
    35   36   19 1    
    36   21   20 1    
    37   49   20 1    
    38   22   21 1    
    39   37   21 1    
    40   50   21 1    
    41   23   22 1    
    42   51   22 1    
    43   24   23 1    
    44   52   23 1    
    45   25   24 1    
    46   53   24 1    
    47   54   24 1    
    48   26   25 1    
    49   39   25 1    
    50   55   25 1    
    51   27   26 1    
    52   56   26 1    
    53   57   26 1    
    54   28   27 2    
    55   32   27 1    
    56   29   28 1    
    57   30   29 1    
    58   31   30 2    
    59   58   30 1    
    60   32   31 1    
    61   59   33 1    
    62   60   33 1    
    63   61   33 1    
    64   62   34 1    
    65   63   34 1    
    66   64   34 1    
    67   65   36 1    
    68   66   36 1    
    69   67   36 1    
    70   68   37 1    
    71   69   37 1    
    72   70   37 1    
    73   71   38 1    
    74   72   38 1    
    75   73   38 1    
    76   74   39 1    
    77   75   39 1    
    78   76   39 1    
    79   77   40 1    
    80   78   40 1    
    81   79   40 1    
@<TRIPOS>SUBSTRUCTURE
     1 GDM302      1 GROUP   
@<TRIPOS>SET

