#    Name: 2BMB_1_CAVITY_N1_6.mol2
#    Modification time : Tue Mar 11 04:19:22 2014

@<TRIPOS>MOLECULE
2BMB_1_CAVITY_N1_6.mol2
   75     0     6     0     0
SMALL
NO_CHARGES


@<TRIPOS>ATOM
      1 CA         11.4000   15.2087   60.2608 C.3       6 GLY6        0.0000 
      2 CA         10.5127   14.2798   59.4863 C.3       6 GLY6        0.0000 
      3 N          11.6049   14.0770   58.4783 N.2       2 ALA2        0.0000 
      4 OD1         9.6255   13.3508   58.7118 O.3       3 ASP3        0.0000 
      5 NZ         10.7177   13.1480   57.7039 N.2       4 LYS4        0.0000 
      6 OG         10.8805   16.3689   59.4644 O.2       1 SER1        0.0000 
      7 OG         11.9727   16.1661   58.4565 O.2       1 SER1        0.0000 
      8 O           9.9932   15.4399   58.6899 O.2       2 ALA2        0.0000 
      9 O          11.0854   15.2371   57.6820 O.2       2 ALA2        0.0000 
     10 CA          3.6450   15.5250   62.9552 C.3       6 GLY6        0.0000 
     11 O           9.1060   14.5110   57.9154 O.2       2 ALA2        0.0000 
     12 OD1         3.8499   14.3932   61.1728 O.3       3 ASP3        0.0000 
     13 CA          9.2687   17.7318   59.6760 C.3       6 GLY6        0.0000 
     14 CA         10.3609   17.5290   58.6681 C.3       6 GLY6        0.0000 
     15 N          11.4532   17.3262   57.6601 N.2       2 ALA2        0.0000 
     16 CA          5.1049   17.4113   61.9254 C.3       6 GLY6        0.0000 
     17 O           8.3815   16.8029   58.9015 O.2       2 ALA2        0.0000 
     18 O           9.4737   16.6000   57.8936 O.2       2 ALA2        0.0000 
     19 CA          3.1255   16.6851   62.1588 C.3       6 GLY6        0.0000 
     20 O           4.2177   16.4823   61.1509 O.2       2 ALA2        0.0000 
     21 O           7.4943   15.8739   58.1270 O.2       2 ALA2        0.0000 
     22 O           8.5865   15.6711   57.1191 O.2       2 ALA2        0.0000 
     23 O           2.2382   15.7562   61.3843 O.2       2 ALA2        0.0000 
     24 O           3.3304   15.5534   60.3764 O.2       2 ALA2        0.0000 
     25 CA          1.3510   14.8272   60.6098 C.3       6 GLY6        0.0000 
     26 CA          2.4432   14.6244   59.6019 C.3       6 GLY6        0.0000 
     27 OG          9.8414   18.6891   57.8717 O.2       1 SER1        0.0000 
     28 CA          2.4010   18.9770   63.1449 C.3       6 GLY6        0.0000 
     29 CA          3.4932   18.7742   62.1369 C.3       6 GLY6        0.0000 
     30 N           4.5854   18.5714   61.1290 N.2       2 ALA2        0.0000 
     31 CA          5.6776   18.3686   60.1210 C.3       6 GLY6        0.0000 
     32 OG          6.7698   18.1658   59.1131 O.2       1 SER1        0.0000 
     33 OG          7.8620   17.9630   58.1051 O.2       1 SER1        0.0000 
     34 N           8.9542   17.7602   57.0972 N.2       2 ALA2        0.0000 
     35 CA          1.5137   18.0481   62.3704 C.3       6 GLY6        0.0000 
     36 CA          2.6059   17.8453   61.3625 C.3       6 GLY6        0.0000 
     37 CA          3.6981   17.6425   60.3545 C.3       6 GLY6        0.0000 
     38 O           4.7903   17.4396   59.3466 O.2       2 ALA2        0.0000 
     39 O           5.8825   17.2368   58.3386 O.2       2 ALA2        0.0000 
     40 O           6.9747   17.0340   57.3307 O.2       2 ALA2        0.0000 
     41 O           8.0669   16.8312   56.3227 O.2       2 ALA2        0.0000 
     42 CA          0.6265   17.1191   61.5959 C.3       6 GLY6        0.0000 
     43 CA          1.7187   16.9163   60.5880 C.3       6 GLY6        0.0000 
     44 CA          2.8109   16.7135   59.5800 C.3       6 GLY6        0.0000 
     45 O           3.9031   16.5107   58.5721 O.2       2 ALA2        0.0000 
     46 O           4.9953   16.3079   57.5641 O.2       2 ALA2        0.0000 
     47 N           6.0875   16.1051   56.5562 N.2       2 ALA2        0.0000 
     48 N           7.1797   15.9023   55.5482 N.2       2 ALA2        0.0000 
     49 CA          1.9237   15.7845   58.8055 C.3       6 GLY6        0.0000 
     50 N           3.0159   15.5817   57.7976 N.2       2 ALA2        0.0000 
     51 O           4.1081   15.3789   56.7896 O.2       2 ALA2        0.0000 
     52 CZ          2.9737   19.9343   61.3406 C.ar      5 PHE5        0.0000 
     53 CZ          4.0659   19.7315   60.3326 C.ar      5 PHE5        0.0000 
     54 OG          5.1581   19.5287   59.3247 O.2       1 SER1        0.0000 
     55 OG          6.2503   19.3259   58.3167 O.2       1 SER1        0.0000 
     56 OG          7.3425   19.1231   57.3088 O.2       1 SER1        0.0000 
     57 N           8.4347   18.9203   56.3008 N.2       2 ALA2        0.0000 
     58 CA          0.9942   19.2082   61.5740 C.3       6 GLY6        0.0000 
     59 CA          3.1786   18.8026   59.5581 C.3       6 GLY6        0.0000 
     60 CA          4.2708   18.5998   58.5502 C.3       6 GLY6        0.0000 
     61 O           5.3630   18.3970   57.5422 O.2       2 ALA2        0.0000 
     62 O           6.4552   18.1942   56.5343 O.2       2 ALA2        0.0000 
     63 O           7.5474   17.9913   55.5263 O.2       2 ALA2        0.0000 
     64 CA          3.3836   17.6708   57.7757 C.3       6 GLY6        0.0000 
     65 O           4.4758   17.4680   56.7677 O.2       2 ALA2        0.0000 
     66 O           5.5680   17.2652   55.7598 O.2       2 ALA2        0.0000 
     67 CA          2.4963   16.7419   57.0012 C.3       6 GLY6        0.0000 
     68 N           3.5885   16.5390   55.9933 N.2       2 ALA2        0.0000 
     69 CZ          4.6386   20.6889   58.5283 C.ar      5 PHE5        0.0000 
     70 OG          5.7308   20.4861   57.5204 O.2       1 SER1        0.0000 
     71 OG          6.8230   20.2832   56.5124 O.2       1 SER1        0.0000 
     72 OD1         3.7513   19.7599   57.7538 O.3       3 ASP3        0.0000 
     73 O           4.8435   19.5571   56.7459 O.2       2 ALA2        0.0000 
     74 O           3.9563   18.6281   55.9714 O.2       2 ALA2        0.0000 
     75 O           3.0690   17.6992   55.1969 O.2       2 ALA2        0.0000 
@<TRIPOS>BOND
@<TRIPOS>SUBSTRUCTURE
     1 SER1        6 GROUP   
     2 ALA2        3 GROUP   
     3 ASP3        4 GROUP   
     4 LYS4        5 GROUP   
     5 PHE5       52 GROUP   
     6 GLY6        1 GROUP   
@<TRIPOS>SET

