#    Name: 2bmb_PMM_1_INTS_M
#    Modification time : Mon Mar 24 21:12:15 2014

@<TRIPOS>MOLECULE
2bmb_PMM_1_INTS_M
   45     0    12     0     0
SMALL
NO_CHARGES


@<TRIPOS>ATOM
      1 N           2.1285   20.1420   57.0605 N.am      2 SEC2        0.0000 
      2 N           3.4890   20.6970   56.6930 N.am     10 SEL2        0.0000 
      3 N           0.7680   19.5870   57.4280 N.am      6 SEP2        0.0000 
      4 CA          7.0135   21.5030   58.3155 C.3       4 GLC5        0.0000 
      5 CA          5.9090   20.9420   56.5510 C.3      12 GLL5        0.0000 
      6 CA          8.1180   22.0640   60.0800 C.3       8 GLP5        0.0000 
      7 CA          5.7635   23.1110   56.7335 C.3       4 GLC5        0.0000 
      8 CA          5.6180   25.2800   56.9160 C.3       8 GLP5        0.0000 
      9 N           5.3230   24.1250   53.2890 N.am      2 SEC2        0.0000 
     10 N           4.3550   23.5670   54.4420 N.am     10 SEL2        0.0000 
     11 N           6.2910   24.6830   52.1360 N.am      6 SEP2        0.0000 
     12 O           4.1380   25.8600   52.8530 O.2       1 ALC1        0.0000 
     13 O           3.0480   25.0840   53.2580 O.2       9 ALL1        0.0000 
     14 O           5.2280   26.6360   52.4480 O.2       5 ALP1        0.0000 
     15 O           1.6310   25.0720   53.3395 O.2       1 ALC1        0.0000 
     16 O           0.2140   25.0600   53.4210 O.2       5 ALP1        0.0000 
     17 O           1.1010   24.2390   53.9750 O.2       1 ALC1        0.0000 
     18 O           1.9880   23.4180   54.5290 O.2       9 ALL1        0.0000 
     19 CA          4.3725   20.9870   58.8505 C.3       4 GLC5        0.0000 
     20 CA          4.7310   19.0850   57.9760 C.3      12 GLL5        0.0000 
     21 CA          4.0140   22.8890   59.7250 C.3       8 GLP5        0.0000 
     22 NZ          6.7580   15.9965   59.3215 N.4       3 LYC4        0.0000 
     23 NZ          6.8570   17.1030   58.2200 N.4      11 LYL4        0.0000 
     24 NZ          6.2080   13.6840   60.0780 N.4       7 LYP4        0.0000 
     25 N           6.7580   15.9965   59.3215 N.am      2 SEC2        0.0000 
     26 N           6.8570   17.1030   58.2200 N.am     10 SEL2        0.0000 
     27 N           6.6590   14.8900   60.4230 N.am      6 SEP2        0.0000 
     28 NZ          5.9220   18.4025   54.7075 N.4       3 LYC4        0.0000 
     29 NZ          6.8260   17.5800   55.7290 N.4      11 LYL4        0.0000 
     30 NZ          5.8430   20.0060   52.9990 N.4       7 LYP4        0.0000 
     31 N           5.9220   18.4025   54.7075 N.am      2 SEC2        0.0000 
     32 N           6.8260   17.5800   55.7290 N.am     10 SEL2        0.0000 
     33 N           5.0180   19.2250   53.6860 N.am      6 SEP2        0.0000 
     34 N           6.9900   18.7640   54.4810 N.am      2 SEC2        0.0000 
     35 N           7.1540   19.9480   53.2330 N.am      6 SEP2        0.0000 
     36 N           5.5680   14.5680   57.7655 N.am      2 SEC2        0.0000 
     37 N           5.5020   15.6310   56.6370 N.am     10 SEL2        0.0000 
     38 N           5.6340   13.5050   58.8940 N.am      6 SEP2        0.0000 
     39 CA          2.8072   19.1115   58.0035 C.3       4 GLC5        0.0000 
     40 CA          0.9280   18.5390   58.4930 C.3       8 GLP5        0.0000 
     41 CA          4.7652   23.7258   56.2272 C.3       4 GLC5        0.0000 
     42 CA          3.3160   21.8330   55.8010 C.3      12 GLL5        0.0000 
     43 CA          3.9307   21.5748   53.6448 C.3       4 GLC5        0.0000 
     44 CA          4.5090   22.5100   55.2760 C.3      12 GLL5        0.0000 
     45 CA          3.9490   20.9780   51.7510 C.3       8 GLP5        0.0000 
@<TRIPOS>BOND
@<TRIPOS>SUBSTRUCTURE
     1 ALC1       12 GROUP        1 X    ALC  0     ROOT ALC X 1
     2 SEC2        1 GROUP        1 X    SEC  0     **** SEC X 2
     3 LYC4       22 GROUP        1 X    LYC  0     **** LYC X 4
     4 GLC5        4 GROUP        1 X    GLC  0     **** GLC X 6
     5 ALP1       14 GROUP        1 Y    ALP  0     ROOT ALP Y 8
     6 SEP2        3 GROUP        1 Y    SEP  0     **** SEP Y 9
     7 LYP4       24 GROUP        1 Y    LYP  0     **** LYP Y 11
     8 GLP5        6 GROUP        1 Y    GLP  0     **** GLP Y 13
     9 ALL1       13 GROUP        1 Z    ALL  0     ROOT ALL Z 15
    10 SEL2        2 GROUP        1 Z    SEL  0     **** SEL Z 16
    11 LYL4       23 GROUP        1 Z    LYL  0     **** LYL Z 18
    12 GLL5        5 GROUP        1 Z    GLL  0     **** GLL Z 20
@<TRIPOS>SET

