#    Name: 2bmb_PMM_1_ligand
#    Modification time : Mon Mar 24 21:12:16 2014

@<TRIPOS>MOLECULE
2bmb_PMM_1_ligand
   24    25     1     0     0
SMALL
NO_CHARGES


@<TRIPOS>ATOM
      1 N5          3.4890   20.6970   56.6930 N.ar      1 PMM1865     0.0000 
      2 C6          4.6420   20.2830   57.0520 C.ar      1 PMM1865     0.0000 
      3 C7          5.9090   20.9420   56.5510 C.ar      1 PMM1865     0.0000 
      4 N8          5.7280   22.0700   55.6500 N.ar      1 PMM1865     0.0000 
      5 N1          4.3550   23.5670   54.4420 N.2       1 PMM1865     0.0000 
      6 C2          3.1250   24.0110   54.0820 C.2       1 PMM1865     0.0000 
      7 N2          3.0480   25.0840   53.2580 N.pl3     1 PMM1865     0.0000 
      8 N3          1.9880   23.4180   54.5290 N.am      1 PMM1865     0.0000 
      9 C4          2.0060   22.3620   55.3620 C.2       1 PMM1865     0.0000 
     10 O4          0.9470   21.8440   55.7580 O.2       1 PMM1865     0.0000 
     11 C4A         3.3160   21.8330   55.8010 C.ar      1 PMM1865     0.0000 
     12 C8A         4.5090   22.5100   55.2760 C.ar      1 PMM1865     0.0000 
     13 C9          4.7310   19.0850   57.9760 C.3       1 PMM1865     0.0000 
     14 O10         4.7640   17.8980   57.1590 O.3       1 PMM1865     0.0000 
     15 PA          6.0900   16.9920   56.9160 P.3       1 PMM1865     0.0000 
     16 O1P         6.8570   17.1030   58.2200 O.co2     1 PMM1865     0.0000 
     17 O2P         6.8260   17.5800   55.7290 O.co2     1 PMM1865     0.0000 
     18 O3P         5.5020   15.6310   56.6370 O.co2     1 PMM1865     0.0000 
     19 H           6.7751   20.6119   56.8297 H         1 PMM1865     0.0000 
     20 H           2.1271   25.4125   53.0483 H         1 PMM1865     0.0000 
     21 H           3.9189   25.4523   52.9326 H         1 PMM1865     0.0000 
     22 H           1.0576   23.8045   54.2074 H         1 PMM1865     0.0000 
     23 H           3.8640   19.0919   58.6333 H         1 PMM1865     0.0000 
     24 H           5.6330   19.1799   58.5769 H         1 PMM1865     0.0000 
@<TRIPOS>BOND
     1    2    1 ar   
     2   11    1 ar   
     3    3    2 ar   
     4   13    2 1    
     5    4    3 ar   
     6   19    3 1    
     7   12    4 ar   
     8    6    5 2    
     9   12    5 1    
    10    7    6 1    
    11    8    6 1    
    12   20    7 1    
    13   21    7 1    
    14    9    8 am   
    15   22    8 1    
    16   10    9 2    
    17   11    9 1    
    18   12   11 ar   
    19   14   13 1    
    20   23   13 1    
    21   24   13 1    
    22   15   14 1    
    23   16   15 ar   
    24   17   15 ar   
    25   18   15 ar   
@<TRIPOS>SUBSTRUCTURE
     1 PMM1865     1 GROUP   
@<TRIPOS>SET

