#    Name: 2npa_MMB_2_INTS_M
#    Modification time : Tue Mar 25 21:26:55 2014

@<TRIPOS>MOLECULE
2npa_MMB_2_INTS_M
   95     0     6     0     0
SMALL
NO_CHARGES


@<TRIPOS>ATOM
      1 CA         -6.2445   27.5155   22.9790 C.3       2 GLC5        0.0000 
      2 CA         -4.6260   26.8570   21.6190 C.3       6 GLL5        0.0000 
      3 CA         -7.8630   28.1740   24.3390 C.3       4 GLP5        0.0000 
      4 CA         -4.4040   25.7440   19.1185 C.3       2 GLC5        0.0000 
      5 CA         -5.6170   26.7680   20.4040 C.3       6 GLL5        0.0000 
      6 CA         -3.1910   24.7200   17.8330 C.3       4 GLP5        0.0000 
      7 CA         -6.4590   25.0590   19.3640 C.3       2 GLC5        0.0000 
      8 CA         -7.3010   23.3500   18.3240 C.3       4 GLP5        0.0000 
      9 N          -7.1185   25.8390   22.2600 N.am      1 SEC2        0.0000 
     10 N          -7.7090   26.8560   21.4340 N.am      5 SEL2        0.0000 
     11 N          -6.5280   24.8220   23.0860 N.am      3 SEP2        0.0000 
     12 N          -6.5395   29.8920   21.2325 N.am      1 SEC2        0.0000 
     13 N          -6.9360   28.7130   20.6260 N.am      5 SEL2        0.0000 
     14 N          -6.1430   31.0710   21.8390 N.am      3 SEP2        0.0000 
     15 CA         -5.1590   24.2610   22.1640 C.3       2 GLC5        0.0000 
     16 CA         -3.1500   24.7860   21.8810 C.3       6 GLL5        0.0000 
     17 CA         -7.1680   23.7360   22.4470 C.3       4 GLP5        0.0000 
     18 CA          2.4400   24.3260   21.1725 C.3       2 GLC5        0.0000 
     19 CA          0.8450   23.0990   20.5570 C.3       6 GLL5        0.0000 
     20 CA          4.0350   25.5530   21.7880 C.3       4 GLP5        0.0000 
     21 CA          2.2755   19.8995   17.4050 C.3       2 GLC5        0.0000 
     22 CA          0.7710   20.0790   16.0270 C.3       6 GLL5        0.0000 
     23 CA          3.7800   19.7200   18.7830 C.3       4 GLP5        0.0000 
     24 CA          2.6625   21.3180   17.2965 C.3       2 GLC5        0.0000 
     25 CA          1.2140   21.4290   15.8710 C.3       6 GLL5        0.0000 
     26 CA          4.1110   21.2070   18.7220 C.3       4 GLP5        0.0000 
     27 CA          3.2045   23.2415   14.6375 C.3       2 GLC5        0.0000 
     28 CA          1.5920   21.8970   14.5870 C.3       6 GLL5        0.0000 
     29 CA          4.8170   24.5860   14.6880 C.3       4 GLP5        0.0000 
     30 CA          3.6345   20.4305   13.4890 C.3       2 GLC5        0.0000 
     31 CA          1.5340   21.0330   13.4550 C.3       6 GLL5        0.0000 
     32 CA          5.7350   19.8280   13.5230 C.3       4 GLP5        0.0000 
     33 CA          2.2115   21.1910   11.6435 C.3       2 GLC5        0.0000 
     34 CA          2.8890   21.3490    9.8320 C.3       4 GLP5        0.0000 
     35 CA          1.0600   22.8940   12.3470 C.3       2 GLC5        0.0000 
     36 CA          0.5860   24.7550   11.2390 C.3       4 GLP5        0.0000 
     37 CA         -0.7520   19.6235   13.2615 C.3       2 GLC5        0.0000 
     38 CA          1.0940   19.6980   13.6140 C.3       6 GLL5        0.0000 
     39 CA         -2.5980   19.5490   12.9090 C.3       4 GLP5        0.0000 
     40 CA         -2.3445   30.1775   18.0125 C.3       2 GLC5        0.0000 
     41 CA         -2.2360   28.4120   17.3020 C.3       6 GLL5        0.0000 
     42 CA         -2.4530   31.9430   18.7230 C.3       4 GLP5        0.0000 
     43 CA         -0.8325   28.9820   18.8080 C.3       2 GLC5        0.0000 
     44 CA          0.5710   29.5520   20.3140 C.3       4 GLP5        0.0000 
     45 CA          1.7810   28.4000   15.4335 C.3       2 GLC5        0.0000 
     46 CA         -0.2950   28.8470   15.6790 C.3       6 GLL5        0.0000 
     47 CA          3.8570   27.9530   15.1880 C.3       4 GLP5        0.0000 
     48 CA          0.7260   29.3230   17.3220 C.3       2 GLC5        0.0000 
     49 CA          1.7470   29.7990   18.9650 C.3       4 GLP5        0.0000 
     50 CA         -3.2040   27.5495   14.6985 C.3       2 GLC5        0.0000 
     51 CA         -1.8130   28.7300   15.8650 C.3       6 GLL5        0.0000 
     52 CA         -4.5950   26.3690   13.5320 C.3       4 GLP5        0.0000 
     53 CA         -6.5430   28.5010   16.5330 C.3       2 GLC5        0.0000 
     54 CA         -6.1890   27.1490   17.8030 C.3       6 GLL5        0.0000 
     55 CA         -6.8970   29.8530   15.2630 C.3       4 GLP5        0.0000 
     56 CA         -4.6900   25.9345   17.8180 C.3       2 GLC5        0.0000 
     57 CA         -6.7450   25.2495   18.0635 C.3       2 GLC5        0.0000 
     58 CA          3.1020   26.3045   19.8215 C.3       2 GLC5        0.0000 
     59 CA          1.9630   25.5280   18.4900 C.3       6 GLL5        0.0000 
     60 CA          4.2410   27.0810   21.1530 C.3       4 GLP5        0.0000 
     61 CA          3.4235   26.9790   17.9560 C.3       2 GLC5        0.0000 
     62 CA          4.8840   28.4300   17.4220 C.3       4 GLP5        0.0000 
     63 CA          1.8550   27.6635   18.7275 C.3       2 GLC5        0.0000 
     64 CA         -6.1448   25.2743   21.7293 C.3       2 GLC5        0.0000 
     65 CA         -2.9683   25.6070   19.5250 C.3       2 GLC5        0.0000 
     66 CA         -3.3050   26.1500   21.4820 C.3       6 GLL5        0.0000 
     67 CA         -0.7540   26.2725   22.7125 C.3       2 GLC5        0.0000 
     68 CA         -2.1860   26.8380   20.9520 C.3       6 GLL5        0.0000 
     69 CA          0.0580   26.0260   24.5400 C.3       4 GLP5        0.0000 
     70 CA         -0.4975   28.0355   20.5995 C.3       2 GLC5        0.0000 
     71 CA         -0.9460   26.2000   20.8180 C.3       6 GLL5        0.0000 
     72 CA         -1.1885   25.2200   19.1620 C.3       2 GLC5        0.0000 
     73 CA         -1.5200   24.9180   17.3100 C.3       4 GLP5        0.0000 
     74 CA         -2.8555   24.5892   19.8238 C.3       2 GLC5        0.0000 
     75 CA         -1.8900   24.1310   21.7480 C.3       6 GLL5        0.0000 
     76 CA         -2.5755   22.4458   22.2443 C.3       2 GLC5        0.0000 
     77 CA         -2.6310   20.4330   22.6740 C.3       4 GLP5        0.0000 
     78 CA         -1.0907   25.3314   23.1100 C.3       2 GLC5        0.0000 
     79 CA         -0.2670   24.0110   18.5632 C.3       2 GLC5        0.0000 
     80 CA          0.1253   24.8645   17.8392 C.3       2 GLC5        0.0000 
     81 CA          1.5780   24.0940   18.2470 C.3       6 GLL5        0.0000 
     82 CA          2.6965   22.4030   18.8769 C.3       2 GLC5        0.0000 
     83 CA          3.8872   24.6030   17.9543 C.3       2 GLC5        0.0000 
     84 CA          6.0040   24.3950   17.5400 C.3       4 GLP5        0.0000 
     85 CA          0.8115   17.6878   13.6835 C.3       2 GLC5        0.0000 
     86 CA          0.7120   19.2190   14.9060 C.3       6 GLL5        0.0000 
     87 CA          0.7200   15.9170   13.1070 C.3       4 GLP5        0.0000 
     88 CA         -0.9743   20.1395   14.9378 C.3       2 GLC5        0.0000 
     89 CA         -2.6900   20.6300   14.4090 C.3       4 GLP5        0.0000 
     90 CA         -0.6107   20.9890   14.3755 C.3       2 GLC5        0.0000 
     91 CA         -0.6310   27.3622   14.5610 C.3       2 GLC5        0.0000 
     92 CA         -0.2080   25.9360   13.3500 C.3       4 GLP5        0.0000 
     93 CA         -1.3399   26.8135   16.7206 C.3       2 GLC5        0.0000 
     94 CA         -2.2250   30.4097   15.7950 C.3       2 GLC5        0.0000 
     95 CA         -3.3960   32.0310   15.8180 C.3       4 GLP5        0.0000 
@<TRIPOS>BOND
@<TRIPOS>SUBSTRUCTURE
     1 SEC2        9 GROUP        1 X    SEC  0     ROOT SEC X 2
     2 GLC5        1 GROUP        1 X    GLC  0     **** GLC X 6
     3 SEP2       11 GROUP        1 Y    SEP  0     ROOT SEP Y 9
     4 GLP5        3 GROUP        1 Y    GLP  0     **** GLP Y 13
     5 SEL2       10 GROUP        1 Z    SEL  0     ROOT SEL Z 16
     6 GLL5        2 GROUP        1 Z    GLL  0     **** GLL Z 20
@<TRIPOS>SET

