#    Name: 2npa_MMB_2_ligand
#    Modification time : Tue Mar 25 21:26:55 2014

@<TRIPOS>MOLECULE
2npa_MMB_2_ligand
   59    61     1     0     0
SMALL
NO_CHARGES


@<TRIPOS>ATOM
      1 C1         -4.6260   26.8570   21.6190 C.3       1 MMB2201     0.0000 
      2 C2         -5.6170   26.7680   20.4040 C.3       1 MMB2201     0.0000 
      3 C4         -5.1970   27.3110   18.9820 C.2       1 MMB2201     0.0000 
      4 C6         -6.8490   27.5040   20.8520 C.2       1 MMB2201     0.0000 
      5 O2         -7.7090   26.8560   21.4340 O.co2     1 MMB2201     0.0000 
      6 O3         -6.9360   28.7130   20.6260 O.co2     1 MMB2201     0.0000 
      7 C7         -3.3050   26.1500   21.4820 C.ar      1 MMB2201     0.0000 
      8 C8         -2.1860   26.8380   20.9520 C.ar      1 MMB2201     0.0000 
      9 C9         -0.9460   26.2000   20.8180 C.ar      1 MMB2201     0.0000 
     10 C10        -0.7680   24.8440   21.2100 C.ar      1 MMB2201     0.0000 
     11 C11        -1.8900   24.1310   21.7480 C.ar      1 MMB2201     0.0000 
     12 C12        -3.1500   24.7860   21.8810 C.ar      1 MMB2201     0.0000 
     13 O4          0.5380   24.3700   21.0270 O.3       1 MMB2201     0.0000 
     14 C13         0.8450   23.0990   20.5570 C.3       1 MMB2201     0.0000 
     15 C14         1.1270   23.1090   19.0760 C.2       1 MMB2201     0.0000 
     16 C15         1.5780   24.0940   18.2470 C.2       1 MMB2201     0.0000 
     17 O5          1.6700   23.6350   16.9980 O.3       1 MMB2201     0.0000 
     18 C3          1.2800   22.3420   17.0050 C.2       1 MMB2201     0.0000 
     19 N1          0.9370   21.9550   18.2270 N.2       1 MMB2201     0.0000 
     20 C16         0.7120   19.2190   14.9060 C.ar      1 MMB2201     0.0000 
     21 C17         0.7710   20.0790   16.0270 C.ar      1 MMB2201     0.0000 
     22 C18         1.2140   21.4290   15.8710 C.ar      1 MMB2201     0.0000 
     23 C19         1.5920   21.8970   14.5870 C.ar      1 MMB2201     0.0000 
     24 C20         1.5340   21.0330   13.4550 C.ar      1 MMB2201     0.0000 
     25 C21         1.0940   19.6980   13.6140 C.ar      1 MMB2201     0.0000 
     26 C26        -2.2360   28.4120   17.3020 C.3       1 MMB2201     0.0000 
     27 C28        -0.2950   28.8470   15.6790 C.3       1 MMB2201     0.0000 
     28 C29        -1.8130   28.7300   15.8650 C.3       1 MMB2201     0.0000 
     29 C32        -6.1890   27.1490   17.8030 C.3       1 MMB2201     0.0000 
     30 N4         -4.0040   27.9080   18.7160 N.2       1 MMB2201     0.0000 
     31 O1         -3.6420   28.3810   17.4400 O.3       1 MMB2201     0.0000 
     32 C5          1.9630   25.5280   18.4900 C.3       1 MMB2201     0.0000 
     33 H          -5.1678   26.4718   22.5145 H         1 MMB2201     0.0000 
     34 H          -4.4538   27.9395   21.8246 H         1 MMB2201     0.0000 
     35 H          -5.9129   25.7144   20.2958 H         1 MMB2201     0.0000 
     36 H          -2.2923   27.8197   20.6634 H         1 MMB2201     0.0000 
     37 H          -0.1425   26.7141   20.4295 H         1 MMB2201     0.0000 
     38 H          -1.7842   23.1634   22.0322 H         1 MMB2201     0.0000 
     39 H          -3.9474   24.2786   22.2635 H         1 MMB2201     0.0000 
     40 H           0.0198   22.3768   20.7332 H         1 MMB2201     0.0000 
     41 H           1.7362   22.6698   21.0620 H         1 MMB2201     0.0000 
     42 H           0.3980   18.2559   15.0118 H         1 MMB2201     0.0000 
     43 H           0.4991   19.7427   16.9489 H         1 MMB2201     0.0000 
     44 H           1.9091   22.8613   14.4690 H         1 MMB2201     0.0000 
     45 H           1.8086   21.3790   12.5396 H         1 MMB2201     0.0000 
     46 H           1.0469   19.0725   12.8121 H         1 MMB2201     0.0000 
     47 H          -1.7733   29.1749   17.9559 H         1 MMB2201     0.0000 
     48 H          -1.7727   27.4448   17.5732 H         1 MMB2201     0.0000 
     49 H          -2.2833   29.6753   15.5548 H         1 MMB2201     0.0000 
     50 H          -2.1934   27.9420   15.1977 H         1 MMB2201     0.0000 
     51 H           0.0938   29.5733   16.2459 H         1 MMB2201     0.0000 
     52 H           0.1757   27.9996   15.9248 H         1 MMB2201     0.0000 
     53 H          -0.0518   29.0531   14.7312 H         1 MMB2201     0.0000 
     54 H          -5.8228   27.5309   16.9544 H         1 MMB2201     0.0000 
     55 H          -6.4003   26.1880   17.6248 H         1 MMB2201     0.0000 
     56 H          -7.0573   27.6117   17.9819 H         1 MMB2201     0.0000 
     57 H           2.7143   25.6049   19.1455 H         1 MMB2201     0.0000 
     58 H           2.2602   25.9804   17.6491 H         1 MMB2201     0.0000 
     59 H           1.1996   26.0607   18.8553 H         1 MMB2201     0.0000 
@<TRIPOS>BOND
     1    2    1 1    
     2    7    1 1    
     3   33    1 1    
     4   34    1 1    
     5    3    2 1    
     6    4    2 1    
     7   35    2 1    
     8   29    3 1    
     9   30    3 2    
    10    5    4 ar   
    11    6    4 ar   
    12    8    7 ar   
    13   12    7 ar   
    14    9    8 ar   
    15   36    8 1    
    16   10    9 ar   
    17   37    9 1    
    18   11   10 ar   
    19   13   10 1    
    20   12   11 ar   
    21   38   11 1    
    22   39   12 1    
    23   14   13 1    
    24   15   14 1    
    25   40   14 1    
    26   41   14 1    
    27   16   15 2    
    28   19   15 1    
    29   17   16 1    
    30   32   16 1    
    31   18   17 1    
    32   19   18 2    
    33   22   18 1    
    34   21   20 ar   
    35   25   20 ar   
    36   42   20 1    
    37   22   21 ar   
    38   43   21 1    
    39   23   22 ar   
    40   24   23 ar   
    41   44   23 1    
    42   25   24 ar   
    43   45   24 1    
    44   46   25 1    
    45   28   26 1    
    46   31   26 1    
    47   47   26 1    
    48   48   26 1    
    49   28   27 1    
    50   51   27 1    
    51   52   27 1    
    52   53   27 1    
    53   49   28 1    
    54   50   28 1    
    55   54   29 1    
    56   55   29 1    
    57   56   29 1    
    58   31   30 1    
    59   57   32 1    
    60   58   32 1    
    61   59   32 1    
@<TRIPOS>SUBSTRUCTURE
     1 MMB2201     1 GROUP   
@<TRIPOS>SET

