#    Name: 4jwr_1MY_1_INTS_M
#    Modification time : Tue Mar 25 06:39:25 2014

@<TRIPOS>MOLECULE
4jwr_1MY_1_INTS_M
   55     0     6     0     0
SMALL
NO_CHARGES


@<TRIPOS>ATOM
      1 CA          5.2195  -11.3605   -4.0670 C.3       2 GLC5        0.0000 
      2 CA          4.9710  -11.2980   -2.1870 C.3       6 GLL5        0.0000 
      3 CA          5.4680  -11.4230   -5.9470 C.3       4 GLP5        0.0000 
      4 CA          2.2165  -12.4250   -1.5800 C.3       2 GLC5        0.0000 
      5 CA          2.7990  -12.3050   -3.4520 C.3       6 GLL5        0.0000 
      6 CA          1.6340  -12.5450    0.2920 C.3       4 GLP5        0.0000 
      7 CA          2.5625  -14.0060   -3.0955 C.3       2 GLC5        0.0000 
      8 CA          2.3260  -15.7070   -2.7390 C.3       4 GLP5        0.0000 
      9 CA          1.0555  -11.4550   -3.7225 C.3       2 GLC5        0.0000 
     10 CA         -0.6880  -10.6050   -3.9930 C.3       4 GLP5        0.0000 
     11 CA          2.2395  -10.2530   -0.0955 C.3       2 GLC5        0.0000 
     12 CA          3.5740   -9.1160   -1.1650 C.3       6 GLL5        0.0000 
     13 CA          0.9050  -11.3900    0.9740 C.3       4 GLP5        0.0000 
     14 CA          9.5730  -12.7190   -3.0000 C.3       2 GLC5        0.0000 
     15 CA          9.2480  -10.9200   -2.1160 C.3       6 GLL5        0.0000 
     16 CA          9.8980  -14.5180   -3.8840 C.3       4 GLP5        0.0000 
     17 N           7.9605  -10.1900   -5.1130 N.am      1 SEC2        0.0000 
     18 N           9.5770   -9.8480   -4.8460 N.am      5 SEL2        0.0000 
     19 N           6.3440  -10.5320   -5.3800 N.am      3 SEP2        0.0000 
     20 CA          8.1750  -12.8640    3.1970 C.3       2 GLC5        0.0000 
     21 CA          9.3180  -11.9380    1.7150 C.3       6 GLL5        0.0000 
     22 CA          7.0320  -13.7900    4.6790 C.3       4 GLP5        0.0000 
     23 CA         10.1865  -16.1550    1.9760 C.3       2 GLC5        0.0000 
     24 CA          9.8380  -14.4260    1.1910 C.3       6 GLL5        0.0000 
     25 CA         10.5350  -17.8840    2.7610 C.3       4 GLP5        0.0000 
     26 CA         10.0130  -14.9955   -0.8270 C.3       2 GLC5        0.0000 
     27 CA         10.1880  -15.5650   -2.8450 C.3       4 GLP5        0.0000 
     28 CA          3.7250  -16.3130    2.3510 C.3       2 GLC5        0.0000 
     29 CA          4.1790  -16.4220    0.4750 C.3       6 GLL5        0.0000 
     30 CA          3.2710  -16.2040    4.2270 C.3       4 GLP5        0.0000 
     31 CA          3.0310  -17.9830    0.1915 C.3       2 GLC5        0.0000 
     32 CA          1.8830  -19.5440   -0.0920 C.3       4 GLP5        0.0000 
     33 CA          5.3240  -17.9715   -0.6385 C.3       2 GLC5        0.0000 
     34 CA          6.4690  -19.5210   -1.7520 C.3       4 GLP5        0.0000 
     35 CA          2.0135  -16.1110    0.1390 C.3       2 GLC5        0.0000 
     36 CA         -0.1520  -15.8000   -0.1970 C.3       4 GLP5        0.0000 
     37 CA          5.5555  -15.1835   -2.5610 C.3       2 GLC5        0.0000 
     38 CA          6.1040  -14.8450   -0.6150 C.3       6 GLL5        0.0000 
     39 CA          5.0070  -15.5220   -4.5070 C.3       4 GLP5        0.0000 
     40 CA          8.5195  -14.6160   -1.7600 C.3       2 GLC5        0.0000 
     41 CA          6.8510  -13.6670   -0.6750 C.3       6 GLL5        0.0000 
     42 CA          3.7660  -11.2350   -4.5892 C.3       2 GLC5        0.0000 
     43 CA          3.6130  -11.1410   -2.4690 C.3       6 GLL5        0.0000 
     44 CA          4.3260  -10.7470   -6.2180 C.3       4 GLP5        0.0000 
     45 CA          2.6187  -11.5896   -0.9263 C.3       2 GLC5        0.0000 
     46 CA         11.6958  -14.1913    2.4975 C.3       2 GLC5        0.0000 
     47 CA         13.2890  -14.6290    3.5390 C.3       4 GLP5        0.0000 
     48 CA          6.1435  -13.5730    2.9645 C.3       2 GLC5        0.0000 
     49 CA          4.8870  -13.9460    1.2840 C.3       6 GLL5        0.0000 
     50 CA          4.1375  -15.3325    2.5273 C.3       2 GLC5        0.0000 
     51 CA          3.4110  -13.3555    0.5513 C.3       2 GLC5        0.0000 
     52 CA          5.1210  -14.9760    0.3710 C.3       6 GLL5        0.0000 
     53 CA          3.4880  -15.7030   -1.1580 C.3       2 GLC5        0.0000 
     54 CA          6.3920  -16.5620    0.9975 C.3       2 GLC5        0.0000 
     55 CA          7.4070  -17.8520    2.0910 C.3       4 GLP5        0.0000 
@<TRIPOS>BOND
@<TRIPOS>SUBSTRUCTURE
     1 SEC2       17 GROUP        1 X    SEC  0     ROOT SEC X 2
     2 GLC5        1 GROUP        1 X    GLC  0     **** GLC X 6
     3 SEP2       19 GROUP        1 Y    SEP  0     ROOT SEP Y 9
     4 GLP5        3 GROUP        1 Y    GLP  0     **** GLP Y 13
     5 SEL2       18 GROUP        1 Z    SEL  0     ROOT SEL Z 16
     6 GLL5        2 GROUP        1 Z    GLL  0     **** GLL Z 20
@<TRIPOS>SET

