#    Name: 4jwr_1MY_1_ligand
#    Modification time : Tue Mar 25 06:39:25 2014

@<TRIPOS>MOLECULE
4jwr_1MY_1_ligand
   52    54     1     0     0
SMALL
NO_CHARGES


@<TRIPOS>ATOM
      1 C20         4.9710  -11.2980   -2.1870 C.ar      1 1MY201      0.0000 
      2 C19         3.6130  -11.1410   -2.4690 C.ar      1 1MY201      0.0000 
      3 CL2         2.7990  -12.3050   -3.4520 Cl        1 1MY201      0.0000 
      4 C18         2.9150  -10.0490   -1.9610 C.ar      1 1MY201      0.0000 
      5 C17         3.5740   -9.1160   -1.1650 C.ar      1 1MY201      0.0000 
      6 C16         4.9290   -9.2670   -0.8800 C.ar      1 1MY201      0.0000 
      7 C10         5.6280  -10.3580   -1.3870 C.ar      1 1MY201      0.0000 
      8 C6          7.1190  -10.4980   -1.0700 C.3       1 1MY201      0.0000 
      9 O1          7.8100  -11.0850   -2.1930 O.3       1 1MY201      0.0000 
     10 C7          9.2480  -10.9200   -2.1160 C.3       1 1MY201      0.0000 
     11 C21         9.6870   -9.4730   -2.4850 C.3       1 1MY201      0.0000 
     12 C22         9.2100   -9.1110   -3.8990 C.2       1 1MY201      0.0000 
     13 O5          8.4750   -8.1050   -3.9980 O.co2     1 1MY201      0.0000 
     14 O4          9.5770   -9.8480   -4.8460 O.co2     1 1MY201      0.0000 
     15 C8          9.7580  -11.3320   -0.7280 C.2       1 1MY201      0.0000 
     16 O2         10.9690  -11.5020   -0.6030 O.2       1 1MY201      0.0000 
     17 N1          8.8590  -11.5500    0.3570 N.am      1 1MY201      0.0000 
     18 C1          9.3180  -11.9380    1.7150 C.3       1 1MY201      0.0000 
     19 C3         10.3670  -13.0810    1.7210 C.3       1 1MY201      0.0000 
     20 C4          9.8380  -14.4260    1.1910 C.3       1 1MY201      0.0000 
     21 C2          9.8630  -10.6990    2.4460 C.3       1 1MY201      0.0000 
     22 O3          8.9090   -9.6300    2.3620 O.3       1 1MY201      0.0000 
     23 C5          7.4040  -11.3150    0.2050 C.3       1 1MY201      0.0000 
     24 C9          6.6090  -12.6320    0.2380 C.ar      1 1MY201      0.0000 
     25 C11         5.6230  -12.7660    1.2160 C.ar      1 1MY201      0.0000 
     26 C12         4.8870  -13.9460    1.2840 C.ar      1 1MY201      0.0000 
     27 C13         5.1210  -14.9760    0.3710 C.ar      1 1MY201      0.0000 
     28 CL1         4.1790  -16.4220    0.4750 Cl        1 1MY201      0.0000 
     29 C14         6.1040  -14.8450   -0.6150 C.ar      1 1MY201      0.0000 
     30 C15         6.8510  -13.6670   -0.6750 C.ar      1 1MY201      0.0000 
     31 H           5.4860  -12.0994   -2.5646 H         1 1MY201      0.0000 
     32 H           1.9175   -9.9319   -2.1725 H         1 1MY201      0.0000 
     33 H           3.0574   -8.3102   -0.7850 H         1 1MY201      0.0000 
     34 H           5.4113   -8.5730   -0.2958 H         1 1MY201      0.0000 
     35 H           7.5145   -9.4831   -0.8971 H         1 1MY201      0.0000 
     36 H           9.7334  -11.5917   -2.8460 H         1 1MY201      0.0000 
     37 H          10.7679   -9.4154   -2.4409 H         1 1MY201      0.0000 
     38 H           9.2543   -8.7849   -1.7689 H         1 1MY201      0.0000 
     39 H           8.4510  -12.2881    2.2985 H         1 1MY201      0.0000 
     40 H          10.7278  -13.2188    2.7506 H         1 1MY201      0.0000 
     41 H          11.2272  -12.7691    1.1110 H         1 1MY201      0.0000 
     42 H          10.8151  -10.4309    1.9789 H         1 1MY201      0.0000 
     43 H          10.0604  -10.9863    3.4829 H         1 1MY201      0.0000 
     44 H           7.0581  -10.7046    1.0586 H         1 1MY201      0.0000 
     45 H           5.4438  -12.0053    1.8749 H         1 1MY201      0.0000 
     46 H           4.1667  -14.0611    2.0101 H         1 1MY201      0.0000 
     47 H           6.2719  -15.5992   -1.2798 H         1 1MY201      0.0000 
     48 H           7.5803  -13.5566   -1.3894 H         1 1MY201      0.0000 
     49 H          10.5410  -15.1368    1.2146 H         1 1MY201      0.0000 
     50 H           9.0653  -14.7599    1.7309 H         1 1MY201      0.0000 
     51 H           9.5249  -14.3547    0.2440 H         1 1MY201      0.0000 
     52 H           9.4864   -9.0526    2.9394 H         1 1MY201      0.0000 
@<TRIPOS>BOND
     1    2    1 ar   
     2    7    1 ar   
     3   31    1 1    
     4    3    2 1    
     5    4    2 ar   
     6    5    4 ar   
     7   32    4 1    
     8    6    5 ar   
     9   33    5 1    
    10    7    6 ar   
    11   34    6 1    
    12    8    7 1    
    13    9    8 1    
    14   23    8 1    
    15   35    8 1    
    16   10    9 1    
    17   11   10 1    
    18   15   10 1    
    19   36   10 1    
    20   12   11 1    
    21   37   11 1    
    22   38   11 1    
    23   13   12 ar   
    24   14   12 ar   
    25   16   15 2    
    26   17   15 am   
    27   18   17 1    
    28   23   17 1    
    29   19   18 1    
    30   21   18 1    
    31   39   18 1    
    32   20   19 1    
    33   40   19 1    
    34   41   19 1    
    35   49   20 1    
    36   50   20 1    
    37   51   20 1    
    38   22   21 1    
    39   42   21 1    
    40   43   21 1    
    41   52   22 1    
    42   24   23 1    
    43   44   23 1    
    44   25   24 ar   
    45   30   24 ar   
    46   26   25 ar   
    47   45   25 1    
    48   27   26 ar   
    49   46   26 1    
    50   28   27 1    
    51   29   27 ar   
    52   30   29 ar   
    53   47   29 1    
    54   48   30 1    
@<TRIPOS>SUBSTRUCTURE
     1 1MY201      1 GROUP   
@<TRIPOS>SET

