#    Name: 1q65_BHB_1_INTS_M
#    Modification time : Mon Mar 24 23:07:22 2014

@<TRIPOS>MOLECULE
1q65_BHB_1_INTS_M
   42     0     9     0     0
SMALL
NO_CHARGES


@<TRIPOS>ATOM
      1 O          20.7050   18.2360   18.2330 O.2       1 ALC1        0.0000 
      2 O          19.2610   17.9060   18.1000 O.2       7 ALL1        0.0000 
      3 O          22.1490   18.5660   18.3660 O.2       4 ALP1        0.0000 
      4 CA         15.1270   18.5430   22.1145 C.3       3 GLC5        0.0000 
      5 CA         16.2580   17.0290   21.1630 C.3       9 GLL5        0.0000 
      6 CA         13.9960   20.0570   23.0660 C.3       6 GLP5        0.0000 
      7 CA         15.9550   15.2230   21.8035 C.3       3 GLC5        0.0000 
      8 CA         15.6520   13.4170   22.4440 C.3       6 GLP5        0.0000 
      9 O          13.6875   16.2330   23.0225 O.2       1 ALC1        0.0000 
     10 O          14.7070   16.6060   24.3190 O.2       7 ALL1        0.0000 
     11 O          12.6680   15.8600   21.7260 O.2       4 ALP1        0.0000 
     12 O          13.6595   15.6840   23.9745 O.2       1 ALC1        0.0000 
     13 O          12.6120   14.7620   23.6300 O.2       4 ALP1        0.0000 
     14 O          14.8540   17.1060   25.6805 O.2       1 ALC1        0.0000 
     15 O          15.0010   17.6060   27.0420 O.2       4 ALP1        0.0000 
     16 O          15.9295   17.0775   25.4640 O.2       1 ALC1        0.0000 
     17 O          17.1520   17.5490   26.6090 O.2       4 ALP1        0.0000 
     18 O          16.9815   17.3860   25.2380 O.2       1 ALC1        0.0000 
     19 O          16.8110   17.2230   23.8670 O.2       7 ALL1        0.0000 
     20 N          19.5185   17.9055   24.9475 N.am      2 SEC2        0.0000 
     21 N          18.9310   17.8490   23.4760 N.am      8 SEL2        0.0000 
     22 N          20.1060   17.9620   26.4190 N.am      5 SEP2        0.0000 
     23 N          20.3500   17.9490   23.2340 N.am      2 SEC2        0.0000 
     24 N          21.7690   18.0490   22.9920 N.am      5 SEP2        0.0000 
     25 CA         17.4715   15.5595   22.2110 C.3       3 GLC5        0.0000 
     26 CA         17.5880   17.4310   21.5430 C.3       9 GLL5        0.0000 
     27 CA         17.3550   13.6880   22.8790 C.3       6 GLP5        0.0000 
     28 CA         18.3940   15.6715   20.3890 C.3       3 GLC5        0.0000 
     29 CA         18.5710   17.7180   20.5530 C.3       9 GLL5        0.0000 
     30 CA         18.2170   13.6250   20.2250 C.3       6 GLP5        0.0000 
     31 CA         14.6400   19.2380   20.4330 C.3       3 GLC5        0.0000 
     32 CA         13.4120   17.9120   19.4250 C.3       9 GLL5        0.0000 
     33 CA         15.8680   20.5640   21.4410 C.3       6 GLP5        0.0000 
     34 CA         12.9435   16.5845   13.0165 C.3       3 GLC5        0.0000 
     35 CA         14.2110   17.6560   14.3270 C.3       9 GLL5        0.0000 
     36 CA         11.6760   15.5130   11.7060 C.3       6 GLP5        0.0000 
     37 CA         17.8352   16.1015   17.4128 C.3       3 GLC5        0.0000 
     38 CA         16.9120   17.2020   18.7910 C.3       9 GLL5        0.0000 
     39 CA         18.1020   14.8010   15.8420 C.3       6 GLP5        0.0000 
     40 CA         17.4814   15.3910   19.8024 C.3       3 GLC5        0.0000 
     41 CA         11.7550   18.9475   18.8552 C.3       3 GLC5        0.0000 
     42 CA         10.4630   20.0920   19.1100 C.3       6 GLP5        0.0000 
@<TRIPOS>BOND
@<TRIPOS>SUBSTRUCTURE
     1 ALC1        1 GROUP        1 X    ALC  0     ROOT ALC X 1
     2 SEC2       20 GROUP        1 X    SEC  0     **** SEC X 2
     3 GLC5        4 GROUP        1 X    GLC  0     **** GLC X 6
     4 ALP1        3 GROUP        1 Y    ALP  0     ROOT ALP Y 8
     5 SEP2       22 GROUP        1 Y    SEP  0     **** SEP Y 9
     6 GLP5        6 GROUP        1 Y    GLP  0     **** GLP Y 13
     7 ALL1        2 GROUP        1 Z    ALL  0     ROOT ALL Z 15
     8 SEL2       21 GROUP        1 Z    SEL  0     **** SEL Z 16
     9 GLL5        5 GROUP        1 Z    GLL  0     **** GLL Z 20
@<TRIPOS>SET

