#    Name: 1q65_BHB_1_ligand
#    Modification time : Mon Mar 24 23:07:22 2014

@<TRIPOS>MOLECULE
1q65_BHB_1_ligand
   40    41     1     0     0
SMALL
NO_CHARGES


@<TRIPOS>ATOM
      1 N4         19.2610   17.9060   18.1000 N.pl3     1 BHB900      0.0000 
      2 C6         18.2250   17.6020   19.1760 C.ar      1 BHB900      0.0000 
      3 C1         16.9120   17.2020   18.7910 C.ar      1 BHB900      0.0000 
      4 C2         15.9230   16.9120   19.7760 C.ar      1 BHB900      0.0000 
      5 C3         16.2580   17.0290   21.1630 C.ar      1 BHB900      0.0000 
      6 N3         15.3450   16.7670   22.1520 N.2       1 BHB900      0.0000 
      7 C8         15.6070   16.8610   23.4160 C.2       1 BHB900      0.0000 
      8 N2         14.7070   16.6060   24.3190 N.pl3     1 BHB900      0.0000 
      9 N1         16.8110   17.2230   23.8670 N.am      1 BHB900      0.0000 
     10 C7         17.8300   17.5180   23.0530 C.2       1 BHB900      0.0000 
     11 O1         18.9310   17.8490   23.4760 O.2       1 BHB900      0.0000 
     12 C41        17.5880   17.4310   21.5430 C.ar      1 BHB900      0.0000 
     13 C5         18.5710   17.7180   20.5530 C.ar      1 BHB900      0.0000 
     14 C9         14.5240   16.4780   19.3280 C.3       1 BHB900      0.0000 
     15 S1         13.4120   17.9120   19.4250 S.3       1 BHB900      0.0000 
     16 C16        12.6820   17.6940   17.7760 C.3       1 BHB900      0.0000 
     17 C17        13.6850   18.0380   16.6640 C.3       1 BHB900      0.0000 
     18 N18        13.1250   17.7380   15.3250 N.4       1 BHB900      0.0000 
     19 C20        14.2110   17.6560   14.3270 C.3       1 BHB900      0.0000 
     20 C19        12.1320   18.7530   14.9060 C.3       1 BHB900      0.0000 
     21 H          20.1496   18.2307   18.4240 H         1 BHB900      0.0000 
     22 H          18.9705   17.7568   17.1548 H         1 BHB900      0.0000 
     23 H          16.6776   17.1224   17.8004 H         1 BHB900      0.0000 
     24 H          14.9917   16.7257   25.2701 H         1 BHB900      0.0000 
     25 H          13.8131   16.3137   23.9791 H         1 BHB900      0.0000 
     26 H          16.9666   17.2792   24.9191 H         1 BHB900      0.0000 
     27 H          19.5033   18.0007   20.8243 H         1 BHB900      0.0000 
     28 H          14.0638   15.7889   19.9804 H         1 BHB900      0.0000 
     29 H          14.4671   16.2148   18.3083 H         1 BHB900      0.0000 
     30 H          11.8421   18.3504   17.8077 H         1 BHB900      0.0000 
     31 H          12.3949   16.6670   17.7855 H         1 BHB900      0.0000 
     32 H          14.5987   17.4597   16.8348 H         1 BHB900      0.0000 
     33 H          13.9357   19.1006   16.7445 H         1 BHB900      0.0000 
     34 H          12.6265   16.7616   15.3678 H         1 BHB900      0.0000 
     35 H          14.7233   18.5125   14.2644 H         1 BHB900      0.0000 
     36 H          14.8685   16.9369   14.5519 H         1 BHB900      0.0000 
     37 H          13.8603   17.4567   13.4120 H         1 BHB900      0.0000 
     38 H          12.5342   19.6671   14.8549 H         1 BHB900      0.0000 
     39 H          11.7509   18.5496   14.0041 H         1 BHB900      0.0000 
     40 H          11.3635   18.8061   15.5437 H         1 BHB900      0.0000 
@<TRIPOS>BOND
     1    2    1 1    
     2   21    1 1    
     3   22    1 1    
     4    3    2 ar   
     5   13    2 ar   
     6    4    3 ar   
     7   23    3 1    
     8    5    4 ar   
     9   14    4 1    
    10    6    5 1    
    11   12    5 ar   
    12    7    6 2    
    13    8    7 1    
    14    9    7 1    
    15   24    8 1    
    16   25    8 1    
    17   10    9 am   
    18   26    9 1    
    19   11   10 2    
    20   12   10 1    
    21   13   12 ar   
    22   27   13 1    
    23   15   14 1    
    24   28   14 1    
    25   29   14 1    
    26   16   15 1    
    27   17   16 1    
    28   30   16 1    
    29   31   16 1    
    30   18   17 1    
    31   32   17 1    
    32   33   17 1    
    33   19   18 1    
    34   20   18 1    
    35   34   18 1    
    36   35   19 1    
    37   36   19 1    
    38   37   19 1    
    39   38   20 1    
    40   39   20 1    
    41   40   20 1    
@<TRIPOS>SUBSTRUCTURE
     1 BHB900      1 GROUP   
@<TRIPOS>SET

