#    Name: 3f0s_53T_1_INTS_M
#    Modification time : Tue Mar 25 03:02:18 2014

@<TRIPOS>MOLECULE
3f0s_53T_1_INTS_M
   87     0     9     0     0
SMALL
NO_CHARGES


@<TRIPOS>ATOM
      1 CA        -28.9335  -10.1140   44.2355 C.3       3 GLC5        0.0000 
      2 CA        -29.4640   -9.3040   42.6900 C.3       9 GLL5        0.0000 
      3 CA        -28.4030  -10.9240   45.7810 C.3       6 GLP5        0.0000 
      4 CA        -31.1280   -8.5690   42.8295 C.3       3 GLC5        0.0000 
      5 CA        -32.7920   -7.8340   42.9690 C.3       6 GLP5        0.0000 
      6 CA        -29.2420  -11.9135   39.8600 C.3       3 GLC5        0.0000 
      7 CA        -28.3510  -11.6800   41.5530 C.3       9 GLL5        0.0000 
      8 CA        -30.1330  -12.1470   38.1670 C.3       6 GLP5        0.0000 
      9 CA        -26.7705  -12.6495   41.8770 C.3       3 GLC5        0.0000 
     10 CA        -25.1900  -13.6190   42.2010 C.3       6 GLP5        0.0000 
     11 CA        -28.8230  -12.4375   44.2335 C.3       3 GLC5        0.0000 
     12 CA        -29.2430  -13.9510   42.6860 C.3       9 GLL5        0.0000 
     13 CA        -30.6340  -15.8470   41.1375 C.3       3 GLC5        0.0000 
     14 CA        -29.0930  -15.1080   41.7270 C.3       9 GLL5        0.0000 
     15 CA        -32.1750  -16.5860   40.5480 C.3       6 GLP5        0.0000 
     16 CA        -27.0325  -15.0370   41.8650 C.3       3 GLC5        0.0000 
     17 CA        -24.9720  -14.9660   42.0030 C.3       6 GLP5        0.0000 
     18 CA        -26.7485   -9.5910   37.8875 C.3       3 GLC5        0.0000 
     19 CA        -26.9850  -10.3500   39.9850 C.3       9 GLL5        0.0000 
     20 CA        -26.5120   -8.8320   35.7900 C.3       6 GLP5        0.0000 
     21 CA        -25.1760   -9.7510   39.7700 C.3       3 GLC5        0.0000 
     22 CA        -23.3670   -9.1520   39.5550 C.3       6 GLP5        0.0000 
     23 CA        -30.7345  -15.0180   48.4765 C.3       3 GLC5        0.0000 
     24 CA        -31.6820  -15.2160   46.8080 C.3       9 GLL5        0.0000 
     25 CA        -29.7870  -14.8200   50.1450 C.3       6 GLP5        0.0000 
     26 CA        -31.1840  -17.2400   46.5015 C.3       3 GLC5        0.0000 
     27 CA        -30.6860  -19.2640   46.1950 C.3       6 GLP5        0.0000 
     28 CA        -26.8230   -8.4215   37.9255 C.3       3 GLC5        0.0000 
     29 CA        -27.1340   -8.0110   40.0610 C.3       9 GLL5        0.0000 
     30 CA        -25.2505   -8.5815   39.8080 C.3       3 GLC5        0.0000 
     31 CA        -26.2340   -7.4325   41.6695 C.3       3 GLC5        0.0000 
     32 CA        -25.3340   -6.8540   43.2780 C.3       6 GLP5        0.0000 
     33 CA        -28.5330   -7.6115   39.2320 C.3       3 GLC5        0.0000 
     34 CA        -29.9320   -7.2120   38.4030 C.3       6 GLP5        0.0000 
     35 CA        -26.8900   -8.0505   42.4160 C.3       3 GLC5        0.0000 
     36 CA        -28.4460   -9.2470   41.5540 C.3       9 GLL5        0.0000 
     37 CA        -29.1890   -8.2295   39.9785 C.3       3 GLC5        0.0000 
     38 CA        -38.4865  -14.1760   40.7100 C.3       3 GLC5        0.0000 
     39 CA        -37.7180  -12.2960   41.2860 C.3       9 GLL5        0.0000 
     40 CA        -39.2550  -16.0560   40.1340 C.3       6 GLP5        0.0000 
     41 CA        -34.2050   -7.7050   40.6205 C.3       3 GLC5        0.0000 
     42 CA        -34.0680   -9.2940   39.4700 C.3       9 GLL5        0.0000 
     43 CA        -34.3420   -6.1160   41.7710 C.3       6 GLP5        0.0000 
     44 CA        -32.6175   -9.0440   38.2185 C.3       3 GLC5        0.0000 
     45 CA        -31.1670   -8.7940   36.9670 C.3       6 GLP5        0.0000 
     46 CA        -34.0835  -11.8310   39.2215 C.3       3 GLC5        0.0000 
     47 CA        -33.5400  -11.1650   41.1510 C.3       9 GLL5        0.0000 
     48 CA        -34.6270  -12.4970   37.2920 C.3       6 GLP5        0.0000 
     49 CA        -30.3650  -12.7175   45.4655 C.3       3 GLC5        0.0000 
     50 CA        -31.0650  -14.3120   44.3250 C.3       9 GLL5        0.0000 
     51 CA        -29.6650  -11.1230   46.6060 C.3       6 GLP5        0.0000 
     52 CA        -30.8010  -12.1180   44.5270 C.3       3 GLC5        0.0000 
     53 CA        -30.6990  -13.7690   43.0970 C.3       9 GLL5        0.0000 
     54 CA        -30.9030  -10.4670   45.9570 C.3       6 GLP5        0.0000 
     55 N         -28.4665   -6.9915   41.6945 N.am      2 SEC2        0.0000 
     56 N         -28.0410   -8.0630   41.0600 N.am      8 SEL2        0.0000 
     57 N         -28.8920   -5.9200   42.3290 N.am      5 SEP2        0.0000 
     58 O         -27.3595   -5.6195   40.3030 O.2       1 ALC1        0.0000 
     59 O         -26.7610   -6.8260   39.6050 O.2       7 ALL1        0.0000 
     60 O         -27.9580   -4.4130   41.0010 O.2       4 ALP1        0.0000 
     61 O         -25.3275  -11.2185   38.5555 O.2       1 ALC1        0.0000 
     62 O         -26.4630  -11.4550   39.4690 O.2       7 ALL1        0.0000 
     63 O         -24.1920  -10.9820   37.6420 O.2       4 ALP1        0.0000 
     64 CA        -28.4763  -11.5635   43.7920 C.3       3 GLC5        0.0000 
     65 CA        -27.2327  -13.2517   42.9303 C.3       3 GLC5        0.0000 
     66 CA        -28.7480  -12.7260   42.0530 C.3       9 GLL5        0.0000 
     67 CA        -25.4700  -13.1650   43.4910 C.3       6 GLP5        0.0000 
     68 CA        -28.6205  -16.1507   41.5392 C.3       3 GLC5        0.0000 
     69 CA        -28.0730  -17.7720   40.8720 C.3       6 GLP5        0.0000 
     70 CA        -29.5856  -13.8796   40.2321 C.3       3 GLC5        0.0000 
     71 CA        -30.1270  -13.5360   38.4160 C.3       6 GLP5        0.0000 
     72 CA        -34.9053  -14.4465   41.8443 C.3       3 GLC5        0.0000 
     73 CA        -35.2750  -12.6090   42.0240 C.3       9 GLL5        0.0000 
     74 CA        -35.2140  -16.4680   41.6870 C.3       6 GLP5        0.0000 
     75 CA        -36.0474  -13.3060   40.0330 C.3       3 GLC5        0.0000 
     76 CA        -35.9710  -14.2550   38.4190 C.3       6 GLP5        0.0000 
     77 CA        -33.4022   -9.3253   41.8663 C.3       3 GLC5        0.0000 
     78 CA        -34.4850  -10.4680   40.3760 C.3       9 GLL5        0.0000 
     79 CA        -34.6196  -11.2365   38.6153 C.3       3 GLC5        0.0000 
     80 CA        -32.5067  -14.8195   42.2572 C.3       3 GLC5        0.0000 
     81 CA        -32.9520  -12.9270   42.7470 C.3       9 GLL5        0.0000 
     82 CA        -32.7240  -16.6390   41.9910 C.3       6 GLP5        0.0000 
     83 CA        -31.8737  -12.1513   45.1735 C.3       3 GLC5        0.0000 
     84 CA        -33.3090  -13.4890   43.9920 C.3       9 GLL5        0.0000 
     85 CA        -32.7843  -15.2372   43.1905 C.3       3 GLC5        0.0000 
     86 CA        -32.3800  -14.1820   44.7880 C.3       9 GLL5        0.0000 
     87 CA        -31.6210  -15.3625   42.7996 C.3       3 GLC5        0.0000 
@<TRIPOS>BOND
@<TRIPOS>SUBSTRUCTURE
     1 ALC1       58 GROUP        1 X    ALC  0     ROOT ALC X 1
     2 SEC2       55 GROUP        1 X    SEC  0     **** SEC X 2
     3 GLC5        1 GROUP        1 X    GLC  0     **** GLC X 6
     4 ALP1       60 GROUP        1 Y    ALP  0     ROOT ALP Y 8
     5 SEP2       57 GROUP        1 Y    SEP  0     **** SEP Y 9
     6 GLP5        3 GROUP        1 Y    GLP  0     **** GLP Y 13
     7 ALL1       59 GROUP        1 Z    ALL  0     ROOT ALL Z 15
     8 SEL2       56 GROUP        1 Z    SEL  0     **** SEL Z 16
     9 GLL5        2 GROUP        1 Z    GLL  0     **** GLL Z 20
@<TRIPOS>SET

