#    Name: 3f0s_53T_1_ligand
#    Modification time : Tue Mar 25 03:02:18 2014

@<TRIPOS>MOLECULE
3f0s_53T_1_ligand
   55    57     1     0     0
SMALL
NO_CHARGES


@<TRIPOS>ATOM
      1 N2        -26.6160   -9.1380   39.5240 N.ar      1 53T158      0.0000 
      2 C8        -29.4640   -9.3040   42.6900 C.3       1 53T158      0.0000 
      3 C10       -28.3510  -11.6800   41.5530 C.1       1 53T158      0.0000 
      4 C11       -28.7480  -12.7260   42.0530 C.1       1 53T158      0.0000 
      5 C12       -29.2430  -13.9510   42.6860 C.3       1 53T158      0.0000 
      6 C13       -29.0930  -15.1080   41.7270 C.3       1 53T158      0.0000 
      7 C1        -26.9850  -10.3500   39.9850 C.ar      1 53T158      0.0000 
      8 C2        -31.6820  -15.2160   46.8080 C.3       1 53T158      0.0000 
      9 C3        -27.1340   -8.0110   40.0610 C.ar      1 53T158      0.0000 
     10 C5        -28.4460   -9.2470   41.5540 C.ar      1 53T158      0.0000 
     11 C6        -27.9220  -10.4260   41.0180 C.ar      1 53T158      0.0000 
     12 C26       -37.7180  -12.2960   41.2860 C.3       1 53T158      0.0000 
     13 C21       -36.2270  -11.9140   41.2540 C.ar      1 53T158      0.0000 
     14 C20       -35.2750  -12.6090   42.0240 C.ar      1 53T158      0.0000 
     15 C22       -35.8280  -10.8480   40.4380 C.ar      1 53T158      0.0000 
     16 C23       -34.4850  -10.4680   40.3760 C.ar      1 53T158      0.0000 
     17 C27       -34.0680   -9.2940   39.4700 C.3       1 53T158      0.0000 
     18 C24       -33.5400  -11.1650   41.1510 C.ar      1 53T158      0.0000 
     19 C25       -33.9180  -12.2410   41.9790 C.ar      1 53T158      0.0000 
     20 C18       -32.9520  -12.9270   42.7470 C.ar      1 53T158      0.0000 
     21 C19       -31.6270  -13.0730   42.3000 C.ar      1 53T158      0.0000 
     22 C17       -33.3090  -13.4890   43.9920 C.ar      1 53T158      0.0000 
     23 C16       -32.3800  -14.1820   44.7880 C.ar      1 53T158      0.0000 
     24 O17       -32.7670  -14.7200   46.0010 O.3       1 53T158      0.0000 
     25 C15       -31.0650  -14.3120   44.3250 C.ar      1 53T158      0.0000 
     26 C14       -30.6990  -13.7690   43.0970 C.ar      1 53T158      0.0000 
     27 N4        -28.0410   -8.0630   41.0600 N.ar      1 53T158      0.0000 
     28 N7        -26.7610   -6.8260   39.6050 N.pl3     1 53T158      0.0000 
     29 N9        -26.4630  -11.4550   39.4690 N.pl3     1 53T158      0.0000 
     30 H         -28.6628  -14.1625   43.5757 H         1 53T158      0.0000 
     31 H         -35.5730  -13.3877   42.6208 H         1 53T158      0.0000 
     32 H         -36.5297  -10.3423   39.8811 H         1 53T158      0.0000 
     33 H         -32.5473  -10.8828   41.1130 H         1 53T158      0.0000 
     34 H         -31.3399  -12.6778   41.4051 H         1 53T158      0.0000 
     35 H         -34.2838  -13.3865   44.3264 H         1 53T158      0.0000 
     36 H         -30.3711  -14.8103   44.8962 H         1 53T158      0.0000 
     37 H         -26.1213   -6.8317   38.8364 H         1 53T158      0.0000 
     38 H         -27.1526   -6.0322   40.0704 H         1 53T158      0.0000 
     39 H         -27.0372  -12.2728   39.5081 H         1 53T158      0.0000 
     40 H         -25.5425  -11.3703   39.0876 H         1 53T158      0.0000 
     41 H         -29.0920   -9.7580   43.4996 H         1 53T158      0.0000 
     42 H         -29.7551   -8.3904   42.9740 H         1 53T158      0.0000 
     43 H         -30.2879   -9.8052   42.4255 H         1 53T158      0.0000 
     44 H         -28.1390  -15.2506   41.4634 H         1 53T158      0.0000 
     45 H         -29.4183  -15.9654   42.1257 H         1 53T158      0.0000 
     46 H         -29.6111  -14.9615   40.8843 H         1 53T158      0.0000 
     47 H         -31.1757  -15.9426   46.3436 H         1 53T158      0.0000 
     48 H         -31.0244  -14.4959   47.0293 H         1 53T158      0.0000 
     49 H         -32.0066  -15.5932   47.6754 H         1 53T158      0.0000 
     50 H         -37.8667  -13.2377   40.9843 H         1 53T158      0.0000 
     51 H         -38.1014  -12.2191   42.2064 H         1 53T158      0.0000 
     52 H         -38.2650  -11.7076   40.6905 H         1 53T158      0.0000 
     53 H         -33.0838   -9.1225   39.5138 H         1 53T158      0.0000 
     54 H         -34.2930   -9.4668   38.5111 H         1 53T158      0.0000 
     55 H         -34.5256   -8.4436   39.7298 H         1 53T158      0.0000 
@<TRIPOS>BOND
     1    7    1 ar   
     2    9    1 ar   
     3   10    2 1    
     4   41    2 1    
     5   42    2 1    
     6   43    2 1    
     7    4    3 3    
     8   11    3 1    
     9    5    4 1    
    10    6    5 1    
    11   26    5 1    
    12   30    5 1    
    13   44    6 1    
    14   45    6 1    
    15   46    6 1    
    16   11    7 ar   
    17   29    7 1    
    18   24    8 1    
    19   47    8 1    
    20   48    8 1    
    21   49    8 1    
    22   27    9 ar   
    23   28    9 1    
    24   11   10 ar   
    25   27   10 ar   
    26   13   12 1    
    27   50   12 1    
    28   51   12 1    
    29   52   12 1    
    30   14   13 ar   
    31   15   13 ar   
    32   19   14 ar   
    33   31   14 1    
    34   16   15 ar   
    35   32   15 1    
    36   17   16 1    
    37   18   16 ar   
    38   53   17 1    
    39   54   17 1    
    40   55   17 1    
    41   19   18 ar   
    42   33   18 1    
    43   20   19 1    
    44   21   20 ar   
    45   22   20 ar   
    46   26   21 ar   
    47   34   21 1    
    48   23   22 ar   
    49   35   22 1    
    50   24   23 1    
    51   25   23 ar   
    52   26   25 ar   
    53   36   25 1    
    54   37   28 1    
    55   38   28 1    
    56   39   29 1    
    57   40   29 1    
@<TRIPOS>SUBSTRUCTURE
     1 53T158      1 GROUP   
@<TRIPOS>SET

