#    Name: 3goi_LOI_1_INTS_M
#    Modification time : Tue Mar 25 12:47:46 2014

@<TRIPOS>MOLECULE
3goi_LOI_1_INTS_M
   58     0     9     0     0
SMALL
NO_CHARGES


@<TRIPOS>ATOM
      1 CA         42.2760   17.3880   64.1070 C.3       3 GLC5        0.0000 
      2 CA         41.0860   15.8800   64.8440 C.3       9 GLL5        0.0000 
      3 CA         43.4660   18.8960   63.3700 C.3       6 GLP5        0.0000 
      4 CA         41.8125   14.7655   66.6125 C.3       3 GLC5        0.0000 
      5 CA         42.5390   13.6510   68.3810 C.3       6 GLP5        0.0000 
      6 CA         33.1900   19.6740   60.4615 C.3       3 GLC5        0.0000 
      7 CA         35.3790   19.9540   60.5170 C.3       9 GLL5        0.0000 
      8 CA         31.0010   19.3940   60.4060 C.3       6 GLP5        0.0000 
      9 CA         36.6410   19.0565   56.4505 C.3       3 GLC5        0.0000 
     10 CA         35.9020   20.0640   58.0450 C.3       9 GLL5        0.0000 
     11 CA         37.3800   18.0490   54.8560 C.3       6 GLP5        0.0000 
     12 CA         38.9360   16.4960   67.1725 C.3       3 GLC5        0.0000 
     13 CA         40.4490   17.7880   66.5990 C.3       9 GLL5        0.0000 
     14 CA         37.4230   15.2040   67.7460 C.3       6 GLP5        0.0000 
     15 CA         39.6435   10.7365   63.6500 C.3       3 GLC5        0.0000 
     16 CA         41.3070   11.2150   63.5590 C.3       9 GLL5        0.0000 
     17 CA         37.9800   10.2580   63.7410 C.3       6 GLP5        0.0000 
     18 CA         39.6300   12.4765   64.2855 C.3       3 GLC5        0.0000 
     19 CA         37.9530   13.7380   65.0120 C.3       6 GLP5        0.0000 
     20 CA         41.6070    9.0115   63.6695 C.3       3 GLC5        0.0000 
     21 CA         41.9070    6.8080   63.7800 C.3       6 GLP5        0.0000 
     22 CA         40.4200   10.7420   62.0450 C.3       3 GLC5        0.0000 
     23 CA         39.5330   10.2690   60.5310 C.3       6 GLP5        0.0000 
     24 CA         35.6860   17.4760   59.4780 C.3       3 GLC5        0.0000 
     25 CA         36.1500   19.6330   59.4300 C.3       9 GLL5        0.0000 
     26 CA         35.2220   15.3190   59.5260 C.3       6 GLP5        0.0000 
     27 N          37.3620   17.3825   59.2385 N.am      2 SEC2        0.0000 
     28 N          37.2210   18.8350   59.7270 N.am      8 SEL2        0.0000 
     29 N          37.5030   15.9300   58.7500 N.am      5 SEP2        0.0000 
     30 O          39.0945   17.0840   60.6180 O.2       1 ALC1        0.0000 
     31 O          38.2270   17.7840   61.6020 O.2       7 ALL1        0.0000 
     32 O          39.9620   16.3840   59.6340 O.2       4 ALP1        0.0000 
     33 CA         36.1550   17.0640   61.8030 C.3       3 GLC5        0.0000 
     34 CA         36.0080   19.2510   61.9340 C.3       9 GLL5        0.0000 
     35 CA         36.3020   14.8770   61.6720 C.3       6 GLP5        0.0000 
     36 CA         34.5720   18.7620   63.0955 C.3       3 GLC5        0.0000 
     37 CA         33.1360   18.2730   64.2570 C.3       6 GLP5        0.0000 
     38 CA         37.0735   20.6890   62.0375 C.3       3 GLC5        0.0000 
     39 CA         38.1390   22.1270   62.1410 C.3       6 GLP5        0.0000 
     40 CA         41.8695   14.4285   59.9965 C.3       3 GLC5        0.0000 
     41 CA         41.4290   13.5560   61.5380 C.3       9 GLL5        0.0000 
     42 CA         42.3100   15.3010   58.4550 C.3       6 GLP5        0.0000 
     43 CA         40.7305   12.3720   60.2680 C.3       3 GLC5        0.0000 
     44 CA         40.0320   11.1880   58.9980 C.3       6 GLP5        0.0000 
     45 CA         42.5175   16.4572   62.7422 C.3       3 GLC5        0.0000 
     46 CA         40.9640   14.7920   62.7400 C.3       9 GLL5        0.0000 
     47 CA         43.7760   18.0570   62.1320 C.3       6 GLP5        0.0000 
     48 CA         39.6365   14.5698   64.7082 C.3       3 GLC5        0.0000 
     49 CA         41.5540   14.9230   63.9650 C.3       9 GLL5        0.0000 
     50 CA         38.0115   15.5173   62.2685 C.3       3 GLC5        0.0000 
     51 CA         39.5000   16.6430   63.2990 C.3       9 GLL5        0.0000 
     52 CA         39.2030   14.4850   63.7987 C.3       3 GLC5        0.0000 
     53 CA         39.9420   15.6720   62.4310 C.3       9 GLL5        0.0000 
     54 CA         36.9518   20.9603   61.0572 C.3       3 GLC5        0.0000 
     55 CA         40.9970   18.2133   63.4103 C.3       3 GLC5        0.0000 
     56 CA         42.2160   19.7410   62.9000 C.3       6 GLP5        0.0000 
     57 CA         38.8655   15.2118   64.4663 C.3       3 GLC5        0.0000 
     58 CA         40.0560   16.7280   64.5420 C.3       9 GLL5        0.0000 
@<TRIPOS>BOND
@<TRIPOS>SUBSTRUCTURE
     1 ALC1       30 GROUP        1 X    ALC  0     ROOT ALC X 1
     2 SEC2       27 GROUP        1 X    SEC  0     **** SEC X 2
     3 GLC5        1 GROUP        1 X    GLC  0     **** GLC X 6
     4 ALP1       32 GROUP        1 Y    ALP  0     ROOT ALP Y 8
     5 SEP2       29 GROUP        1 Y    SEP  0     **** SEP Y 9
     6 GLP5        3 GROUP        1 Y    GLP  0     **** GLP Y 13
     7 ALL1       31 GROUP        1 Z    ALL  0     ROOT ALL Z 15
     8 SEL2       28 GROUP        1 Z    SEL  0     **** SEL Z 16
     9 GLL5        2 GROUP        1 Z    GLL  0     **** GLL Z 20
@<TRIPOS>SET

