#    Name: 3goi_LOI_1_ligand
#    Modification time : Tue Mar 25 12:47:46 2014

@<TRIPOS>MOLECULE
3goi_LOI_1_ligand
   40    42     1     0     0
SMALL
NO_CHARGES


@<TRIPOS>ATOM
      1 C4         41.5540   14.9230   63.9650 C.ar      1 LOI1        0.0000 
      2 C5         41.0860   15.8800   64.8440 C.ar      1 LOI1        0.0000 
      3 C6         39.9420   15.6720   62.4310 C.ar      1 LOI1        0.0000 
      4 C7         35.3790   19.9540   60.5170 C.2       1 LOI1        0.0000 
      5 C8         43.8250   11.3250   63.5440 C.2       1 LOI1        0.0000 
      6 C10        40.9640   14.7920   62.7400 C.ar      1 LOI1        0.0000 
      7 C13        37.2600   18.5680   61.0060 C.2       1 LOI1        0.0000 
      8 C15        38.3770   17.5500   62.9210 C.2       1 LOI1        0.0000 
      9 C1         35.9020   20.0640   58.0450 C.3       1 LOI1        0.0000 
     10 C2         40.4490   17.7880   66.5990 C.3       1 LOI1        0.0000 
     11 C3         41.3070   11.2150   63.5590 C.3       1 LOI1        0.0000 
     12 C9         36.1500   19.6330   59.4300 C.2       1 LOI1        0.0000 
     13 C11        40.0560   16.7280   64.5420 C.ar      1 LOI1        0.0000 
     14 C12        39.5000   16.6430   63.2990 C.ar      1 LOI1        0.0000 
     15 C14        42.7740   12.7610   62.2740 C.2       1 LOI1        0.0000 
     16 N16        44.6940   12.0720   62.9070 N.2       1 LOI1        0.0000 
     17 N17        37.2210   18.8350   59.7270 N.2       1 LOI1        0.0000 
     18 N18        44.0380   12.9860   62.1020 N.2       1 LOI1        0.0000 
     19 N19        39.5600   17.6690   65.4510 N.pl3     1 LOI1        0.0000 
     20 N20        38.2270   17.7840   61.6020 N.am      1 LOI1        0.0000 
     21 N21        42.5990   11.7240   63.1400 N.pl3     1 LOI1        0.0000 
     22 O22        37.6540   18.0110   63.7680 O.2       1 LOI1        0.0000 
     23 S23        36.0080   19.2510   61.9340 S.3       1 LOI1        0.0000 
     24 S24        41.4290   13.5560   61.5380 S.3       1 LOI1        0.0000 
     25 H          42.3410   14.3171   64.2371 H         1 LOI1        0.0000 
     26 H          41.5471   15.9560   65.7891 H         1 LOI1        0.0000 
     27 H          39.4833   15.5918   61.4861 H         1 LOI1        0.0000 
     28 H          34.6142   20.4544   60.6449 H         1 LOI1        0.0000 
     29 H          44.0011   10.6238   64.1794 H         1 LOI1        0.0000 
     30 H          38.7610   18.1744   65.3612 H         1 LOI1        0.0000 
     31 H          38.9343   17.3122   60.9283 H         1 LOI1        0.0000 
     32 H          35.9125   21.0602   57.9585 H         1 LOI1        0.0000 
     33 H          36.5929   19.7078   57.4159 H         1 LOI1        0.0000 
     34 H          35.0128   19.7503   57.7120 H         1 LOI1        0.0000 
     35 H          41.3668   18.0794   66.3294 H         1 LOI1        0.0000 
     36 H          40.1121   18.4566   67.2619 H         1 LOI1        0.0000 
     37 H          40.5480   16.9190   67.0837 H         1 LOI1        0.0000 
     38 H          41.2075   10.2412   63.3547 H         1 LOI1        0.0000 
     39 H          41.1663   11.3239   64.5430 H         1 LOI1        0.0000 
     40 H          40.5548   11.6889   63.1011 H         1 LOI1        0.0000 
@<TRIPOS>BOND
     1    2    1 ar   
     2    6    1 ar   
     3   25    1 1    
     4   13    2 ar   
     5   26    2 1    
     6    6    3 ar   
     7   14    3 ar   
     8   27    3 1    
     9   12    4 2    
    10   23    4 1    
    11   28    4 1    
    12   16    5 2    
    13   21    5 1    
    14   29    5 1    
    15   24    6 1    
    16   17    7 2    
    17   20    7 1    
    18   23    7 1    
    19   14    8 1    
    20   20    8 am   
    21   22    8 2    
    22   12    9 1    
    23   32    9 1    
    24   33    9 1    
    25   34    9 1    
    26   19   10 1    
    27   35   10 1    
    28   36   10 1    
    29   37   10 1    
    30   21   11 1    
    31   38   11 1    
    32   39   11 1    
    33   40   11 1    
    34   17   12 1    
    35   14   13 ar   
    36   19   13 1    
    37   18   15 2    
    38   21   15 1    
    39   24   15 1    
    40   18   16 1    
    41   30   19 1    
    42   31   20 1    
@<TRIPOS>SUBSTRUCTURE
     1 LOI1        1 GROUP   
@<TRIPOS>SET

