#    Name: 4dpi_0N1_1_INTS_M
#    Modification time : Tue Mar 25 10:01:13 2014

@<TRIPOS>MOLECULE
4dpi_0N1_1_INTS_M
   98     0    12     0     0
SMALL
NO_CHARGES


@<TRIPOS>ATOM
      1 CA         -8.6105    2.5745   15.8365 C.3       4 GLC5        0.0000 
      2 CA         -7.5710    0.8070   15.7960 C.3      12 GLL5        0.0000 
      3 CA         -9.6500    4.3420   15.8770 C.3       8 GLP5        0.0000 
      4 CA         -5.8505    1.0140   14.4075 C.3       4 GLC5        0.0000 
      5 CA         -4.1300    1.2210   13.0190 C.3       8 GLP5        0.0000 
      6 CA         -1.9540   -4.9990   19.6265 C.3       4 GLC5        0.0000 
      7 CA         -3.8310   -3.9130   19.6080 C.3      12 GLL5        0.0000 
      8 CA         -0.0770   -6.0850   19.6450 C.3       8 GLP5        0.0000 
      9 CA         -2.0265   -3.7370   20.8125 C.3       4 GLC5        0.0000 
     10 CA         -0.2220   -3.5610   22.0170 C.3       8 GLP5        0.0000 
     11 CA         -4.1055    7.9920   21.9395 C.3       4 GLC5        0.0000 
     12 CA         -5.8240    9.0420   21.3870 C.3      12 GLL5        0.0000 
     13 CA         -2.3870    6.9420   22.4920 C.3       8 GLP5        0.0000 
     14 CA         -4.0915   12.0495   21.3855 C.3       4 GLC5        0.0000 
     15 CA         -5.2670   10.4460   21.2630 C.3      12 GLL5        0.0000 
     16 CA         -2.9160   13.6530   21.5080 C.3       8 GLP5        0.0000 
     17 CA         -4.3115   10.5685   19.3405 C.3       4 GLC5        0.0000 
     18 CA         -3.3560   10.6910   17.4180 C.3       8 GLP5        0.0000 
     19 CA         -7.2115    7.8470   23.9915 C.3       4 GLC5        0.0000 
     20 CA         -6.6680    8.8170   22.6390 C.3      12 GLL5        0.0000 
     21 CA         -7.7550    6.8770   25.3440 C.3       8 GLP5        0.0000 
     22 CA         -3.4435    1.8295   22.2590 C.3       4 GLC5        0.0000 
     23 CA         -4.2620    1.8610   20.4580 C.3      12 GLL5        0.0000 
     24 CA         -2.6250    1.7980   24.0600 C.3       8 GLP5        0.0000 
     25 CA         -2.5620    1.3035   19.3465 C.3       4 GLC5        0.0000 
     26 CA         -0.8620    0.7460   18.2350 C.3       8 GLP5        0.0000 
     27 CA         -8.4675    6.0110   16.7340 C.3       4 GLC5        0.0000 
     28 CA         -7.2850    7.6800   17.5910 C.3      12 GLL5        0.0000 
     29 CA         -4.1185    8.9110   17.1805 C.3       4 GLC5        0.0000 
     30 CA         -4.8810    7.1310   16.9430 C.3      12 GLL5        0.0000 
     31 CA         -3.5060    7.6845   15.5640 C.3       4 GLC5        0.0000 
     32 CA         -2.1310    8.2380   14.1850 C.3       8 GLP5        0.0000 
     33 N          -8.9585    2.3920   17.9310 N.am      2 SEC2        0.0000 
     34 N          -7.3940    2.7290   17.8780 N.am     10 SEL2        0.0000 
     35 N         -10.5230    2.0550   17.9840 N.am      6 SEP2        0.0000 
     36 O          -4.1915    0.9930   18.0710 O.2       1 ALC1        0.0000 
     37 O          -5.2480    1.9280   18.3100 O.2       9 ALL1        0.0000 
     38 O          -3.1350    0.0580   17.8320 O.2       5 ALP1        0.0000 
     39 OD1        -3.3165    5.3625   16.6475 O.co2     3 ASC3        0.0000 
     40 OD1        -4.1300    5.9700   17.5270 O.co2    11 ASL3        0.0000 
     41 OD1        -2.5030    4.7550   15.7680 O.co2     7 ASP3        0.0000 
     42 O          -2.7485    4.3120   20.8460 O.2       1 ALC1        0.0000 
     43 O          -3.7460    4.7230   20.1540 O.2       9 ALL1        0.0000 
     44 O          -1.7510    3.9010   21.5380 O.2       5 ALP1        0.0000 
     45 CA         -5.2340   -0.1935   23.0195 C.3       4 GLC5        0.0000 
     46 CA         -4.1540   -0.4140   21.2310 C.3      12 GLL5        0.0000 
     47 CA         -6.3140    0.0270   24.8080 C.3       8 GLP5        0.0000 
     48 CA         -3.3895    0.6920   22.6455 C.3       4 GLC5        0.0000 
     49 CA         -1.2905   -1.2285   17.6525 C.3       4 GLC5        0.0000 
     50 CA         -1.7190   -3.2030   17.0700 C.3      12 GLL5        0.0000 
     51 CA         -2.3160   -1.5030   16.0465 C.3       4 GLC5        0.0000 
     52 CA         -2.9130    0.1970   15.0230 C.3       8 GLP5        0.0000 
     53 O          -3.8450   -1.4235   17.7085 O.2       1 ALC1        0.0000 
     54 O          -4.5550   -2.9050   17.5850 O.2       9 ALL1        0.0000 
     55 CA         -9.6640    1.8035   14.2500 C.3       4 GLC5        0.0000 
     56 CA         -8.8380   -0.2240   13.8750 C.3      12 GLL5        0.0000 
     57 CA        -10.4900    3.8310   14.6250 C.3       8 GLP5        0.0000 
     58 CA         -1.2270   -5.5023   18.3833 C.3       4 GLC5        0.0000 
     59 CA         -2.5530   -4.2850   17.3670 C.3      12 GLL5        0.0000 
     60 CA         -8.7368    0.1933   17.0098 C.3       4 GLC5        0.0000 
     61 CA        -10.3370   -0.3570   17.6800 C.3       8 GLP5        0.0000 
     62 CA         -8.3077   -0.7402   17.2620 C.3       4 GLC5        0.0000 
     63 CA         -6.1650   -0.5570   17.2340 C.3      12 GLL5        0.0000 
     64 CA         -4.7016   -0.0124   15.9433 C.3       4 GLC5        0.0000 
     65 CA         -1.8493   -7.5847   15.7715 C.3       4 GLC5        0.0000 
     66 CA         -2.2010   -5.5540   16.8760 C.3      12 GLL5        0.0000 
     67 CA         -2.1020   -9.5230   15.0190 C.3       8 GLP5        0.0000 
     68 CA         -2.1253   -7.2262   17.6300 C.3       4 GLC5        0.0000 
     69 CA         -0.9920   -5.7390   16.1720 C.3      12 GLL5        0.0000 
     70 CA         -2.6540   -8.8060   18.7360 C.3       8 GLP5        0.0000 
     71 CA         -2.5012   -4.9233   14.6630 C.3       4 GLC5        0.0000 
     72 CA         -3.4060   -4.2000   12.8020 C.3       8 GLP5        0.0000 
     73 CA         -5.0548   -5.4032   19.6968 C.3       4 GLC5        0.0000 
     74 CA         -3.8820   -4.0720   18.0850 C.3      12 GLL5        0.0000 
     75 CA         -6.2530   -6.8140   20.5470 C.3       8 GLP5        0.0000 
     76 CA         -6.3690    6.9322   22.0725 C.3       4 GLC5        0.0000 
     77 CA         -6.4920    4.9350   22.1320 C.3       8 GLP5        0.0000 
     78 CA         -5.5608    3.6182   21.0485 C.3       4 GLC5        0.0000 
     79 CA         -4.9970    2.7420   19.4720 C.3      12 GLL5        0.0000 
     80 CA         -8.7372    6.8182   19.9522 C.3       4 GLC5        0.0000 
     81 CA         -7.7760    8.6230   19.7660 C.3      12 GLL5        0.0000 
     82 CA         -9.4860    5.2590   20.7550 C.3       8 GLP5        0.0000 
     83 CA         -5.5072    4.6463   20.3085 C.3       4 GLC5        0.0000 
     84 CA         -4.8840    4.7840   17.9550 C.3      12 GLL5        0.0000 
     85 CA         -2.4075   -1.2127   21.5240 C.3       4 GLC5        0.0000 
     86 CA         -0.7030   -1.1410   22.2060 C.3       8 GLP5        0.0000 
     87 CA         -4.1063   -3.6320   21.9570 C.3       4 GLC5        0.0000 
     88 CA         -4.5270   -1.8210   20.8140 C.3      12 GLL5        0.0000 
     89 CA         -4.0880   -4.7530   23.5820 C.3       8 GLP5        0.0000 
     90 CA         -0.3242   -5.6357   17.8558 C.3       4 GLC5        0.0000 
     91 CA          0.7210   -3.4858   14.8242 C.3       4 GLC5        0.0000 
     92 CA         -0.5010   -3.3610   16.4140 C.3      12 GLL5        0.0000 
     93 CA          1.7680   -2.9740   13.4610 C.3       8 GLP5        0.0000 
     94 CA         -0.5935   -4.6835   18.1935 C.3       4 GLC5        0.0000 
     95 CA         -1.7722   -3.2491   14.7004 C.3       4 GLC5        0.0000 
     96 CA         -2.5220   -2.8980   12.7720 C.3       8 GLP5        0.0000 
     97 CA         -9.2735   -0.4785   16.1091 C.3       4 GLC5        0.0000 
     98 CA         -7.2900   -1.5900   15.3580 C.3      12 GLL5        0.0000 
@<TRIPOS>BOND
@<TRIPOS>SUBSTRUCTURE
     1 ALC1       36 GROUP        1 X    ALC  0     ROOT ALC X 1
     2 SEC2       33 GROUP        1 X    SEC  0     **** SEC X 2
     3 ASC3       39 GROUP        1 X    ASC  0     **** ASC X 3
     4 GLC5        1 GROUP        1 X    GLC  0     **** GLC X 6
     5 ALP1       38 GROUP        1 Y    ALP  0     ROOT ALP Y 8
     6 SEP2       35 GROUP        1 Y    SEP  0     **** SEP Y 9
     7 ASP3       41 GROUP        1 Y    ASP  0     **** ASP Y 10
     8 GLP5        3 GROUP        1 Y    GLP  0     **** GLP Y 13
     9 ALL1       37 GROUP        1 Z    ALL  0     ROOT ALL Z 15
    10 SEL2       34 GROUP        1 Z    SEL  0     **** SEL Z 16
    11 ASL3       40 GROUP        1 Z    ASL  0     **** ASL Z 17
    12 GLL5        2 GROUP        1 Z    GLL  0     **** GLL Z 20
@<TRIPOS>SET

