#    Name: 4dpi_0N1_1_ligand
#    Modification time : Tue Mar 25 10:01:13 2014

@<TRIPOS>MOLECULE
4dpi_0N1_1_ligand
   81    84     1     0     0
SMALL
NO_CHARGES


@<TRIPOS>ATOM
      1 C12        -2.5530   -4.2850   17.3670 C.ar      1 0N1501      0.0000 
      2 C6         -7.2900   -1.5900   15.3580 C.ar      1 0N1501      0.0000 
      3 C1         -7.8740   -0.3620   15.0450 C.ar      1 0N1501      0.0000 
      4 C2         -7.5710    0.8070   15.7960 C.ar      1 0N1501      0.0000 
      5 C5         -6.3920   -1.6900   16.4540 C.ar      1 0N1501      0.0000 
      6 C4         -6.1650   -0.5570   17.2340 C.ar      1 0N1501      0.0000 
      7 C3         -6.7020    0.6800   16.8830 C.ar      1 0N1501      0.0000 
      8 C8         -5.7040   -2.9470   16.8500 C.2       1 0N1501      0.0000 
      9 C17        -2.2010   -5.5540   16.8760 C.ar      1 0N1501      0.0000 
     10 C18        -3.8310   -3.9130   19.6080 C.3       1 0N1501      0.0000 
     11 C19        -3.6130   -2.4890   20.0920 C.2       1 0N1501      0.0000 
     12 C37        -5.5210    8.1460   19.1550 C.ar      1 0N1501      0.0000 
     13 C38        -5.8240    9.0420   21.3870 C.3       1 0N1501      0.0000 
     14 C39        -5.2670   10.4460   21.2630 C.3       1 0N1501      0.0000 
     15 C40        -6.6680    8.8170   22.6390 C.3       1 0N1501      0.0000 
     16 C41        -4.2620    1.8610   20.4580 C.3       1 0N1501      0.0000 
     17 C35        -7.7760    8.6230   19.7660 C.ar      1 0N1501      0.0000 
     18 C36        -6.4400    8.6080   20.0920 C.ar      1 0N1501      0.0000 
     19 C33        -7.2850    7.6800   17.5910 C.ar      1 0N1501      0.0000 
     20 C25        -6.4460    1.8840   17.7320 C.2       1 0N1501      0.0000 
     21 C27        -4.1610    3.9310   19.0150 C.3       1 0N1501      0.0000 
     22 C29        -4.8840    4.7840   17.9550 C.3       1 0N1501      0.0000 
     23 C31        -4.8810    7.1310   16.9430 C.3       1 0N1501      0.0000 
     24 C32        -5.9300    7.6610   17.9220 C.ar      1 0N1501      0.0000 
     25 O26        -7.3940    2.7290   17.8780 O.2       1 0N1501      0.0000 
     26 N24        -5.2480    1.9280   18.3100 N.am      1 0N1501      0.0000 
     27 C23        -4.9970    2.7420   19.4720 C.3       1 0N1501      0.0000 
     28 N30        -4.1300    5.9700   17.5270 N.4       1 0N1501      0.0000 
     29 C34        -8.2010    8.1320   18.5330 C.ar      1 0N1501      0.0000 
     30 O28        -3.7460    4.7230   20.1540 O.3       1 0N1501      0.0000 
     31 O22        -4.9760    0.6120   20.6100 O.3       1 0N1501      0.0000 
     32 C21        -4.1540   -0.4140   21.2310 C.3       1 0N1501      0.0000 
     33 C20        -4.5270   -1.8210   20.8140 C.2       1 0N1501      0.0000 
     34 C11        -3.8820   -4.0720   18.0850 C.3       1 0N1501      0.0000 
     35 C16        -0.9920   -5.7390   16.1720 C.ar      1 0N1501      0.0000 
     36 C15        -0.1510   -4.6340   15.9610 C.ar      1 0N1501      0.0000 
     37 C14        -0.5010   -3.3610   16.4140 C.ar      1 0N1501      0.0000 
     38 C13        -1.7190   -3.2030   17.0700 C.ar      1 0N1501      0.0000 
     39 N10        -4.5550   -2.9050   17.5850 N.am      1 0N1501      0.0000 
     40 O9         -6.1840   -4.0010   16.0000 O.2       1 0N1501      0.0000 
     41 C7         -8.8380   -0.2240   13.8750 C.3       1 0N1501      0.0000 
     42 H          -7.5012   -2.4240   14.8055 H         1 0N1501      0.0000 
     43 H          -7.9762    1.6939   15.5430 H         1 0N1501      0.0000 
     44 H          -5.5869   -0.6364   18.0895 H         1 0N1501      0.0000 
     45 H          -2.8257   -6.3531   17.0291 H         1 0N1501      0.0000 
     46 H          -4.7757   -4.2994   20.0348 H         1 0N1501      0.0000 
     47 H          -3.0228   -4.5569   20.0030 H         1 0N1501      0.0000 
     48 H          -2.7001   -2.0819   19.8161 H         1 0N1501      0.0000 
     49 H          -4.5089    8.1656   19.3856 H         1 0N1501      0.0000 
     50 H          -4.8940    8.3763   21.5198 H         1 0N1501      0.0000 
     51 H          -4.1903    2.3927   21.4110 H         1 0N1501      0.0000 
     52 H          -3.2484    1.6926   20.0834 H         1 0N1501      0.0000 
     53 H          -8.4712    8.9967   20.4298 H         1 0N1501      0.0000 
     54 H          -7.5960    7.3665   16.6712 H         1 0N1501      0.0000 
     55 H          -3.2569    3.5136   18.5219 H         1 0N1501      0.0000 
     56 H          -5.8661    5.0793   18.3740 H         1 0N1501      0.0000 
     57 H          -5.1017    4.1293   17.0882 H         1 0N1501      0.0000 
     58 H          -4.1861    7.9395   16.7008 H         1 0N1501      0.0000 
     59 H          -5.3835    6.8236   16.0220 H         1 0N1501      0.0000 
     60 H          -4.4398    1.3766   17.9484 H         1 0N1501      0.0000 
     61 H          -5.9052    3.0827   19.8973 H         1 0N1501      0.0000 
     62 H          -9.2122    8.1044   18.3178 H         1 0N1501      0.0000 
     63 H          -4.2254   -0.3520   22.3371 H         1 0N1501      0.0000 
     64 H          -3.0830   -0.2545   20.9861 H         1 0N1501      0.0000 
     65 H          -5.4164   -2.1557   21.0993 H         1 0N1501      0.0000 
     66 H          -4.5279   -4.9496   17.8798 H         1 0N1501      0.0000 
     67 H          -0.7366   -6.6583   15.8244 H         1 0N1501      0.0000 
     68 H           0.7433   -4.7700   15.4604 H         1 0N1501      0.0000 
     69 H           0.1191   -2.5697   16.2678 H         1 0N1501      0.0000 
     70 H          -2.0217   -2.2453   17.3505 H         1 0N1501      0.0000 
     71 H          -4.1128   -1.9778   17.8147 H         1 0N1501      0.0000 
     72 H          -4.6792   10.6820   22.0368 H         1 0N1501      0.0000 
     73 H          -4.7186   10.5561   20.4340 H         1 0N1501      0.0000 
     74 H          -5.9937   11.1320   21.2270 H         1 0N1501      0.0000 
     75 H          -6.1437    8.9807   23.4747 H         1 0N1501      0.0000 
     76 H          -7.4611    9.4255   22.6666 H         1 0N1501      0.0000 
     77 H          -7.0152    7.8806   22.6895 H         1 0N1501      0.0000 
     78 H          -8.4084   -0.4765   13.0080 H         1 0N1501      0.0000 
     79 H          -9.6417   -0.8087   13.9851 H         1 0N1501      0.0000 
     80 H          -9.1695    0.7142   13.7756 H         1 0N1501      0.0000 
     81 H          -3.3317    4.0688   20.7868 H         1 0N1501      0.0000 
@<TRIPOS>BOND
     1    9    1 ar   
     2   34    1 1    
     3   38    1 ar   
     4    3    2 ar   
     5    5    2 ar   
     6   42    2 1    
     7    4    3 ar   
     8   41    3 1    
     9    7    4 ar   
    10   43    4 1    
    11    6    5 ar   
    12    8    5 1    
    13    7    6 ar   
    14   44    6 1    
    15   20    7 1    
    16   39    8 am   
    17   40    8 2    
    18   35    9 ar   
    19   45    9 1    
    20   11   10 1    
    21   34   10 1    
    22   46   10 1    
    23   47   10 1    
    24   33   11 2    
    25   48   11 1    
    26   18   12 ar   
    27   24   12 ar   
    28   49   12 1    
    29   14   13 1    
    30   15   13 1    
    31   18   13 1    
    32   50   13 1    
    33   72   14 1    
    34   73   14 1    
    35   74   14 1    
    36   75   15 1    
    37   76   15 1    
    38   77   15 1    
    39   27   16 1    
    40   31   16 1    
    41   51   16 1    
    42   52   16 1    
    43   18   17 ar   
    44   29   17 ar   
    45   53   17 1    
    46   24   19 ar   
    47   29   19 ar   
    48   54   19 1    
    49   25   20 2    
    50   26   20 am   
    51   22   21 1    
    52   27   21 1    
    53   30   21 1    
    54   55   21 1    
    55   28   22 1    
    56   56   22 1    
    57   57   22 1    
    58   24   23 1    
    59   28   23 1    
    60   58   23 1    
    61   59   23 1    
    62   27   26 1    
    63   60   26 1    
    64   61   27 1    
    65   62   29 1    
    66   81   30 1    
    67   32   31 1    
    68   33   32 1    
    69   63   32 1    
    70   64   32 1    
    71   65   33 1    
    72   39   34 1    
    73   66   34 1    
    74   36   35 ar   
    75   67   35 1    
    76   37   36 ar   
    77   68   36 1    
    78   38   37 ar   
    79   69   37 1    
    80   70   38 1    
    81   71   39 1    
    82   78   41 1    
    83   79   41 1    
    84   80   41 1    
@<TRIPOS>SUBSTRUCTURE
     1 0N1501      1 GROUP   
@<TRIPOS>SET

