#    Name: 2bak_AQZ_1_INTS_M
#    Modification time : Mon Mar 24 20:27:47 2014

@<TRIPOS>MOLECULE
2bak_AQZ_1_INTS_M
  109     0     9     0     0
SMALL
NO_CHARGES


@<TRIPOS>ATOM
      1 CA         -5.2690   -2.9390   25.8675 C.3       3 GLC5        0.0000 
      2 CA         -3.9910   -1.7880   26.9670 C.3       9 GLL5        0.0000 
      3 CA         -6.5470   -4.0900   24.7680 C.3       6 GLP5        0.0000 
      4 N          -3.5890   -3.7630   22.4220 N.am      2 SEC2        0.0000 
      5 N          -3.9180   -2.3630   21.8790 N.am      8 SEL2        0.0000 
      6 N          -3.2600   -5.1630   22.9650 N.am      5 SEP2        0.0000 
      7 CA         -5.7465   -2.1700   21.1430 C.3       3 GLC5        0.0000 
      8 CA         -3.9760   -2.1700   20.5700 C.3       9 GLL5        0.0000 
      9 CA         -7.5170   -2.1700   21.7160 C.3       6 GLP5        0.0000 
     10 CA         -2.9430   -1.9330   18.8025 C.3       3 GLC5        0.0000 
     11 CA         -1.9100   -1.6960   17.0350 C.3       6 GLP5        0.0000 
     12 CA         -4.7310   -2.6480   18.5575 C.3       3 GLC5        0.0000 
     13 CA         -5.4860   -3.1260   16.5450 C.3       6 GLP5        0.0000 
     14 CA         -4.7305   -4.0390   21.4725 C.3       3 GLC5        0.0000 
     15 CA         -5.4850   -5.9080   22.3750 C.3       6 GLP5        0.0000 
     16 CA         -2.3785   -3.2110   21.0345 C.3       3 GLC5        0.0000 
     17 CA         -0.7810   -4.2520   21.4990 C.3       6 GLP5        0.0000 
     18 CA         -2.0475   -1.2975   20.1875 C.3       3 GLC5        0.0000 
     19 CA         -0.1190   -0.4250   19.8050 C.3       6 GLP5        0.0000 
     20 CA         -2.0975   -0.1615   20.2775 C.3       3 GLC5        0.0000 
     21 CA         -4.0760    0.1020   20.7500 C.3       9 GLL5        0.0000 
     22 CA         -2.6665    0.2605   17.5070 C.3       3 GLC5        0.0000 
     23 CA         -3.4230    2.2170   17.9790 C.3       9 GLL5        0.0000 
     24 O          -3.3980    4.1825   15.2365 O.2       1 ALC1        0.0000 
     25 O          -2.7210    3.1140   15.8370 O.2       7 ALL1        0.0000 
     26 O          -4.0750    5.2510   14.6360 O.2       4 ALP1        0.0000 
     27 N           0.5925    2.4665   17.2395 N.am      2 SEC2        0.0000 
     28 N          -0.8250    2.0720   16.7100 N.am      8 SEL2        0.0000 
     29 N           2.0100    2.8610   17.7690 N.am      5 SEP2        0.0000 
     30 CA          1.5585    3.3060   11.3820 C.3       3 GLC5        0.0000 
     31 CA          1.5260    3.4010   13.5310 C.3       9 GLL5        0.0000 
     32 CA          1.5910    3.2110    9.2330 C.3       6 GLP5        0.0000 
     33 CA          0.2735    0.8940   14.4525 C.3       3 GLC5        0.0000 
     34 CA          0.6350    2.8700   14.4870 C.3       9 GLL5        0.0000 
     35 CA         -0.0880   -1.0820   14.4180 C.3       6 GLP5        0.0000 
     36 CA          1.7375    1.7370   15.9275 C.3       3 GLC5        0.0000 
     37 CA          2.8400    0.6040   17.3680 C.3       6 GLP5        0.0000 
     38 CA          6.6945    2.0245   11.1205 C.3       3 GLC5        0.0000 
     39 CA          4.9340    2.4080   12.0260 C.3       9 GLL5        0.0000 
     40 CA          8.4550    1.6410   10.2150 C.3       6 GLP5        0.0000 
     41 CA          3.5520   -1.0105   12.2605 C.3       3 GLC5        0.0000 
     42 CA          3.7180    0.6310   12.8450 C.3       9 GLL5        0.0000 
     43 CA          3.3860   -2.6520   11.6760 C.3       6 GLP5        0.0000 
     44 CA          2.8860    1.0150   15.6130 C.3       3 GLC5        0.0000 
     45 CA          2.9320    1.4260   13.8580 C.3       9 GLL5        0.0000 
     46 CA         -6.2190    3.1945   14.7900 C.3       3 GLC5        0.0000 
     47 CA         -4.9690    2.1930   16.1300 C.3       9 GLL5        0.0000 
     48 CA         -7.4690    4.1960   13.4500 C.3       6 GLP5        0.0000 
     49 CA         -7.4265    1.9510   15.5855 C.3       3 GLC5        0.0000 
     50 CA         -5.9360    1.6210   16.9270 C.3       9 GLL5        0.0000 
     51 CA         -8.9170    2.2810   14.2440 C.3       6 GLP5        0.0000 
     52 CA         -7.1805   -0.7415   20.3695 C.3       3 GLC5        0.0000 
     53 CA         -6.8440    0.6870   19.0230 C.3       9 GLL5        0.0000 
     54 CA         -9.0055    0.3190   19.3945 C.3       3 GLC5        0.0000 
     55 CA        -11.1670   -0.0490   19.7660 C.3       6 GLP5        0.0000 
     56 CA         -5.8965    0.9865   25.5595 C.3       3 GLC5        0.0000 
     57 CA         -3.9960    0.8840   24.4260 C.3       9 GLL5        0.0000 
     58 CA         -7.7970    1.0890   26.6930 C.3       6 GLP5        0.0000 
     59 CA         -5.5475    3.6375   23.6520 C.3       3 GLC5        0.0000 
     60 CA         -3.8520    3.1850   24.9290 C.3       9 GLL5        0.0000 
     61 CA         -7.2430    4.0900   22.3750 C.3       6 GLP5        0.0000 
     62 CA         -2.3445    2.8525   23.6685 C.3       3 GLC5        0.0000 
     63 CA         -0.8370    2.5200   22.4080 C.3       6 GLP5        0.0000 
     64 CA         -5.3390    4.9145   27.2660 C.3       3 GLC5        0.0000 
     65 CA         -3.8090    4.1810   26.1220 C.3       9 GLL5        0.0000 
     66 CA         -6.8690    5.6480   28.4100 C.3       6 GLP5        0.0000 
     67 CA         -5.0290    4.9785   28.4930 C.3       3 GLC5        0.0000 
     68 CA         -3.1890    4.3090   28.5760 C.3       9 GLL5        0.0000 
     69 CA         -5.7195   -1.7775   22.5243 C.3       3 GLC5        0.0000 
     70 CA         -3.8950   -1.4880   24.0170 C.3       9 GLL5        0.0000 
     71 CA         -5.2345   -2.7375   24.0502 C.3       3 GLC5        0.0000 
     72 CA         -3.9490   -1.2820   22.6480 C.3       9 GLL5        0.0000 
     73 CA         -2.4555   -2.7980   23.1713 C.3       3 GLC5        0.0000 
     74 CA         -0.9890   -4.2110   23.0100 C.3       6 GLP5        0.0000 
     75 CA         -5.7862   -1.0533   21.5798 C.3       3 GLC5        0.0000 
     76 CA         -4.0350    0.0250   22.1370 C.3       9 GLL5        0.0000 
     77 CA         -4.8857    3.9665   17.2332 C.3       3 GLC5        0.0000 
     78 CA         -6.2020    5.5650   17.1570 C.3       6 GLP5        0.0000 
     79 CA         -4.3987    2.1685   14.4305 C.3       3 GLC5        0.0000 
     80 CA         -3.7160    2.5190   16.6400 C.3       9 GLL5        0.0000 
     81 CA         -4.4550    1.9810   12.4760 C.3       6 GLP5        0.0000 
     82 CA         -2.0322    5.4350   13.0727 C.3       3 GLC5        0.0000 
     83 CA         -0.7710    4.8250   14.2880 C.3       9 GLL5        0.0000 
     84 CA         -3.7530    5.8080   12.3290 C.3       6 GLP5        0.0000 
     85 CA          1.0044    4.9364   15.3299 C.3       3 GLC5        0.0000 
     86 CA          0.1480    5.2990   13.3450 C.3       9 GLL5        0.0000 
     87 CA          2.2520    5.1220   16.6910 C.3       6 GLP5        0.0000 
     88 CA          1.6662    4.1288   15.3500 C.3       3 GLC5        0.0000 
     89 CA         -1.0784    2.3481   13.3144 C.3       3 GLC5        0.0000 
     90 CA         -2.1570    1.1600   12.0890 C.3       6 GLP5        0.0000 
     91 CA          2.9992    3.0553   10.7820 C.3       3 GLC5        0.0000 
     92 CA          3.8810    3.3910   12.6360 C.3       9 GLL5        0.0000 
     93 CA          3.6647    1.6787   10.9785 C.3       3 GLC5        0.0000 
     94 CA          2.9220    0.4580    9.6260 C.3       6 GLP5        0.0000 
     95 CA          5.6378    3.1682   13.6340 C.3       3 GLC5        0.0000 
     96 CA          6.8680    3.4370   14.9370 C.3       6 GLP5        0.0000 
     97 CA          3.1235    0.7432   11.4887 C.3       3 GLC5        0.0000 
     98 CA          1.6185   -0.0268   13.8848 C.3       3 GLC5        0.0000 
     99 CA          4.9710    0.4712   14.4798 C.3       3 GLC5        0.0000 
    100 CA          6.6170   -0.0860   15.6080 C.3       6 GLP5        0.0000 
    101 CA         -5.8272    3.7360   16.8428 C.3       3 GLC5        0.0000 
    102 CA         -5.5218    0.0095   16.0928 C.3       3 GLC5        0.0000 
    103 CA         -5.5910   -1.8880   15.6570 C.3       6 GLP5        0.0000 
    104 CA         -7.4360    2.4425   18.7090 C.3       3 GLC5        0.0000 
    105 CA         -5.6920    1.3110   18.2530 C.3       9 GLL5        0.0000 
    106 CA         -8.6040    3.8860   18.7800 C.3       6 GLP5        0.0000 
    107 CA         -5.9295   -0.4445   17.1475 C.3       3 GLC5        0.0000 
    108 CA         -5.8911    1.2596   23.4161 C.3       3 GLC5        0.0000 
    109 CA         -7.7640    1.7880   23.3300 C.3       6 GLP5        0.0000 
@<TRIPOS>BOND
@<TRIPOS>SUBSTRUCTURE
     1 ALC1       24 GROUP        1 X    ALC  0     ROOT ALC X 1
     2 SEC2        4 GROUP        1 X    SEC  0     **** SEC X 2
     3 GLC5        1 GROUP        1 X    GLC  0     **** GLC X 6
     4 ALP1       26 GROUP        1 Y    ALP  0     ROOT ALP Y 8
     5 SEP2        6 GROUP        1 Y    SEP  0     **** SEP Y 9
     6 GLP5        3 GROUP        1 Y    GLP  0     **** GLP Y 13
     7 ALL1       25 GROUP        1 Z    ALL  0     ROOT ALL Z 15
     8 SEL2        5 GROUP        1 Z    SEL  0     **** SEL Z 16
     9 GLL5        2 GROUP        1 Z    GLL  0     **** GLL Z 20
@<TRIPOS>SET

