#    Name: 4n82_FMN_1_INTS_M
#    Modification time : Tue Mar 25 12:46:18 2014

@<TRIPOS>MOLECULE
4n82_FMN_1_INTS_M
   82     0     9     0     0
SMALL
NO_CHARGES


@<TRIPOS>ATOM
      1 N         -22.3160   32.8300   15.0725 N.am      2 SEC2        0.0000 
      2 N         -20.8890   32.6010   15.7990 N.am      8 SEL2        0.0000 
      3 N         -23.7430   33.0590   14.3460 N.am      5 SEP2        0.0000 
      4 N         -20.2910   34.6935   12.9190 N.am      2 SEC2        0.0000 
      5 N         -20.9770   34.1700   14.1830 N.am      8 SEL2        0.0000 
      6 N         -19.6050   35.2170   11.6550 N.am      5 SEP2        0.0000 
      7 N         -22.3600   33.6145   14.2645 N.am      2 SEC2        0.0000 
      8 O         -18.6510   35.3950   14.8625 O.2       1 ALC1        0.0000 
      9 O         -19.2380   34.3410   15.6440 O.2       7 ALL1        0.0000 
     10 O         -18.0640   36.4490   14.0810 O.2       4 ALP1        0.0000 
     11 CA        -19.3745   29.1485   23.6030 C.3       3 GLC5        0.0000 
     12 CA        -18.0380   28.8430   22.0930 C.3       9 GLL5        0.0000 
     13 CA        -20.7110   29.4540   25.1130 C.3       6 GLP5        0.0000 
     14 CA        -17.1090   27.5035   23.1315 C.3       3 GLC5        0.0000 
     15 CA        -16.1800   26.1640   24.1700 C.3       6 GLP5        0.0000 
     16 CA        -17.8590   27.9765   20.1940 C.3       3 GLC5        0.0000 
     17 CA        -17.6800   27.1100   18.2950 C.3       6 GLP5        0.0000 
     18 CA        -20.6275   28.4980   23.0845 C.3       3 GLC5        0.0000 
     19 CA        -20.5440   27.5420   21.0560 C.3       9 GLL5        0.0000 
     20 CA        -20.4935   26.1470   22.2945 C.3       3 GLC5        0.0000 
     21 CA        -20.4430   24.7520   23.5330 C.3       6 GLP5        0.0000 
     22 CA        -19.6955   26.9490   19.6485 C.3       3 GLC5        0.0000 
     23 CA        -18.8470   26.3560   18.2410 C.3       6 GLP5        0.0000 
     24 CA        -20.4485   25.6070   20.6720 C.3       3 GLC5        0.0000 
     25 CA        -20.3530   23.6720   20.2880 C.3       6 GLP5        0.0000 
     26 CA        -23.3495   31.6290   16.7840 C.3       3 GLC5        0.0000 
     27 CA        -21.9900   30.3400   16.9760 C.3       9 GLL5        0.0000 
     28 CA        -24.7090   32.9180   16.5920 C.3       6 GLP5        0.0000 
     29 CA        -22.0995   31.8900   18.1805 C.3       3 GLC5        0.0000 
     30 CA        -22.2090   33.4400   19.3850 C.3       6 GLP5        0.0000 
     31 CA        -20.4380   27.4000   16.5780 C.3       3 GLC5        0.0000 
     32 CA        -21.7130   29.1460   16.0580 C.3       9 GLL5        0.0000 
     33 CA        -19.1630   25.6540   17.0980 C.3       6 GLP5        0.0000 
     34 N         -19.5915   29.3435   14.0080 N.am      2 SEC2        0.0000 
     35 N         -20.7880   29.4750   15.0380 N.am      8 SEL2        0.0000 
     36 N         -18.3950   29.2120   12.9780 N.am      5 SEP2        0.0000 
     37 O         -19.5515   29.6745   15.4530 O.2       1 ALC1        0.0000 
     38 O         -20.7880   29.4750   15.0380 O.2       7 ALL1        0.0000 
     39 O         -18.3150   29.8740   15.8680 O.2       4 ALP1        0.0000 
     40 CA        -22.6195   27.8380   12.1090 C.3       3 GLC5        0.0000 
     41 CA        -22.8170   27.6410   14.2960 C.3       9 GLL5        0.0000 
     42 CA        -22.4220   28.0350    9.9220 C.3       6 GLP5        0.0000 
     43 N         -25.0545   26.5615   14.3680 N.am      2 SEC2        0.0000 
     44 N         -24.0540   27.3940   13.6520 N.am      8 SEL2        0.0000 
     45 N         -26.0550   25.7290   15.0840 N.am      5 SEP2        0.0000 
     46 O         -23.7910   27.6215   12.2300 O.2       1 ALC1        0.0000 
     47 O         -24.0540   27.3940   13.6520 O.2       7 ALL1        0.0000 
     48 O         -23.5280   27.8490   10.8080 O.2       4 ALP1        0.0000 
     49 CA        -20.6960   25.9905   15.9525 C.3       3 GLC5        0.0000 
     50 CA        -22.2290   26.3270   14.8070 C.3       9 GLL5        0.0000 
     51 N         -22.4100   22.2245   15.7405 N.am      2 SEC2        0.0000 
     52 N         -23.1820   23.2990   14.8870 N.am      8 SEL2        0.0000 
     53 N         -21.6380   21.1500   16.5940 N.am      5 SEP2        0.0000 
     54 N         -23.4500   23.2875   16.0840 N.am      2 SEC2        0.0000 
     55 N         -23.7180   23.2760   17.2810 N.am      5 SEP2        0.0000 
     56 N         -24.1925   22.6580   14.1210 N.am      2 SEC2        0.0000 
     57 N         -25.2030   22.0170   13.3550 N.am      5 SEP2        0.0000 
     58 N         -20.1335   22.3000   14.7800 N.am      2 SEC2        0.0000 
     59 N         -20.7190   23.5980   14.8200 N.am      8 SEL2        0.0000 
     60 N         -19.5480   21.0020   14.7400 N.am      5 SEP2        0.0000 
     61 N         -21.1785   22.3740   15.7070 N.am      2 SEC2        0.0000 
     62 N         -20.5250   24.2560   15.9455 N.am      2 SEC2        0.0000 
     63 N         -20.3310   24.9140   17.0710 N.am      5 SEP2        0.0000 
     64 N         -22.0735   21.8045   12.5545 N.am      2 SEC2        0.0000 
     65 N         -21.9670   23.0840   12.7640 N.am      8 SEL2        0.0000 
     66 N         -22.1800   20.5250   12.3450 N.am      5 SEP2        0.0000 
     67 N         -23.0275   23.0495   11.8170 N.am      2 SEC2        0.0000 
     68 N         -24.0880   23.0150   10.8700 N.am      5 SEP2        0.0000 
     69 N         -21.8620   23.7725   11.5255 N.am      2 SEC2        0.0000 
     70 N         -21.7570   24.4610   10.2870 N.am      5 SEP2        0.0000 
     71 CA        -17.1762   30.1245   18.3075 C.3       3 GLC5        0.0000 
     72 CA        -18.9220   31.0380   19.1270 C.3       9 GLL5        0.0000 
     73 CA        -15.7580   29.4750   16.9290 C.3       6 GLP5        0.0000 
     74 CA        -22.2766   28.9371   20.7060 C.3       3 GLC5        0.0000 
     75 CA        -19.9410   28.7670   20.4140 C.3       9 GLL5        0.0000 
     76 CA        -24.1410   29.1480   21.3960 C.3       6 GLP5        0.0000 
     77 CA        -24.0915   25.7090   13.8153 C.3       3 GLC5        0.0000 
     78 CA        -25.6600   24.4340   13.0790 C.3       6 GLP5        0.0000 
     79 CA        -21.0020   26.6405   13.4183 C.3       3 GLC5        0.0000 
     80 CA        -19.4810   26.2970   12.2850 C.3       6 GLP5        0.0000 
     81 CA        -22.6009   30.0078   13.8534 C.3       3 GLC5        0.0000 
     82 CA        -22.6100   31.7460   12.6880 C.3       6 GLP5        0.0000 
@<TRIPOS>BOND
@<TRIPOS>SUBSTRUCTURE
     1 ALC1        8 GROUP        1 X    ALC  0     ROOT ALC X 1
     2 SEC2        1 GROUP        1 X    SEC  0     **** SEC X 2
     3 GLC5       11 GROUP        1 X    GLC  0     **** GLC X 6
     4 ALP1       10 GROUP        1 Y    ALP  0     ROOT ALP Y 8
     5 SEP2        3 GROUP        1 Y    SEP  0     **** SEP Y 9
     6 GLP5       13 GROUP        1 Y    GLP  0     **** GLP Y 13
     7 ALL1        9 GROUP        1 Z    ALL  0     ROOT ALL Z 15
     8 SEL2        2 GROUP        1 Z    SEL  0     **** SEL Z 16
     9 GLL5       12 GROUP        1 Z    GLL  0     **** GLL Z 20
@<TRIPOS>SET

