#    Name: 4n82_FMN_1_ligand
#    Modification time : Tue Mar 25 12:46:18 2014

@<TRIPOS>MOLECULE
4n82_FMN_1_ligand
   50    52     1     0     0
SMALL
NO_CHARGES


@<TRIPOS>ATOM
      1 N1        -20.8890   32.6010   15.7990 N.2       1 FMN201      0.0000 
      2 C2        -20.3890   33.7230   15.1660 C.2       1 FMN201      0.0000 
      3 O2        -20.9770   34.1700   14.1830 O.2       1 FMN201      0.0000 
      4 N3        -19.2380   34.3410   15.6440 N.am      1 FMN201      0.0000 
      5 C4        -18.5750   33.8290   16.7520 C.2       1 FMN201      0.0000 
      6 O4        -17.5510   34.3870   17.1720 O.2       1 FMN201      0.0000 
      7 C4A       -19.0690   32.6910   17.3880 C.2       1 FMN201      0.0000 
      8 N5        -18.4230   32.1680   18.5000 N.2       1 FMN201      0.0000 
      9 C5A       -18.9220   31.0380   19.1270 C.ar      1 FMN201      0.0000 
     10 C6        -18.2670   30.5100   20.2450 C.ar      1 FMN201      0.0000 
     11 C7        -18.7740   29.3750   20.8920 C.ar      1 FMN201      0.0000 
     12 C7M       -18.0380   28.8430   22.0930 C.3       1 FMN201      0.0000 
     13 C8        -19.9410   28.7670   20.4140 C.ar      1 FMN201      0.0000 
     14 C8M       -20.5440   27.5420   21.0560 C.3       1 FMN201      0.0000 
     15 C9        -20.5820   29.2980   19.2970 C.ar      1 FMN201      0.0000 
     16 C9A       -20.0860   30.4310   18.6470 C.ar      1 FMN201      0.0000 
     17 N10       -20.7340   30.9560   17.5300 N.pl3     1 FMN201      0.0000 
     18 C10       -20.2310   32.0820   16.9060 C.2       1 FMN201      0.0000 
     19 C1'       -21.9900   30.3400   16.9760 C.3       1 FMN201      0.0000 
     20 C2'       -21.7130   29.1460   16.0580 C.3       1 FMN201      0.0000 
     21 O2'       -20.7880   29.4750   15.0380 O.3       1 FMN201      0.0000 
     22 C3'       -23.0200   28.6500   15.4250 C.3       1 FMN201      0.0000 
     23 O3'       -23.8330   28.0780   16.4250 O.3       1 FMN201      0.0000 
     24 C4'       -22.8170   27.6410   14.2960 C.3       1 FMN201      0.0000 
     25 O4'       -24.0540   27.3940   13.6520 O.3       1 FMN201      0.0000 
     26 C5'       -22.2290   26.3270   14.8070 C.3       1 FMN201      0.0000 
     27 O5'       -22.2430   25.3770   13.7700 O.3       1 FMN201      0.0000 
     28 P         -22.0090   23.8160   14.0740 P.3       1 FMN201      0.0000 
     29 O1P       -23.1820   23.2990   14.8870 O.co2     1 FMN201      0.0000 
     30 O2P       -20.7190   23.5980   14.8200 O.co2     1 FMN201      0.0000 
     31 O3P       -21.9670   23.0840   12.7640 O.co2     1 FMN201      0.0000 
     32 H         -18.8759   35.1834   15.1728 H         1 FMN201      0.0000 
     33 H         -17.4098   30.9560   20.5942 H         1 FMN201      0.0000 
     34 H         -21.4426   28.8458   18.9402 H         1 FMN201      0.0000 
     35 H         -22.5530   31.0953   16.4084 H         1 FMN201      0.0000 
     36 H         -22.6332   30.0047   17.8027 H         1 FMN201      0.0000 
     37 H         -21.3343   28.3329   16.6819 H         1 FMN201      0.0000 
     38 H         -23.5245   29.5281   14.9939 H         1 FMN201      0.0000 
     39 H         -22.1007   28.0723   13.5940 H         1 FMN201      0.0000 
     40 H         -22.8289   26.0116   15.6698 H         1 FMN201      0.0000 
     41 H         -21.2138   26.5382   15.1656 H         1 FMN201      0.0000 
     42 H         -17.0986   28.5841   21.8682 H         1 FMN201      0.0000 
     43 H         -17.9877   29.5197   22.8276 H         1 FMN201      0.0000 
     44 H         -18.4830   28.0316   22.4719 H         1 FMN201      0.0000 
     45 H         -19.9088   26.7697   21.0518 H         1 FMN201      0.0000 
     46 H         -20.7967   27.7085   22.0091 H         1 FMN201      0.0000 
     47 H         -21.3718   27.2432   20.5812 H         1 FMN201      0.0000 
     48 H         -19.9144   29.5944   15.5097 H         1 FMN201      0.0000 
     49 H         -24.3314   28.8474   16.8246 H         1 FMN201      0.0000 
     50 H         -23.8841   27.5820   12.6846 H         1 FMN201      0.0000 
@<TRIPOS>BOND
     1    2    1 1    
     2   18    1 2    
     3    3    2 2    
     4    4    2 am   
     5    5    4 am   
     6   32    4 1    
     7    6    5 2    
     8    7    5 1    
     9    8    7 2    
    10   18    7 1    
    11    9    8 1    
    12   10    9 ar   
    13   16    9 ar   
    14   11   10 ar   
    15   33   10 1    
    16   12   11 1    
    17   13   11 ar   
    18   42   12 1    
    19   43   12 1    
    20   44   12 1    
    21   14   13 1    
    22   15   13 ar   
    23   45   14 1    
    24   46   14 1    
    25   47   14 1    
    26   16   15 ar   
    27   34   15 1    
    28   17   16 1    
    29   18   17 1    
    30   19   17 1    
    31   20   19 1    
    32   35   19 1    
    33   36   19 1    
    34   21   20 1    
    35   22   20 1    
    36   37   20 1    
    37   48   21 1    
    38   23   22 1    
    39   24   22 1    
    40   38   22 1    
    41   49   23 1    
    42   25   24 1    
    43   26   24 1    
    44   39   24 1    
    45   50   25 1    
    46   27   26 1    
    47   40   26 1    
    48   41   26 1    
    49   28   27 1    
    50   29   28 ar   
    51   30   28 ar   
    52   31   28 ar   
@<TRIPOS>SUBSTRUCTURE
     1 FMN201      1 GROUP   
@<TRIPOS>SET

