#    Name: 3niz_ADP_1_INTS_M
#    Modification time : Tue Mar 25 01:41:05 2014

@<TRIPOS>MOLECULE
3niz_ADP_1_INTS_M
   59     0    15     0     0
SMALL
NO_CHARGES


@<TRIPOS>ATOM
      1 Zn         -0.8710   13.2005   84.2260 Zn        4 ZIC7        0.0000 
      2 Zn         -1.5120   13.1780   85.2410 Zn       14 ZIL7        0.0000 
      3 Zn         -0.2300   13.2230   83.2110 Zn        9 ZIP7        0.0000 
      4 N          -3.5415   13.0965   88.2210 N.am      2 SEC2        0.0000 
      5 N          -1.9710   13.3830   87.7380 N.am     12 SEL2        0.0000 
      6 N          -5.1120   12.8100   88.7040 N.am      7 SEP2        0.0000 
      7 NZ          1.1560   12.4390   87.6955 N.4       3 LYC4        0.0000 
      8 NZ         -0.3980   11.7250   87.1340 N.4      13 LYL4        0.0000 
      9 NZ          2.7100   13.1530   88.2570 N.4       8 LYP4        0.0000 
     10 Zn         -0.2475   10.7705   87.4385 Zn        4 ZIC7        0.0000 
     11 Zn         -0.3980   11.7250   87.1340 Zn       14 ZIL7        0.0000 
     12 Zn         -0.0970    9.8160   87.7430 Zn        9 ZIP7        0.0000 
     13 Zn          0.3685   13.8770   83.7610 Zn        4 ZIC7        0.0000 
     14 Zn          0.9670   14.5310   84.3110 Zn       14 ZIL7        0.0000 
     15 NZ          2.5500   14.3155   87.1485 N.4       3 LYC4        0.0000 
     16 NZ          2.3900   15.4780   86.0400 N.4      13 LYL4        0.0000 
     17 N           2.5500   14.3155   87.1485 N.am      2 SEC2        0.0000 
     18 N           2.3900   15.4780   86.0400 N.am     12 SEL2        0.0000 
     19 N           2.7100   13.1530   88.2570 N.am      7 SEP2        0.0000 
     20 CA         -1.6505   20.0465   86.0385 C.3       5 GLC5        0.0000 
     21 CA         -0.5990   18.2890   85.2460 C.3      15 GLL5        0.0000 
     22 CA         -2.7020   21.8040   86.8310 C.3      10 GLP5        0.0000 
     23 O           0.2155   17.3735   81.4095 O.2       1 ALC1        0.0000 
     24 O          -0.4050   17.7210   82.7830 O.2      11 ALL1        0.0000 
     25 O           0.8360   17.0260   80.0360 O.2       6 ALP1        0.0000 
     26 O          -0.8725   20.4840   81.7820 O.2       1 ALC1        0.0000 
     27 O          -0.9690   20.5880   83.3260 O.2      11 ALL1        0.0000 
     28 O          -0.7760   20.3800   80.2380 O.2       6 ALP1        0.0000 
     29 CA         -1.0440   21.0840   86.0670 C.3       5 GLC5        0.0000 
     30 CA          0.6140   20.3640   85.3030 C.3      15 GLL5        0.0000 
     31 CA          1.1205   20.7010   87.2200 C.3       5 GLC5        0.0000 
     32 CA          1.6270   21.0380   89.1370 C.3      10 GLP5        0.0000 
     33 CA          6.1010   22.5225   84.3960 C.3       5 GLC5        0.0000 
     34 CA          5.4030   21.5450   86.1230 C.3      15 GLL5        0.0000 
     35 CA          6.7990   23.5000   82.6690 C.3      10 GLP5        0.0000 
     36 O           7.8430   21.8765   86.6635 O.2       1 ALC1        0.0000 
     37 O           6.6930   21.1250   86.3390 O.2      11 ALL1        0.0000 
     38 O           8.9930   22.6280   86.9880 O.2       6 ALP1        0.0000 
     39 N           6.1440   23.9240   85.3400 N.am      2 SEC2        0.0000 
     40 N           5.1950   22.9250   85.9640 N.am     12 SEL2        0.0000 
     41 N           7.0930   24.9230   84.7160 N.am      7 SEP2        0.0000 
     42 CA          2.2360   24.6360   85.8730 C.3       5 GLC5        0.0000 
     43 CA          3.9050   23.3380   85.7670 C.3      15 GLL5        0.0000 
     44 CA          0.5670   25.9340   85.9790 C.3      10 GLP5        0.0000 
     45 CA          4.7905   22.9595   87.6215 C.3       5 GLC5        0.0000 
     46 CA          5.6760   22.5810   89.4760 C.3      10 GLP5        0.0000 
     47 CA          5.3715   24.1385   84.5150 C.3       5 GLC5        0.0000 
     48 CA          6.8380   24.9390   83.2630 C.3      10 GLP5        0.0000 
     49 CA          0.0913   18.3278   87.4303 C.3       5 GLC5        0.0000 
     50 CA          0.3970   18.8520   89.1800 C.3      10 GLP5        0.0000 
     51 CA          2.0595   19.3120   82.8007 C.3       5 GLC5        0.0000 
     52 CA          0.1430   18.4480   83.9170 C.3      15 GLL5        0.0000 
     53 CA          3.8900   19.4050   81.7370 C.3      10 GLP5        0.0000 
     54 CA          2.6258   21.0055   87.4990 C.3       5 GLC5        0.0000 
     55 CA          2.9900   21.2770   85.7310 C.3      15 GLL5        0.0000 
     56 CA          5.2535   21.8440   87.7665 C.3       5 GLC5        0.0000 
     57 CA          4.2590   20.6690   85.9910 C.3      15 GLL5        0.0000 
     58 CA          4.9292   20.4025   84.5145 C.3       5 GLC5        0.0000 
     59 CA          5.9480   19.6130   83.1350 C.3      10 GLP5        0.0000 
@<TRIPOS>BOND
@<TRIPOS>SUBSTRUCTURE
     1 ALC1       23 GROUP        1 X    ALC  0     ROOT ALC X 1
     2 SEC2        4 GROUP        1 X    SEC  0     **** SEC X 2
     3 LYC4        7 GROUP        1 X    LYC  0     **** LYC X 4
     4 ZIC7        1 GROUP        1 X    ZIC  0     **** ZIC X 5
     5 GLC5       20 GROUP        1 X    GLC  0     **** GLC X 6
     6 ALP1       25 GROUP        1 Y    ALP  0     ROOT ALP Y 8
     7 SEP2        6 GROUP        1 Y    SEP  0     **** SEP Y 9
     8 LYP4        9 GROUP        1 Y    LYP  0     **** LYP Y 11
     9 ZIP7        3 GROUP        1 Y    ZIP  0     **** ZIP Y 12
    10 GLP5       22 GROUP        1 Y    GLP  0     **** GLP Y 13
    11 ALL1       24 GROUP        1 Z    ALL  0     ROOT ALL Z 15
    12 SEL2        5 GROUP        1 Z    SEL  0     **** SEL Z 16
    13 LYL4        8 GROUP        1 Z    LYL  0     **** LYL Z 18
    14 ZIL7        2 GROUP        1 Z    ZIL  0     **** ZIL Z 19
    15 GLL5       21 GROUP        1 Z    GLL  0     **** GLL Z 20
@<TRIPOS>SET

