#    Name: 3niz_ADP_1_ligand
#    Modification time : Tue Mar 25 01:41:05 2014

@<TRIPOS>MOLECULE
3niz_ADP_1_ligand
   39    41     1     0     0
SMALL
NO_CHARGES


@<TRIPOS>ATOM
      1 PB         -0.9190   13.1090   86.7060 P.3       1 ADP314      0.0000 
      2 O1B        -1.5120   13.1780   85.2410 O.co2     1 ADP314      0.0000 
      3 O2B        -1.9710   13.3830   87.7380 O.co2     1 ADP314      0.0000 
      4 O3B        -0.3980   11.7250   87.1340 O.co2     1 ADP314      0.0000 
      5 PA          0.9180   15.0280   85.8200 P.3       1 ADP314      0.0000 
      6 O1A         0.9670   14.5310   84.3110 O.co2     1 ADP314      0.0000 
      7 O2A         2.3900   15.4780   86.0400 O.co2     1 ADP314      0.0000 
      8 O3A         0.3710   13.9920   86.8030 O.3       1 ADP314      0.0000 
      9 O5'        -0.2830   16.0250   85.9800 O.3       1 ADP314      0.0000 
     10 C5'         0.1700   17.3180   86.1150 C.3       1 ADP314      0.0000 
     11 C4'        -0.5990   18.2890   85.2460 C.3       1 ADP314      0.0000 
     12 O4'        -0.3660   19.5190   85.9900 O.3       1 ADP314      0.0000 
     13 C3'         0.1430   18.4480   83.9170 C.3       1 ADP314      0.0000 
     14 O3'        -0.4050   17.7210   82.7830 O.3       1 ADP314      0.0000 
     15 C2'         0.3150   19.9900   83.8120 C.3       1 ADP314      0.0000 
     16 O2'        -0.9690   20.5880   83.3260 O.3       1 ADP314      0.0000 
     17 C1'         0.6140   20.3640   85.3030 C.3       1 ADP314      0.0000 
     18 N9          2.0570   20.2280   85.6360 N.pl3     1 ADP314      0.0000 
     19 C8          2.8030   19.0720   85.8410 C.2       1 ADP314      0.0000 
     20 N7          4.0980   19.3130   86.0490 N.2       1 ADP314      0.0000 
     21 C5          4.2590   20.6690   85.9910 C.ar      1 ADP314      0.0000 
     22 C6          5.4030   21.5450   86.1230 C.ar      1 ADP314      0.0000 
     23 N6          6.6930   21.1250   86.3390 N.pl3     1 ADP314      0.0000 
     24 N1          5.1950   22.9250   85.9640 N.ar      1 ADP314      0.0000 
     25 C2          3.9050   23.3380   85.7670 C.ar      1 ADP314      0.0000 
     26 N3          2.7720   22.6000   85.6180 N.ar      1 ADP314      0.0000 
     27 C4          2.9900   21.2770   85.7310 C.ar      1 ADP314      0.0000 
     28 H           1.2467   17.4220   85.8452 H         1 ADP314      0.0000 
     29 H           0.0932   17.6884   87.1637 H         1 ADP314      0.0000 
     30 H          -1.5571   18.0457   85.1508 H         1 ADP314      0.0000 
     31 H           1.1911   18.0784   84.1510 H         1 ADP314      0.0000 
     32 H           1.1343   20.1997   83.2298 H         1 ADP314      0.0000 
     33 H           0.2859   21.4099   85.3817 H         1 ADP314      0.0000 
     34 H           2.3853   18.1722   85.8280 H         1 ADP314      0.0000 
     35 H           7.3869   21.8433   86.3898 H         1 ADP314      0.0000 
     36 H           6.8255   20.1377   86.4265 H         1 ADP314      0.0000 
     37 H           3.7666   24.4327   85.7229 H         1 ADP314      0.0000 
     38 H           0.3315   17.7032   82.1068 H         1 ADP314      0.0000 
     39 H          -0.9346   20.5006   82.3304 H         1 ADP314      0.0000 
@<TRIPOS>BOND
     1    2    1 ar   
     2    3    1 ar   
     3    4    1 ar   
     4    8    1 1    
     5    6    5 ar   
     6    7    5 ar   
     7    8    5 1    
     8    9    5 1    
     9   10    9 1    
    10   11   10 1    
    11   28   10 1    
    12   29   10 1    
    13   12   11 1    
    14   13   11 1    
    15   30   11 1    
    16   17   12 1    
    17   14   13 1    
    18   15   13 1    
    19   31   13 1    
    20   38   14 1    
    21   16   15 1    
    22   17   15 1    
    23   32   15 1    
    24   39   16 1    
    25   18   17 1    
    26   33   17 1    
    27   19   18 1    
    28   27   18 1    
    29   20   19 2    
    30   34   19 1    
    31   21   20 1    
    32   22   21 ar   
    33   27   21 ar   
    34   23   22 1    
    35   24   22 ar   
    36   35   23 1    
    37   36   23 1    
    38   25   24 ar   
    39   26   25 ar   
    40   37   25 1    
    41   27   26 ar   
@<TRIPOS>SUBSTRUCTURE
     1 ADP314      1 GROUP   
@<TRIPOS>SET

