#    Name: 1ke8_LS4_1_INTS_M
#    Modification time : Tue Mar 25 09:51:41 2014

@<TRIPOS>MOLECULE
1ke8_LS4_1_INTS_M
   65     0     9     0     0
SMALL
NO_CHARGES


@<TRIPOS>ATOM
      1 N         -11.3795   53.0085   10.7350 N.am      2 SEC2        0.0000 
      2 N         -10.8190   52.1550   11.8230 N.am      8 SEL2        0.0000 
      3 N         -11.9400   53.8620    9.6470 N.am      5 SEP2        0.0000 
      4 O         -10.3490   54.0505   13.5425 O.2       1 ALC1        0.0000 
      5 O          -9.5010   52.7810   13.6290 O.2       7 ALL1        0.0000 
      6 O         -11.1970   55.3200   13.4560 O.2       4 ALP1        0.0000 
      7 CA         -8.0060   48.7070   16.8875 C.3       3 GLC5        0.0000 
      8 CA         -6.9040   50.2770   16.0150 C.3       9 GLL5        0.0000 
      9 CA         -9.1080   47.1370   17.7600 C.3       6 GLP5        0.0000 
     10 CA        -10.4390   47.7500   12.2085 C.3       3 GLC5        0.0000 
     11 CA         -9.5920   49.4490   12.1800 C.3       9 GLL5        0.0000 
     12 CA        -11.2860   46.0510   12.2370 C.3       6 GLP5        0.0000 
     13 O         -11.0420   50.4595    9.7150 O.2       1 ALC1        0.0000 
     14 O         -10.3110   49.4570   10.8820 O.2       7 ALL1        0.0000 
     15 O         -11.7730   51.4620    8.5480 O.2       4 ALP1        0.0000 
     16 N         -12.0700   44.5830    4.3515 N.am      2 SEC2        0.0000 
     17 N         -11.6480   45.3940    5.7120 N.am      8 SEL2        0.0000 
     18 N         -12.4920   43.7720    2.9910 N.am      5 SEP2        0.0000 
     19 CA        -12.4260   43.3105   11.4065 C.3       3 GLC5        0.0000 
     20 CA        -12.3050   42.4420    9.4760 C.3       9 GLL5        0.0000 
     21 CA        -12.5470   44.1790   13.3370 C.3       6 GLP5        0.0000 
     22 CA        -16.0200   42.6785   10.5450 C.3       3 GLC5        0.0000 
     23 CA        -13.9770   42.6840    9.6300 C.3       9 GLL5        0.0000 
     24 CA        -18.0630   42.6730   11.4600 C.3       6 GLP5        0.0000 
     25 CA         -7.9720   54.2998   14.3475 C.3       3 GLC5        0.0000 
     26 CA         -8.6060   52.1330   14.4470 C.3       9 GLL5        0.0000 
     27 CA         -7.7350   56.2030   13.6840 C.3       6 GLP5        0.0000 
     28 CA         -9.0715   53.7682   15.9910 C.3       3 GLC5        0.0000 
     29 CA         -7.8120   52.6600   15.5750 C.3       9 GLL5        0.0000 
     30 CA         -9.9340   55.1400   16.9710 C.3       6 GLP5        0.0000 
     31 CA         -7.9735   51.8870   12.5245 C.3       3 GLC5        0.0000 
     32 CA         -7.3820   52.3470   10.7860 C.3       6 GLP5        0.0000 
     33 CA         -6.3260   52.5062   14.1830 C.3       3 GLC5        0.0000 
     34 CA         -4.4430   52.6160   13.3550 C.3       6 GLP5        0.0000 
     35 CA         -6.8535   50.3550   18.1163 C.3       3 GLC5        0.0000 
     36 CA         -6.9680   51.7230   16.3700 C.3       9 GLL5        0.0000 
     37 CA         -6.7710   49.7100   20.0400 C.3       6 GLP5        0.0000 
     38 CA         -5.6895   51.8080   14.7737 C.3       3 GLC5        0.0000 
     39 CA         -9.5435   49.0905   15.3965 C.3       3 GLC5        0.0000 
     40 CA         -7.6760   49.7610   14.8490 C.3       9 GLL5        0.0000 
     41 CA        -10.9870   47.9400   16.3290 C.3       6 GLP5        0.0000 
     42 CA        -10.6285   51.5485   14.5152 C.3       3 GLC5        0.0000 
     43 CA         -8.5240   50.7210   14.0790 C.3       9 GLL5        0.0000 
     44 CA        -12.2840   52.1120   15.4330 C.3       6 GLP5        0.0000 
     45 CA         -8.4342   51.1715   11.6710 C.3       3 GLC5        0.0000 
     46 CA         -9.3810   50.5430   12.9320 C.3       9 GLL5        0.0000 
     47 CA        -10.5137   47.0108   11.0508 C.3       3 GLC5        0.0000 
     48 CA        -10.2960   48.4740    9.9550 C.3       9 GLL5        0.0000 
     49 CA         -8.2828   49.1792    9.5977 C.3       3 GLC5        0.0000 
     50 CA         -6.8240   50.3880    9.3310 C.3       6 GLP5        0.0000 
     51 CA         -7.5412   47.2005    8.3630 C.3       3 GLC5        0.0000 
     52 CA         -9.1870   47.4670    9.7740 C.3       9 GLL5        0.0000 
     53 CA         -5.8410   47.4470    7.4620 C.3       6 GLP5        0.0000 
     54 CA        -10.5860   46.2420   10.2713 C.3       3 GLC5        0.0000 
     55 CA         -9.2960   46.4410    8.7540 C.3       9 GLL5        0.0000 
     56 CA        -11.4090   46.9813   10.3953 C.3       3 GLC5        0.0000 
     57 CA        -11.5790   47.3970    8.0280 C.3       9 GLL5        0.0000 
     58 CA        -12.1930   49.4502    7.2873 C.3       3 GLC5        0.0000 
     59 CA        -11.4850   48.4260    9.0790 C.3       9 GLL5        0.0000 
     60 CA        -12.8540   50.9890    6.0210 C.3       6 GLP5        0.0000 
     61 CA        -10.4701   48.3828    6.8084 C.3       3 GLC5        0.0000 
     62 CA         -9.6840   49.0970    5.1060 C.3       6 GLP5        0.0000 
     63 CA        -14.2660   44.5900   10.4818 C.3       3 GLC5        0.0000 
     64 CA        -14.4510   43.4440    8.5470 C.3       9 GLL5        0.0000 
     65 CA        -14.3180   46.1160   11.8750 C.3       6 GLP5        0.0000 
@<TRIPOS>BOND
@<TRIPOS>SUBSTRUCTURE
     1 ALC1        4 GROUP        1 X    ALC  0     ROOT ALC X 1
     2 SEC2        1 GROUP        1 X    SEC  0     **** SEC X 2
     3 GLC5        7 GROUP        1 X    GLC  0     **** GLC X 6
     4 ALP1        6 GROUP        1 Y    ALP  0     ROOT ALP Y 8
     5 SEP2        3 GROUP        1 Y    SEP  0     **** SEP Y 9
     6 GLP5        9 GROUP        1 Y    GLP  0     **** GLP Y 13
     7 ALL1        5 GROUP        1 Z    ALL  0     ROOT ALL Z 15
     8 SEL2        2 GROUP        1 Z    SEL  0     **** SEL Z 16
     9 GLL5        8 GROUP        1 Z    GLL  0     **** GLL Z 20
@<TRIPOS>SET

