#    Name: 1ke8_LS4_1_ligand
#    Modification time : Tue Mar 25 09:51:41 2014

@<TRIPOS>MOLECULE
1ke8_LS4_1_ligand
   41    44     1     0     0
SMALL
NO_CHARGES


@<TRIPOS>ATOM
      1 O5        -10.8190   52.1550   11.8230 O.2       1 LS4299      0.0000 
      2 C6        -10.0070   51.9120   12.7190 C.2       1 LS4299      0.0000 
      3 N7         -9.5010   52.7810   13.6290 N.am      1 LS4299      0.0000 
      4 C8         -8.6060   52.1330   14.4470 C.ar      1 LS4299      0.0000 
      5 C9         -7.8120   52.6600   15.5750 C.ar      1 LS4299      0.0000 
      6 C10        -6.9680   51.7230   16.3700 C.ar      1 LS4299      0.0000 
      7 C11        -6.9040   50.2770   16.0150 C.ar      1 LS4299      0.0000 
      8 C12        -7.6760   49.7610   14.8490 C.ar      1 LS4299      0.0000 
      9 C13        -8.5240   50.7210   14.0790 C.ar      1 LS4299      0.0000 
     10 C14        -9.3810   50.5430   12.9320 C.2       1 LS4299      0.0000 
     11 C15        -9.5920   49.4490   12.1800 C.2       1 LS4299      0.0000 
     12 N16       -10.3110   49.4570   10.8820 N.pl3     1 LS4299      0.0000 
     13 C17       -10.2960   48.4740    9.9550 C.ar      1 LS4299      0.0000 
     14 C18        -9.1870   47.4670    9.7740 C.ar      1 LS4299      0.0000 
     15 C19        -9.2960   46.4410    8.7540 C.ar      1 LS4299      0.0000 
     16 C20       -10.4760   46.4250    7.8570 C.ar      1 LS4299      0.0000 
     17 C21       -11.5790   47.3970    8.0280 C.ar      1 LS4299      0.0000 
     18 C22       -11.4850   48.4260    9.0790 C.ar      1 LS4299      0.0000 
     19 S23       -10.5600   45.1590    6.6180 S.o2      1 LS4299      0.0000 
     20 O24       -11.6480   45.3940    5.7120 O.2       1 LS4299      0.0000 
     21 O25        -9.2440   45.0910    6.0680 O.2       1 LS4299      0.0000 
     22 N26       -10.8840   43.7170    7.4040 N.pl3     1 LS4299      0.0000 
     23 C27       -12.1880   43.4200    8.0910 C.2       1 LS4299      0.0000 
     24 S28       -12.3050   42.4420    9.4760 S.3       1 LS4299      0.0000 
     25 C29       -13.9770   42.6840    9.6300 C.2       1 LS4299      0.0000 
     26 C30       -14.4510   43.4440    8.5470 C.2       1 LS4299      0.0000 
     27 N31       -13.4300   43.8560    7.7220 N.2       1 LS4299      0.0000 
     28 H          -9.7293   53.7199   13.7005 H         1 LS4299      0.0000 
     29 H          -7.8357   53.6236   15.8057 H         1 LS4299      0.0000 
     30 H          -6.4419   52.0668   17.1459 H         1 LS4299      0.0000 
     31 H          -6.3460   49.6560   16.5562 H         1 LS4299      0.0000 
     32 H          -7.6298   48.8146   14.5918 H         1 LS4299      0.0000 
     33 H          -9.2480   48.5018   12.4816 H         1 LS4299      0.0000 
     34 H         -10.8783   50.3432   10.7120 H         1 LS4299      0.0000 
     35 H          -8.3870   47.5281   10.3699 H         1 LS4299      0.0000 
     36 H          -8.5880   45.7438    8.6457 H         1 LS4299      0.0000 
     37 H         -12.3785   47.3537    7.4352 H         1 LS4299      0.0000 
     38 H         -12.2214   49.0891    9.2000 H         1 LS4299      0.0000 
     39 H         -10.1333   43.0668    7.3778 H         1 LS4299      0.0000 
     40 H         -14.3678   42.3141   10.3609 H         1 LS4299      0.0000 
     41 H         -15.3931   43.6462    8.4107 H         1 LS4299      0.0000 
@<TRIPOS>BOND
     1    2    1 2    
     2    3    2 am   
     3   10    2 1    
     4    4    3 1    
     5   28    3 1    
     6    5    4 ar   
     7    9    4 ar   
     8    6    5 ar   
     9   29    5 1    
    10    7    6 ar   
    11   30    6 1    
    12    8    7 ar   
    13   31    7 1    
    14    9    8 ar   
    15   32    8 1    
    16   10    9 1    
    17   11   10 2    
    18   12   11 1    
    19   33   11 1    
    20   13   12 1    
    21   34   12 1    
    22   14   13 ar   
    23   18   13 ar   
    24   15   14 ar   
    25   35   14 1    
    26   16   15 ar   
    27   36   15 1    
    28   17   16 ar   
    29   19   16 1    
    30   18   17 ar   
    31   37   17 1    
    32   38   18 1    
    33   20   19 2    
    34   21   19 2    
    35   22   19 1    
    36   23   22 1    
    37   39   22 1    
    38   24   23 1    
    39   27   23 2    
    40   25   24 1    
    41   26   25 2    
    42   40   25 1    
    43   27   26 1    
    44   41   26 1    
@<TRIPOS>SUBSTRUCTURE
     1 LS4299      1 GROUP   
@<TRIPOS>SET

