#    Name: 3nga_3NG_1_INTS_M
#    Modification time : Tue Mar 25 01:31:56 2014

@<TRIPOS>MOLECULE
3nga_3NG_1_INTS_M
   75     0     9     0     0
SMALL
NO_CHARGES


@<TRIPOS>ATOM
      1 CA         47.9715   -5.7975   37.1035 C.3       3 GLC5        0.0000 
      2 CA         46.1870   -4.7190   37.6310 C.3       9 GLL5        0.0000 
      3 CA         49.7560   -6.8760   36.5760 C.3       6 GLP5        0.0000 
      4 CA         45.0280   -2.6070   39.7900 C.3       3 GLC5        0.0000 
      5 CA         46.4950   -3.8370   39.8860 C.3       9 GLL5        0.0000 
      6 CA         43.5610   -1.3770   39.6940 C.3       6 GLP5        0.0000 
      7 CA         47.8650   -6.1650   36.0125 C.3       3 GLC5        0.0000 
      8 CA         45.9740   -5.4540   35.4490 C.3       9 GLL5        0.0000 
      9 CA         42.9915   -9.7420   35.1865 C.3       3 GLC5        0.0000 
     10 CA         43.2420   -8.0080   35.3480 C.3       9 GLL5        0.0000 
     11 CA         42.7410  -11.4760   35.0250 C.3       6 GLP5        0.0000 
     12 CA         41.2590   -8.2325   35.6795 C.3       3 GLC5        0.0000 
     13 CA         39.2760   -8.4570   36.0110 C.3       6 GLP5        0.0000 
     14 N          41.6065   -8.6185   36.6580 N.am      1 SEC2        0.0000 
     15 N          42.8430   -8.0850   36.6370 N.am      7 SEL2        0.0000 
     16 N          40.3700   -9.1520   36.6790 N.am      4 SEP2        0.0000 
     17 CA         42.2635   -6.4540   39.2285 C.3       3 GLC5        0.0000 
     18 CA         43.4650   -7.2710   37.5140 C.3       9 GLL5        0.0000 
     19 CA         41.0620   -5.6370   40.9430 C.3       6 GLP5        0.0000 
     20 CA         42.4905   -9.0670   37.7945 C.3       3 GLC5        0.0000 
     21 CA         41.5160  -10.8630   38.0750 C.3       6 GLP5        0.0000 
     22 CA         41.3880   -6.9495   37.6605 C.3       3 GLC5        0.0000 
     23 CA         39.3110   -6.6280   37.8070 C.3       6 GLP5        0.0000 
     24 CA         47.3345   -1.3985   31.8780 C.3       3 GLC5        0.0000 
     25 CA         47.9790   -3.4730   31.4750 C.3       9 GLL5        0.0000 
     26 CA         46.6900    0.6760   32.2810 C.3       6 GLP5        0.0000 
     27 CA         48.1820   -6.0380   32.2150 C.3       3 GLC5        0.0000 
     28 CA         47.0670   -4.2180   32.2160 C.3       9 GLL5        0.0000 
     29 CA         49.2970   -7.8580   32.2140 C.3       6 GLP5        0.0000 
     30 CA         45.3275   -3.1785   33.0790 C.3       3 GLC5        0.0000 
     31 CA         43.5880   -2.1390   33.9420 C.3       6 GLP5        0.0000 
     32 CA         51.7755   -3.9210   32.7350 C.3       3 GLC5        0.0000 
     33 CA         50.9880   -3.0520   34.0070 C.3       9 GLL5        0.0000 
     34 CA         52.5630   -4.7900   31.4630 C.3       6 GLP5        0.0000 
     35 CA         53.1760   -2.9835   33.5705 C.3       3 GLC5        0.0000 
     36 CA         55.3640   -2.9150   33.1340 C.3       6 GLP5        0.0000 
     37 NZ         49.2570   -2.0300   41.3925 N.4       2 LYC4        0.0000 
     38 NZ         48.3020   -2.4380   40.3510 N.4       8 LYL4        0.0000 
     39 NZ         50.2120   -1.6220   42.4340 N.4       5 LYP4        0.0000 
     40 N          49.2570   -2.0300   41.3925 N.am      1 SEC2        0.0000 
     41 N          48.3020   -2.4380   40.3510 N.am      7 SEL2        0.0000 
     42 N          50.2120   -1.6220   42.4340 N.am      4 SEP2        0.0000 
     43 NZ         48.3840   -2.0840   42.1395 N.4       2 LYC4        0.0000 
     44 NZ         46.5560   -2.5460   41.8450 N.4       8 LYL4        0.0000 
     45 N          46.0430   -1.2800   41.6360 N.am      1 SEC2        0.0000 
     46 N          46.5560   -2.5460   41.8450 N.am      7 SEL2        0.0000 
     47 N          45.5300   -0.0140   41.4270 N.am      4 SEP2        0.0000 
     48 CA         45.7020   -2.7750   37.7717 C.3       3 GLC5        0.0000 
     49 CA         44.8780   -1.2460   37.4560 C.3       6 GLP5        0.0000 
     50 CA         46.3060   -6.9322   38.5551 C.3       3 GLC5        0.0000 
     51 CA         44.8110   -5.5150   39.4980 C.3       9 GLL5        0.0000 
     52 CA         47.3720   -8.5390   38.4230 C.3       6 GLP5        0.0000 
     53 CA         43.5400   -5.1655   40.9955 C.3       3 GLC5        0.0000 
     54 CA         41.9420   -5.2460   42.0600 C.3       6 GLP5        0.0000 
     55 CA         45.1170   -6.6175   41.1355 C.3       3 GLC5        0.0000 
     56 CA         45.0960   -8.1500   42.3400 C.3       6 GLP5        0.0000 
     57 CA         43.8485   -3.7532   39.5290 C.3       3 GLC5        0.0000 
     58 CA         45.4650   -4.6550   40.3640 C.3       9 GLL5        0.0000 
     59 CA         42.4740   -2.4120   39.4710 C.3       6 GLP5        0.0000 
     60 CA         44.8068   -8.7465   36.0337 C.3       3 GLC5        0.0000 
     61 CA         44.2670   -7.1940   34.8990 C.3       9 GLL5        0.0000 
     62 CA         45.8590   -9.8920   36.9440 C.3       6 GLP5        0.0000 
     63 CA         44.9744   -8.3558   36.9769 C.3       3 GLC5        0.0000 
     64 CA         44.9200   -6.3450   35.8230 C.3       9 GLL5        0.0000 
     65 CA         46.1375   -7.7299   34.3753 C.3       3 GLC5        0.0000 
     66 CA         47.4180   -8.9130   33.4830 C.3       6 GLP5        0.0000 
     67 CA         43.6985   -4.9944   34.8223 C.3       3 GLC5        0.0000 
     68 CA         42.5400   -3.4420   34.3770 C.3       6 GLP5        0.0000 
     69 CA         48.8620   -5.6650   35.1932 C.3       3 GLC5        0.0000 
     70 CA         47.3540   -4.6250   33.5300 C.3       9 GLL5        0.0000 
     71 CA         49.0117   -5.9235   32.8929 C.3       3 GLC5        0.0000 
     72 CA         50.9532   -4.0600   32.0717 C.3       3 GLC5        0.0000 
     73 CA         49.4850   -3.5240   33.3330 C.3       9 GLL5        0.0000 
     74 CA         50.6453   -4.7055   34.9790 C.3       3 GLC5        0.0000 
     75 CA         51.0540   -6.1230   36.2880 C.3       6 GLP5        0.0000 
@<TRIPOS>BOND
@<TRIPOS>SUBSTRUCTURE
     1 SEC2       14 GROUP        1 X    SEC  0     ROOT SEC X 2
     2 LYC4       37 GROUP        1 X    LYC  0     **** LYC X 4
     3 GLC5        1 GROUP        1 X    GLC  0     **** GLC X 6
     4 SEP2       16 GROUP        1 Y    SEP  0     ROOT SEP Y 9
     5 LYP4       39 GROUP        1 Y    LYP  0     **** LYP Y 11
     6 GLP5        3 GROUP        1 Y    GLP  0     **** GLP Y 13
     7 SEL2       15 GROUP        1 Z    SEL  0     ROOT SEL Z 16
     8 LYL4       38 GROUP        1 Z    LYL  0     **** LYL Z 18
     9 GLL5        2 GROUP        1 Z    GLL  0     **** GLL Z 20
@<TRIPOS>SET

