#    Name: 3nga_3NG_1_ligand
#    Modification time : Tue Mar 25 01:31:56 2014

@<TRIPOS>MOLECULE
3nga_3NG_1_ligand
   36    39     1     0     0
SMALL
NO_CHARGES


@<TRIPOS>ATOM
      1 C1         46.1870   -4.7190   37.6310 C.ar      1 3NG1000     0.0000 
      2 C2         45.1510   -5.5530   38.1220 C.ar      1 3NG1000     0.0000 
      3 C3         44.8110   -5.5150   39.4980 C.ar      1 3NG1000     0.0000 
      4 C4         45.4650   -4.6550   40.3640 C.ar      1 3NG1000     0.0000 
      5 C5         46.4950   -3.8370   39.8860 C.ar      1 3NG1000     0.0000 
      6 C6         46.8650   -3.8890   38.5440 C.ar      1 3NG1000     0.0000 
      7 C7         44.9200   -6.3450   35.8230 C.ar      1 3NG1000     0.0000 
      8 C8         44.5090   -6.3910   37.1880 C.ar      1 3NG1000     0.0000 
      9 N9         46.5700   -4.6750   36.3350 N.ar      1 3NG1000     0.0000 
     10 C10        45.9740   -5.4540   35.4490 C.ar      1 3NG1000     0.0000 
     11 C11        43.2420   -8.0080   35.3480 C.ar      1 3NG1000     0.0000 
     12 N12        42.8430   -8.0850   36.6370 N.ar      1 3NG1000     0.0000 
     13 C13        43.4650   -7.2710   37.5140 C.ar      1 3NG1000     0.0000 
     14 C14        44.2670   -7.1940   34.8990 C.ar      1 3NG1000     0.0000 
     15 N15        46.3750   -5.3960   34.1650 N.pl3     1 3NG1000     0.0000 
     16 C16        47.3540   -4.6250   33.5300 C.ar      1 3NG1000     0.0000 
     17 C17        48.5820   -4.2830   34.0910 C.ar      1 3NG1000     0.0000 
     18 C18        49.4850   -3.5240   33.3330 C.ar      1 3NG1000     0.0000 
     19 C19        49.2020   -3.1360   32.0280 C.ar      1 3NG1000     0.0000 
     20 C20        47.9790   -3.4730   31.4750 C.ar      1 3NG1000     0.0000 
     21 C21        47.0670   -4.2180   32.2160 C.ar      1 3NG1000     0.0000 
     22 CL22       50.9880   -3.0520   34.0070 Cl        1 3NG1000     0.0000 
     23 C23        47.1780   -2.8820   40.7760 C.2       1 3NG1000     0.0000 
     24 O24        48.3020   -2.4380   40.3510 O.co2     1 3NG1000     0.0000 
     25 O25        46.5560   -2.5460   41.8450 O.co2     1 3NG1000     0.0000 
     26 H          44.0681   -6.1391   39.8426 H         1 3NG1000     0.0000 
     27 H          45.2001   -4.6126   41.3547 H         1 3NG1000     0.0000 
     28 H          47.6516   -3.3095   38.2058 H         1 3NG1000     0.0000 
     29 H          42.7440   -8.6068   34.6215 H         1 3NG1000     0.0000 
     30 H          43.1572   -7.2802   38.5354 H         1 3NG1000     0.0000 
     31 H          44.5566   -7.1958   33.9234 H         1 3NG1000     0.0000 
     32 H          45.8382   -6.0826   33.4653 H         1 3NG1000     0.0000 
     33 H          48.8240   -4.5770   35.0352 H         1 3NG1000     0.0000 
     34 H          49.8912   -2.6082   31.4861 H         1 3NG1000     0.0000 
     35 H          47.7419   -3.1755   30.5202 H         1 3NG1000     0.0000 
     36 H          46.1581   -4.4805   31.7967 H         1 3NG1000     0.0000 
@<TRIPOS>BOND
     1    2    1 ar   
     2    6    1 ar   
     3    9    1 ar   
     4    3    2 ar   
     5    8    2 ar   
     6    4    3 ar   
     7   26    3 1    
     8    5    4 ar   
     9   27    4 1    
    10    6    5 ar   
    11   23    5 1    
    12   28    6 1    
    13    8    7 ar   
    14   10    7 ar   
    15   14    7 ar   
    16   13    8 ar   
    17   10    9 ar   
    18   15   10 1    
    19   12   11 ar   
    20   14   11 ar   
    21   29   11 1    
    22   13   12 ar   
    23   30   13 1    
    24   31   14 1    
    25   16   15 1    
    26   32   15 1    
    27   17   16 ar   
    28   21   16 ar   
    29   18   17 ar   
    30   33   17 1    
    31   19   18 ar   
    32   22   18 1    
    33   20   19 ar   
    34   34   19 1    
    35   21   20 ar   
    36   35   20 1    
    37   36   21 1    
    38   24   23 ar   
    39   25   23 ar   
@<TRIPOS>SUBSTRUCTURE
     1 3NG1000     1 GROUP   
@<TRIPOS>SET

