#    Name: 3ixp_834_1_INTS_M
#    Modification time : Tue Mar 25 17:40:44 2014

@<TRIPOS>MOLECULE
3ixp_834_1_INTS_M
   84     0     9     0     0
SMALL
NO_CHARGES


@<TRIPOS>ATOM
      1 CA          5.7785   60.9030   14.8730 C.3       3 GLC5        0.0000 
      2 CA          6.2360   62.7530   13.9760 C.3       9 GLL5        0.0000 
      3 CA          5.3210   59.0530   15.7700 C.3       6 GLP5        0.0000 
      4 CA          4.1610   61.9645   14.1885 C.3       3 GLC5        0.0000 
      5 CA          2.0860   61.1760   14.4010 C.3       6 GLP5        0.0000 
      6 CA          6.5550   61.5390   12.3385 C.3       3 GLC5        0.0000 
      7 CA          6.8740   60.3250   10.7010 C.3       6 GLP5        0.0000 
      8 N           8.8855   64.1660   10.1040 N.am      2 SEC2        0.0000 
      9 N           7.5510   64.1240   10.2840 N.am      8 SEL2        0.0000 
     10 N          10.2200   64.2080    9.9240 N.am      5 SEP2        0.0000 
     11 CA          8.4450   62.8225    9.6885 C.3       3 GLC5        0.0000 
     12 CA          6.5900   63.8340    9.2250 C.3       9 GLL5        0.0000 
     13 CA         10.3000   61.8110   10.1520 C.3       6 GLP5        0.0000 
     14 CA          7.2095   63.7525    6.0185 C.3       3 GLC5        0.0000 
     15 CA          7.0560   63.3600    7.8740 C.3       9 GLL5        0.0000 
     16 CA          7.3630   64.1450    4.1630 C.3       6 GLP5        0.0000 
     17 CA          8.9570   63.1920    8.6515 C.3       3 GLC5        0.0000 
     18 CA         10.8580   63.0240    9.4290 C.3       6 GLP5        0.0000 
     19 CA          7.5835   61.8525    7.1110 C.3       3 GLC5        0.0000 
     20 CA          8.1110   60.3450    6.3480 C.3       6 GLP5        0.0000 
     21 CA          6.4980   61.7440    8.7755 C.3       3 GLC5        0.0000 
     22 CA          5.9400   60.1280    9.6770 C.3       6 GLP5        0.0000 
     23 O           4.0735   63.3770   12.2810 O.2       1 ALC1        0.0000 
     24 O           4.7410   64.9190   12.0350 O.2       7 ALL1        0.0000 
     25 O           3.4060   61.8350   12.5270 O.2       4 ALP1        0.0000 
     26 CA          3.8155   65.5620    6.3920 C.3       3 GLC5        0.0000 
     27 CA          3.5850   65.1840    8.2680 C.3       9 GLL5        0.0000 
     28 CA          4.0460   65.9400    4.5160 C.3       6 GLP5        0.0000 
     29 CA          3.2265   66.8430    8.1340 C.3       3 GLC5        0.0000 
     30 CA          2.8680   68.5020    8.0000 C.3       6 GLP5        0.0000 
     31 CA          1.3260   63.9975    9.3925 C.3       3 GLC5        0.0000 
     32 CA          2.9410   63.3260    9.8180 C.3       9 GLL5        0.0000 
     33 CA         -0.2890   64.6690    8.9670 C.3       6 GLP5        0.0000 
     34 CA          2.1925   61.3160    9.3720 C.3       3 GLC5        0.0000 
     35 CA          1.4440   59.3060    8.9260 C.3       6 GLP5        0.0000 
     36 CA          4.9310   68.1415   17.0920 C.3       3 GLC5        0.0000 
     37 CA          3.9700   67.5240   15.5980 C.3       9 GLL5        0.0000 
     38 CA          5.8920   68.7590   18.5860 C.3       6 GLP5        0.0000 
     39 CA          3.4760   68.8905   17.0710 C.3       3 GLC5        0.0000 
     40 CA          2.6900   67.1850   16.0460 C.3       9 GLL5        0.0000 
     41 CA          4.2620   70.5960   18.0960 C.3       6 GLP5        0.0000 
     42 CA          0.3080   66.9890   13.3495 C.3       3 GLC5        0.0000 
     43 CA          1.1800   65.3060   12.9780 C.3       9 GLL5        0.0000 
     44 CA         -0.5640   68.6720   13.7210 C.3       6 GLP5        0.0000 
     45 CA          0.8585   65.7450   11.2030 C.3       3 GLC5        0.0000 
     46 CA          0.5370   66.1840    9.4280 C.3       6 GLP5        0.0000 
     47 CA          2.3060   68.8080   18.6575 C.3       3 GLC5        0.0000 
     48 CA          1.0990   67.0790   17.8830 C.3       9 GLL5        0.0000 
     49 CA          3.5130   70.5370   19.4320 C.3       6 GLP5        0.0000 
     50 CA          1.0715   66.2130   19.7430 C.3       3 GLC5        0.0000 
     51 CA          1.0440   65.3470   21.6030 C.3       6 GLP5        0.0000 
     52 CA         -0.2800   67.7995   15.2530 C.3       3 GLC5        0.0000 
     53 CA          0.0040   66.9270   16.7850 C.3       9 GLL5        0.0000 
     54 CA          9.8887   66.9617   15.5088 C.3       3 GLC5        0.0000 
     55 CA          8.6130   65.7810   15.1350 C.3       9 GLL5        0.0000 
     56 CA         11.0370   67.7730   16.4830 C.3       6 GLP5        0.0000 
     57 CA          8.9040   63.4840   15.6155 C.3       3 GLC5        0.0000 
     58 CA          9.6060   61.7710   16.1090 C.3       6 GLP5        0.0000 
     59 CA          7.0045   64.2285   16.3330 C.3       3 GLC5        0.0000 
     60 CA          7.7910   64.6130   15.1090 C.3       9 GLL5        0.0000 
     61 CA          5.8070   63.2600   17.5440 C.3       6 GLP5        0.0000 
     62 CA          8.1668   62.6185   15.0205 C.3       3 GLC5        0.0000 
     63 CA          7.2190   64.1790   13.8880 C.3       9 GLL5        0.0000 
     64 CA          6.2672   63.3630   15.7380 C.3       3 GLC5        0.0000 
     65 CA          7.6130   65.4505    8.3362 C.3       3 GLC5        0.0000 
     66 CA          8.4030   67.3040    8.1230 C.3       6 GLP5        0.0000 
     67 CA          2.1732   65.3597    9.0100 C.3       3 GLC5        0.0000 
     68 CA          4.0340   63.8870    8.9160 C.3       9 GLL5        0.0000 
     69 CA          4.7138   61.8672    9.5220 C.3       3 GLC5        0.0000 
     70 CA          2.8157   68.2465   13.8970 C.3       3 GLC5        0.0000 
     71 CA          3.5130   66.4240   13.4050 C.3       9 GLL5        0.0000 
     72 CA          1.6850   69.7060   13.9410 C.3       6 GLP5        0.0000 
     73 CA          4.2850   66.0887   17.0130 C.3       3 GLC5        0.0000 
     74 CA          5.2400   64.8230   18.2040 C.3       6 GLP5        0.0000 
     75 CA          2.5075   68.5303   14.8815 C.3       3 GLC5        0.0000 
     76 CA          1.8288   67.9820   14.2280 C.3       3 GLC5        0.0000 
     77 CA          1.7760   66.4550   15.1860 C.3       9 GLL5        0.0000 
     78 CA          1.2323   63.7443   13.6650 C.3       3 GLC5        0.0000 
     79 CA          2.1690   66.0610   13.8440 C.3       9 GLL5        0.0000 
     80 CA          0.7900   61.8050   13.9190 C.3       6 GLP5        0.0000 
     81 CA         -0.2122   68.5730   18.3300 C.3       3 GLC5        0.0000 
     82 CA         -0.9760   70.1430   19.3260 C.3       6 GLP5        0.0000 
     83 CA         -0.6142   65.5215   17.0875 C.3       3 GLC5        0.0000 
     84 CA         -1.7800   64.0400   16.8410 C.3       6 GLP5        0.0000 
@<TRIPOS>BOND
@<TRIPOS>SUBSTRUCTURE
     1 ALC1       23 GROUP        1 X    ALC  0     ROOT ALC X 1
     2 SEC2        8 GROUP        1 X    SEC  0     **** SEC X 2
     3 GLC5        1 GROUP        1 X    GLC  0     **** GLC X 6
     4 ALP1       25 GROUP        1 Y    ALP  0     ROOT ALP Y 8
     5 SEP2       10 GROUP        1 Y    SEP  0     **** SEP Y 9
     6 GLP5        3 GROUP        1 Y    GLP  0     **** GLP Y 13
     7 ALL1       24 GROUP        1 Z    ALL  0     ROOT ALL Z 15
     8 SEL2        9 GROUP        1 Z    SEL  0     **** SEL Z 16
     9 GLL5        2 GROUP        1 Z    GLL  0     **** GLL Z 20
@<TRIPOS>SET

