#    Name: 3ixp_834_1_ligand
#    Modification time : Tue Mar 25 17:40:44 2014

@<TRIPOS>MOLECULE
3ixp_834_1_ligand
   54    57     1     0     0
SMALL
NO_CHARGES


@<TRIPOS>ATOM
      1 C1          8.2890   66.0870   12.6960 C.ar      1 834800      0.0000 
      2 C2          8.8680   66.5200   13.9340 C.ar      1 834800      0.0000 
      3 C3          8.6130   65.7810   15.1350 C.ar      1 834800      0.0000 
      4 C4          7.7910   64.6130   15.1090 C.ar      1 834800      0.0000 
      5 C5          7.2190   64.1790   13.8880 C.ar      1 834800      0.0000 
      6 C6          7.4590   64.9140   12.6460 C.ar      1 834800      0.0000 
      7 C7          6.8620   64.5230   11.3390 C.2       1 834800      0.0000 
      8 CL8         6.2360   62.7530   13.9760 Cl        1 834800      0.0000 
      9 N9          7.5510   64.1240   10.2840 N.2       1 834800      0.0000 
     10 C10         6.5900   63.8340    9.2250 C.2       1 834800      0.0000 
     11 C11         5.3270   64.0660    9.6870 C.2       1 834800      0.0000 
     12 N12         5.5300   64.5350   11.0950 N.pl3     1 834800      0.0000 
     13 C13         7.0560   63.3600    7.8740 C.3       1 834800      0.0000 
     14 C17         4.0340   63.8870    8.9160 C.3       1 834800      0.0000 
     15 N18         4.7410   64.9190   12.0350 N.am      1 834800      0.0000 
     16 C19         4.1670   66.1550   12.1260 C.2       1 834800      0.0000 
     17 C24         3.5850   65.1840    8.2680 C.3       1 834800      0.0000 
     18 C28         2.9410   63.3260    9.8180 C.3       1 834800      0.0000 
     19 O34         4.3290   67.0010   11.2680 O.2       1 834800      0.0000 
     20 C35         3.5130   66.4240   13.4050 C.ar      1 834800      0.0000 
     21 C36         4.3800   67.1500   14.3010 C.ar      1 834800      0.0000 
     22 C37         3.9700   67.5240   15.5980 C.ar      1 834800      0.0000 
     23 C38         2.6900   67.1850   16.0460 C.ar      1 834800      0.0000 
     24 C39         1.7760   66.4550   15.1860 C.ar      1 834800      0.0000 
     25 C40         2.1690   66.0610   13.8440 C.ar      1 834800      0.0000 
     26 C41         1.1800   65.3060   12.9780 C.3       1 834800      0.0000 
     27 O47         2.3410   67.5850   17.3390 O.3       1 834800      0.0000 
     28 C48         1.0990   67.0790   17.8830 C.3       1 834800      0.0000 
     29 C49         0.0040   66.9270   16.7850 C.3       1 834800      0.0000 
     30 O50         0.4920   66.1320   15.6750 O.3       1 834800      0.0000 
     31 H           8.4661   66.6138   11.8433 H         1 834800      0.0000 
     32 H           9.4546   67.3445   13.9594 H         1 834800      0.0000 
     33 H           9.0226   66.0931   16.0144 H         1 834800      0.0000 
     34 H           7.6199   64.0975   15.9688 H         1 834800      0.0000 
     35 H           4.2131   63.1546    8.1187 H         1 834800      0.0000 
     36 H           4.4915   64.2289   12.8352 H         1 834800      0.0000 
     37 H           5.3248   67.3965   13.9709 H         1 834800      0.0000 
     38 H           4.6108   68.0409   16.2036 H         1 834800      0.0000 
     39 H           0.6932   67.7493   18.6545 H         1 834800      0.0000 
     40 H           1.2336   66.0903   18.3452 H         1 834800      0.0000 
     41 H          -0.2780   67.9358   16.4652 H         1 834800      0.0000 
     42 H          -0.8692   66.4655   17.2583 H         1 834800      0.0000 
     43 H           7.6548   64.0281    7.4322 H         1 834800      0.0000 
     44 H           7.5686   62.5037    7.9373 H         1 834800      0.0000 
     45 H           6.2895   63.1975    7.2527 H         1 834800      0.0000 
     46 H           4.2662   65.5329    7.6244 H         1 834800      0.0000 
     47 H           2.7323   65.0689    7.7585 H         1 834800      0.0000 
     48 H           3.4269   65.9024    8.9455 H         1 834800      0.0000 
     49 H           3.1934   62.4361   10.1979 H         1 834800      0.0000 
     50 H           2.7503   63.9312   10.5909 H         1 834800      0.0000 
     51 H           2.0803   63.2006    9.3246 H         1 834800      0.0000 
     52 H           0.9658   65.8044   12.1379 H         1 834800      0.0000 
     53 H           1.5325   64.4107   12.7058 H         1 834800      0.0000 
     54 H           0.3147   65.1480   13.4538 H         1 834800      0.0000 
@<TRIPOS>BOND
     1    2    1 ar   
     2    6    1 ar   
     3   31    1 1    
     4    3    2 ar   
     5   32    2 1    
     6    4    3 ar   
     7   33    3 1    
     8    5    4 ar   
     9   34    4 1    
    10    6    5 ar   
    11    8    5 1    
    12    7    6 1    
    13    9    7 2    
    14   12    7 1    
    15   10    9 1    
    16   11   10 2    
    17   13   10 1    
    18   12   11 1    
    19   14   11 1    
    20   15   12 1    
    21   43   13 1    
    22   44   13 1    
    23   45   13 1    
    24   17   14 1    
    25   18   14 1    
    26   35   14 1    
    27   16   15 am   
    28   36   15 1    
    29   19   16 2    
    30   20   16 1    
    31   46   17 1    
    32   47   17 1    
    33   48   17 1    
    34   49   18 1    
    35   50   18 1    
    36   51   18 1    
    37   21   20 ar   
    38   25   20 ar   
    39   22   21 ar   
    40   37   21 1    
    41   23   22 ar   
    42   38   22 1    
    43   24   23 ar   
    44   27   23 1    
    45   25   24 ar   
    46   30   24 1    
    47   26   25 1    
    48   52   26 1    
    49   53   26 1    
    50   54   26 1    
    51   28   27 1    
    52   29   28 1    
    53   39   28 1    
    54   40   28 1    
    55   30   29 1    
    56   41   29 1    
    57   42   29 1    
@<TRIPOS>SUBSTRUCTURE
     1 834800      1 GROUP   
@<TRIPOS>SET

