#    Name: 3pdu_NAP_7_INTS_M
#    Modification time : Tue Mar 25 06:23:33 2014

@<TRIPOS>MOLECULE
3pdu_NAP_7_INTS_M
  100     0    12     0     0
SMALL
NO_CHARGES


@<TRIPOS>ATOM
      1 N           8.4680   69.4150  -42.4670 N.am      2 SEC2        0.0000 
      2 N           9.5830   68.6480  -41.7500 N.am     10 SEL2        0.0000 
      3 N           7.3530   70.1820  -43.1840 N.am      6 SEP2        0.0000 
      4 N           9.7875   68.0920  -37.9280 N.am      2 SEC2        0.0000 
      5 N           9.9000   68.2190  -39.3690 N.am     10 SEL2        0.0000 
      6 N           9.6750   67.9650  -36.4870 N.am      6 SEP2        0.0000 
      7 CA          5.0545   64.5640  -40.9205 C.3       4 GLC5        0.0000 
      8 CA          7.1120   64.6240  -40.7240 C.3      12 GLL5        0.0000 
      9 CA          2.9970   64.5040  -41.1170 C.3       8 GLP5        0.0000 
     10 CA          5.3300   62.2045  -41.6565 C.3       4 GLC5        0.0000 
     11 CA          7.0880   62.9070  -42.2710 C.3      12 GLL5        0.0000 
     12 CA          3.5720   61.5020  -41.0420 C.3       8 GLP5        0.0000 
     13 O           5.3120   59.6285  -48.6715 O.2       1 ALC1        0.0000 
     14 O           6.0280   60.6570  -47.7290 O.2       9 ALL1        0.0000 
     15 O           4.5960   58.6000  -49.6140 O.2       5 ALP1        0.0000 
     16 CA          7.4445   58.5070  -43.7535 C.3       4 GLC5        0.0000 
     17 CA          5.6940   59.2080  -44.4350 C.3      12 GLL5        0.0000 
     18 CA          9.1950   57.8060  -43.0720 C.3       8 GLP5        0.0000 
     19 CA          4.1440   58.6680  -43.9850 C.3       4 GLC5        0.0000 
     20 CA          2.5940   58.1280  -43.5350 C.3       8 GLP5        0.0000 
     21 CA          5.0265   61.4695  -42.6365 C.3       4 GLC5        0.0000 
     22 CA          6.4810   61.4370  -44.2310 C.3      12 GLL5        0.0000 
     23 N           7.4475   69.4735  -41.7230 N.am      2 SEC2        0.0000 
     24 N           7.5420   68.7650  -40.2620 N.am     10 SEL2        0.0000 
     25 N           7.1565   68.7585  -36.4450 N.am      2 SEC2        0.0000 
     26 N           6.7950   68.5610  -37.8670 N.am     10 SEL2        0.0000 
     27 N           7.5180   68.9560  -35.0230 N.am      6 SEP2        0.0000 
     28 CA          3.6175   67.6020  -37.8555 C.3       4 GLC5        0.0000 
     29 CA          4.5010   68.5370  -39.5710 C.3      12 GLL5        0.0000 
     30 CA          2.7340   66.6670  -36.1400 C.3       8 GLP5        0.0000 
     31 CA          2.1345   68.2740  -38.1660 C.3       4 GLC5        0.0000 
     32 CA          3.0930   69.0340  -39.8560 C.3      12 GLL5        0.0000 
     33 CA          1.1760   67.5140  -36.4760 C.3       8 GLP5        0.0000 
     34 N           0.3175   69.4495  -41.4415 N.am      2 SEC2        0.0000 
     35 N           1.8120   69.5610  -41.7590 N.am     10 SEL2        0.0000 
     36 N          -1.1770   69.3380  -41.1240 N.am      6 SEP2        0.0000 
     37 N           1.6000   70.5655  -43.0390 N.am      2 SEC2        0.0000 
     38 N           1.3880   71.5700  -44.3190 N.am      6 SEP2        0.0000 
     39 O           2.1185   68.1710  -41.6785 O.2       1 ALC1        0.0000 
     40 O           1.8120   69.5610  -41.7590 O.2       9 ALL1        0.0000 
     41 O           2.4250   66.7810  -41.5980 O.2       5 ALP1        0.0000 
     42 CA          3.9040   73.2210  -40.7770 C.3       4 GLC5        0.0000 
     43 CA          3.1750   71.2570  -40.7240 C.3      12 GLL5        0.0000 
     44 CA          4.6330   75.1850  -40.8300 C.3       8 GLP5        0.0000 
     45 N           1.9955   71.8530  -42.9940 N.am      2 SEC2        0.0000 
     46 N           2.6030   72.1360  -41.6690 N.am     10 SEL2        0.0000 
     47 CA          1.9850   70.1970  -37.6915 C.3       4 GLC5        0.0000 
     48 CA          2.4000   71.2080  -39.4200 C.3      12 GLL5        0.0000 
     49 CA          1.5700   69.1860  -35.9630 C.3       8 GLP5        0.0000 
     50 N           6.5190   76.0825  -35.6760 N.am      2 SEC2        0.0000 
     51 N           5.9150   75.3080  -36.4460 N.am     10 SEL2        0.0000 
     52 N           7.1230   76.8570  -34.9060 N.am      6 SEP2        0.0000 
     53 O           7.9660   74.0445  -37.0380 O.2       1 ALC1        0.0000 
     54 O           6.7510   73.2890  -37.4280 O.2       9 ALL1        0.0000 
     55 O           9.1810   74.8000  -36.6480 O.2       5 ALP1        0.0000 
     56 CA          4.2425   75.2445  -35.0865 C.3       4 GLC5        0.0000 
     57 CA          3.3070   74.2590  -36.6250 C.3      12 GLL5        0.0000 
     58 CA          5.1780   76.2300  -33.5480 C.3       8 GLP5        0.0000 
     59 CA          1.6540   71.0070  -36.8440 C.3       4 GLC5        0.0000 
     60 CA          1.7380   72.8280  -37.7250 C.3      12 GLL5        0.0000 
     61 NZ         10.4305   60.0085  -43.9555 N.4       3 LYC4        0.0000 
     62 NZ         11.0450   60.3590  -42.6320 N.4      11 LYL4        0.0000 
     63 NZ          9.5670   60.6520  -46.1240 N.4       7 LYP4        0.0000 
     64 N          10.4305   60.0085  -43.9555 N.am      2 SEC2        0.0000 
     65 N          11.0450   60.3590  -42.6320 N.am     10 SEL2        0.0000 
     66 N           9.8160   59.6580  -45.2790 N.am      6 SEP2        0.0000 
     67 N          11.3405   58.9205  -41.9555 N.am      2 SEC2        0.0000 
     68 N          11.6360   57.4820  -41.2790 N.am      6 SEP2        0.0000 
     69 N          10.5910   62.3420  -44.4345 N.am      2 SEC2        0.0000 
     70 N          11.2480   62.7940  -43.0430 N.am     10 SEL2        0.0000 
     71 N           9.9340   61.8900  -45.8260 N.am      6 SEP2        0.0000 
     72 N          11.2830   60.8470  -39.8870 N.am      2 SEC2        0.0000 
     73 N          11.5500   61.8970  -40.7670 N.am     10 SEL2        0.0000 
     74 N          11.0160   59.7970  -39.0070 N.am      6 SEP2        0.0000 
     75 CA          6.4455   66.0867  -42.5755 C.3       4 GLC5        0.0000 
     76 CA          7.2480   66.1410  -40.8560 C.3      12 GLL5        0.0000 
     77 CA          5.7110   66.7910  -44.3610 C.3       8 GLP5        0.0000 
     78 CA          8.6135   65.1324  -38.8705 C.3       4 GLC5        0.0000 
     79 CA          9.4180   65.6340  -37.0360 C.3       8 GLP5        0.0000 
     80 CA          7.8500   59.6600  -45.7675 C.3       4 GLC5        0.0000 
     81 CA          6.4570   61.5830  -45.6090 C.3      12 GLL5        0.0000 
     82 CA          9.4460   58.2680  -45.5290 C.3       8 GLP5        0.0000 
     83 CA          4.8542   62.2087  -45.5072 C.3       4 GLC5        0.0000 
     84 CA          6.0510   60.5210  -46.4030 C.3      12 GLL5        0.0000 
     85 CA          3.3410   63.1730  -45.8960 C.3       8 GLP5        0.0000 
     86 CA          3.9463   68.1776  -41.9781 C.3       4 GLC5        0.0000 
     87 CA          4.4620   67.0570  -43.5180 C.3       8 GLP5        0.0000 
     88 CA          5.0157   70.9520  -41.7982 C.3       4 GLC5        0.0000 
     89 CA          3.0640   69.8110  -41.1630 C.3      12 GLL5        0.0000 
     90 CA          6.9120   71.3700  -42.6530 C.3       8 GLP5        0.0000 
     91 CA          0.8582   71.4813  -40.9185 C.3       4 GLC5        0.0000 
     92 CA         -1.0710   71.7300  -41.7650 C.3       8 GLP5        0.0000 
     93 CA          4.6753   71.9995  -36.6847 C.3       4 GLC5        0.0000 
     94 CA          4.0400   72.6680  -38.2970 C.3      12 GLL5        0.0000 
     95 CA          5.1700   70.8300  -35.5350 C.3       8 GLP5        0.0000 
     96 CA          3.1220   73.0892  -35.1857 C.3       4 GLC5        0.0000 
     97 CA          3.5910   72.1340  -33.6600 C.3       8 GLP5        0.0000 
     98 CA          0.8103   72.6865  -35.8002 C.3       4 GLC5        0.0000 
     99 CA          1.9990   73.8300  -36.7980 C.3      12 GLL5        0.0000 
    100 CA         -0.2480   72.0440  -34.3390 C.3       8 GLP5        0.0000 
@<TRIPOS>BOND
@<TRIPOS>SUBSTRUCTURE
     1 ALC1       13 GROUP        1 X    ALC  0     ROOT ALC X 1
     2 SEC2        1 GROUP        1 X    SEC  0     **** SEC X 2
     3 LYC4       61 GROUP        1 X    LYC  0     **** LYC X 4
     4 GLC5        7 GROUP        1 X    GLC  0     **** GLC X 6
     5 ALP1       15 GROUP        1 Y    ALP  0     ROOT ALP Y 8
     6 SEP2        3 GROUP        1 Y    SEP  0     **** SEP Y 9
     7 LYP4       63 GROUP        1 Y    LYP  0     **** LYP Y 11
     8 GLP5        9 GROUP        1 Y    GLP  0     **** GLP Y 13
     9 ALL1       14 GROUP        1 Z    ALL  0     ROOT ALL Z 15
    10 SEL2        2 GROUP        1 Z    SEL  0     **** SEL Z 16
    11 LYL4       62 GROUP        1 Z    LYL  0     **** LYL Z 18
    12 GLL5        8 GROUP        1 Z    GLL  0     **** GLL Z 20
@<TRIPOS>SET

