#    Name: 3pdu_NAP_7_ligand
#    Modification time : Tue Mar 25 06:23:33 2014

@<TRIPOS>MOLECULE
3pdu_NAP_7_ligand
   73    77     1     0     0
SMALL
NO_CHARGES


@<TRIPOS>ATOM
      1 PA          8.9810   68.0850  -40.5200 P.3       1 NAP301      0.0000 
      2 O1A         9.5830   68.6480  -41.7500 O.co2     1 NAP301      0.0000 
      3 O2A         9.9000   68.2190  -39.3690 O.co2     1 NAP301      0.0000 
      4 O5B         8.5940   66.5560  -40.8360 O.3       1 NAP301      0.0000 
      5 C5B         7.2480   66.1410  -40.8560 C.3       1 NAP301      0.0000 
      6 C4B         7.1120   64.6240  -40.7240 C.3       1 NAP301      0.0000 
      7 O4B         6.4250   64.0800  -41.8410 O.3       1 NAP301      0.0000 
      8 C3B         8.4380   63.8790  -40.6200 C.3       1 NAP301      0.0000 
      9 O3B         8.3100   62.9650  -39.5560 O.3       1 NAP301      0.0000 
     10 C2B         8.5520   63.1100  -41.9220 C.3       1 NAP301      0.0000 
     11 O2B         9.2040   61.8660  -41.7900 O.3       1 NAP301      0.0000 
     12 C1B         7.0880   62.9070  -42.2710 C.3       1 NAP301      0.0000 
     13 N9A         6.9150   62.6260  -43.7090 N.pl3     1 NAP301      0.0000 
     14 C8A         7.1550   63.4800  -44.7550 C.2       1 NAP301      0.0000 
     15 N7A         6.8740   62.8320  -45.9080 N.2       1 NAP301      0.0000 
     16 C5A         6.4570   61.5830  -45.6090 C.ar      1 NAP301      0.0000 
     17 C6A         6.0510   60.5210  -46.4030 C.ar      1 NAP301      0.0000 
     18 N6A         6.0280   60.6570  -47.7290 N.pl3     1 NAP301      0.0000 
     19 N1A         5.6670   59.3360  -45.8100 N.ar      1 NAP301      0.0000 
     20 C2A         5.6940   59.2080  -44.4350 C.ar      1 NAP301      0.0000 
     21 N3A         6.1040   60.2680  -43.6520 N.ar      1 NAP301      0.0000 
     22 C4A         6.4810   61.4370  -44.2310 C.ar      1 NAP301      0.0000 
     23 O3          7.5420   68.7650  -40.2620 O.3       1 NAP301      0.0000 
     24 PN          6.8600   69.5080  -39.0060 P.3       1 NAP301      0.0000 
     25 O1N         7.4150   70.8690  -38.8430 O.co2     1 NAP301      0.0000 
     26 O2N         6.7950   68.5610  -37.8670 O.co2     1 NAP301      0.0000 
     27 O5D         5.3640   69.6500  -39.5700 O.3       1 NAP301      0.0000 
     28 C5D         4.5010   68.5370  -39.5710 C.3       1 NAP301      0.0000 
     29 C4D         3.0930   69.0340  -39.8560 C.3       1 NAP301      0.0000 
     30 O4D         2.6730   69.9390  -38.8510 O.3       1 NAP301      0.0000 
     31 C3D         3.0640   69.8110  -41.1630 C.3       1 NAP301      0.0000 
     32 O3D         1.8120   69.5610  -41.7590 O.3       1 NAP301      0.0000 
     33 C2D         3.1750   71.2570  -40.7240 C.3       1 NAP301      0.0000 
     34 O2D         2.6030   72.1360  -41.6690 O.3       1 NAP301      0.0000 
     35 C1D         2.4000   71.2080  -39.4200 C.3       1 NAP301      0.0000 
     36 N1N         2.7470   72.2730  -38.4630 N.pl3     1 NAP301      0.0000 
     37 C2N         4.0400   72.6680  -38.2970 C.ar      1 NAP301      0.0000 
     38 C3N         4.3210   73.6700  -37.3720 C.ar      1 NAP301      0.0000 
     39 C7N         5.7290   74.0750  -37.0850 C.2       1 NAP301      0.0000 
     40 O7N         5.9150   75.3080  -36.4460 O.2       1 NAP301      0.0000 
     41 N7N         6.7510   73.2890  -37.4280 N.am      1 NAP301      0.0000 
     42 C4N         3.3070   74.2590  -36.6250 C.ar      1 NAP301      0.0000 
     43 C5N         1.9990   73.8300  -36.7980 C.ar      1 NAP301      0.0000 
     44 C6N         1.7380   72.8280  -37.7250 C.ar      1 NAP301      0.0000 
     45 P2B        10.7910   61.7340  -42.0630 P.3       1 NAP301      0.0000 
     46 O1X        11.0450   60.3590  -42.6320 O.co2     1 NAP301      0.0000 
     47 O2X        11.2480   62.7940  -43.0430 O.co2     1 NAP301      0.0000 
     48 O3X        11.5500   61.8970  -40.7670 O.co2     1 NAP301      0.0000 
     49 H           6.7376   66.4346  -41.7950 H         1 NAP301      0.0000 
     50 H           6.6620   66.5948  -40.0319 H         1 NAP301      0.0000 
     51 H           6.5471   64.4102  -39.8090 H         1 NAP301      0.0000 
     52 H           9.2121   64.5558  -40.5284 H         1 NAP301      0.0000 
     53 H           8.9675   63.7553  -42.6555 H         1 NAP301      0.0000 
     54 H           6.7489   62.0481  -41.6854 H         1 NAP301      0.0000 
     55 H           7.4695   64.3839  -44.6709 H         1 NAP301      0.0000 
     56 H           6.3353   61.5390  -48.0862 H         1 NAP301      0.0000 
     57 H           5.7054   59.8648  -48.2471 H         1 NAP301      0.0000 
     58 H           5.4079   58.3207  -43.9941 H         1 NAP301      0.0000 
     59 H           4.4849   68.0234  -38.6069 H         1 NAP301      0.0000 
     60 H           4.7614   67.8106  -40.3442 H         1 NAP301      0.0000 
     61 H           2.4314   68.2022  -39.9442 H         1 NAP301      0.0000 
     62 H           3.8878   69.5432  -41.7354 H         1 NAP301      0.0000 
     63 H           4.1926   71.4475  -40.4925 H         1 NAP301      0.0000 
     64 H           1.3386   71.2686  -39.6705 H         1 NAP301      0.0000 
     65 H           4.8012   72.2445  -38.8358 H         1 NAP301      0.0000 
     66 H           6.5113   72.4132  -37.8470 H         1 NAP301      0.0000 
     67 H           7.6649   73.6463  -37.2352 H         1 NAP301      0.0000 
     68 H           3.5247   75.0017  -35.9544 H         1 NAP301      0.0000 
     69 H           1.2399   74.2429  -36.2538 H         1 NAP301      0.0000 
     70 H           0.7598   72.5027  -37.8520 H         1 NAP301      0.0000 
     71 H           8.8108   62.1516  -39.8521 H         1 NAP301      0.0000 
     72 H           1.7715   68.5679  -41.8689 H         1 NAP301      0.0000 
     73 H           2.0879   72.7995  -41.1264 H         1 NAP301      0.0000 
@<TRIPOS>BOND
     1    2    1 ar   
     2    3    1 ar   
     3    4    1 1    
     4   23    1 1    
     5    5    4 1    
     6    6    5 1    
     7   49    5 1    
     8   50    5 1    
     9    7    6 1    
    10    8    6 1    
    11   51    6 1    
    12   12    7 1    
    13    9    8 1    
    14   10    8 1    
    15   52    8 1    
    16   71    9 1    
    17   11   10 1    
    18   12   10 1    
    19   53   10 1    
    20   45   11 1    
    21   13   12 1    
    22   54   12 1    
    23   14   13 1    
    24   22   13 1    
    25   15   14 2    
    26   55   14 1    
    27   16   15 1    
    28   17   16 ar   
    29   22   16 ar   
    30   18   17 1    
    31   19   17 ar   
    32   56   18 1    
    33   57   18 1    
    34   20   19 ar   
    35   21   20 ar   
    36   58   20 1    
    37   22   21 ar   
    38   24   23 1    
    39   25   24 ar   
    40   26   24 ar   
    41   27   24 1    
    42   28   27 1    
    43   29   28 1    
    44   59   28 1    
    45   60   28 1    
    46   30   29 1    
    47   31   29 1    
    48   61   29 1    
    49   35   30 1    
    50   32   31 1    
    51   33   31 1    
    52   62   31 1    
    53   72   32 1    
    54   34   33 1    
    55   35   33 1    
    56   63   33 1    
    57   73   34 1    
    58   36   35 1    
    59   64   35 1    
    60   37   36 ar   
    61   44   36 ar   
    62   38   37 ar   
    63   65   37 1    
    64   39   38 1    
    65   42   38 ar   
    66   40   39 2    
    67   41   39 am   
    68   66   41 1    
    69   67   41 1    
    70   43   42 ar   
    71   68   42 1    
    72   44   43 ar   
    73   69   43 1    
    74   70   44 1    
    75   46   45 ar   
    76   47   45 ar   
    77   48   45 ar   
@<TRIPOS>SUBSTRUCTURE
     1 NAP301      1 GROUP   
@<TRIPOS>SET

