#    Name: 3bnk_FMN_2_INTS_M
#    Modification time : Mon Mar 24 19:55:27 2014

@<TRIPOS>MOLECULE
3bnk_FMN_2_INTS_M
   80     0    12     0     0
SMALL
NO_CHARGES


@<TRIPOS>ATOM
      1 N           4.8605   -9.4050   19.3900 N.am      2 SEC2        0.0000 
      2 N           4.0240   -9.0770   18.1290 N.am     10 SEL2        0.0000 
      3 N           5.6970   -9.7330   20.6510 N.am      6 SEP2        0.0000 
      4 N           3.3135   -7.5895   21.3030 N.am      2 SEC2        0.0000 
      5 N           3.4420   -7.9870   20.0050 N.am     10 SEL2        0.0000 
      6 N           3.1850   -7.1920   22.6010 N.am      6 SEP2        0.0000 
      7 O           1.9005   -6.1875   18.6470 O.2       1 ALC1        0.0000 
      8 O           2.3270   -7.3790   18.1250 O.2       9 ALL1        0.0000 
      9 O           1.4740   -4.9960   19.1690 O.2       5 ALP1        0.0000 
     10 N           1.3735   -6.5815   14.6915 N.am      2 SEC2        0.0000 
     11 N           1.3160   -6.9040   16.1720 N.am     10 SEL2        0.0000 
     12 N           1.4310   -6.2590   13.2110 N.am      6 SEP2        0.0000 
     13 N           0.3040   -6.1635   15.3735 N.am      2 SEC2        0.0000 
     14 N          -0.7080   -5.4230   14.5750 N.am      6 SEP2        0.0000 
     15 N           2.0915   -7.4965   13.9655 N.am      2 SEC2        0.0000 
     16 N           2.7520   -8.7340   14.7200 N.am     10 SEL2        0.0000 
     17 CA          3.9420  -11.0420    8.6040 C.3       4 GLC5        0.0000 
     18 CA          3.9520  -10.8310   10.4690 C.3      12 GLL5        0.0000 
     19 CA          3.9320  -11.2530    6.7390 C.3       8 GLP5        0.0000 
     20 CA          6.4515   -8.0860   17.4280 C.3       4 GLC5        0.0000 
     21 CA          6.9810  -10.0670   17.1040 C.3      12 GLL5        0.0000 
     22 CA          5.9220   -6.1050   17.7520 C.3       8 GLP5        0.0000 
     23 CA          6.5825   -9.2920   19.0820 C.3       4 GLC5        0.0000 
     24 CA          6.1840   -8.5170   21.0600 C.3       8 GLP5        0.0000 
     25 O           6.4740   -8.3335   15.3175 O.2       1 ALC1        0.0000 
     26 O           7.2970   -9.3070   15.9530 O.2       9 ALL1        0.0000 
     27 O           5.6510   -7.3600   14.6820 O.2       5 ALP1        0.0000 
     28 O          11.9085  -10.7790   17.2070 O.2       1 ALC1        0.0000 
     29 O          10.5860  -10.9340   17.5190 O.2       9 ALL1        0.0000 
     30 O          13.2310  -10.6240   16.8950 O.2       5 ALP1        0.0000 
     31 CA          8.4530   -8.9375   20.1980 C.3       4 GLC5        0.0000 
     32 CA          9.5610   -9.1240   18.6800 C.3      12 GLL5        0.0000 
     33 CA          7.3450   -8.7510   21.7160 C.3       8 GLP5        0.0000 
     34 N          12.7565   -9.3685   21.3175 N.am      2 SEC2        0.0000 
     35 N          11.7330   -8.7100   20.8190 N.am     10 SEL2        0.0000 
     36 N          13.7800  -10.0270   21.8160 N.am      6 SEP2        0.0000 
     37 N          11.4015   -7.9400   22.1040 N.am      2 SEC2        0.0000 
     38 N          11.0700   -7.1700   23.3890 N.am      6 SEP2        0.0000 
     39 N          10.9200   -6.8665   21.7790 N.am      2 SEC2        0.0000 
     40 N          10.7700   -6.5630   20.1690 N.am     10 SEL2        0.0000 
     41 N          10.8650   -5.6110   21.2690 N.am      2 SEC2        0.0000 
     42 N          10.9600   -4.6590   22.3690 N.am      6 SEP2        0.0000 
     43 N          10.6545   -5.3725   19.8545 N.am      2 SEC2        0.0000 
     44 N          10.5390   -4.1820   19.5400 N.am      6 SEP2        0.0000 
     45 NZ         13.1190   -7.5285   17.9295 N.4       3 LYC4        0.0000 
     46 NZ         12.9310   -7.2200   19.2460 N.4      11 LYL4        0.0000 
     47 NZ         13.3070   -7.8370   16.6130 N.4       7 LYP4        0.0000 
     48 N          14.1160   -7.8435   19.4830 N.am      2 SEC2        0.0000 
     49 N          12.9310   -7.2200   19.2460 N.am     10 SEL2        0.0000 
     50 N          15.3010   -8.4670   19.7200 N.am      6 SEP2        0.0000 
     51 N          13.1565   -5.8060   19.1615 N.am      2 SEC2        0.0000 
     52 N          13.3820   -4.3920   19.0770 N.am      6 SEP2        0.0000 
     53 N          13.1190   -7.5285   17.9295 N.am      2 SEC2        0.0000 
     54 N          13.3070   -7.8370   16.6130 N.am      6 SEP2        0.0000 
     55 CA          5.2402   -9.1350   12.7058 C.3       4 GLC5        0.0000 
     56 CA          3.5210   -9.6610   14.0420 C.3      12 GLL5        0.0000 
     57 CA          7.0520   -8.5300   12.0590 C.3       8 GLP5        0.0000 
     58 CA          3.5747   -7.6665   13.5038 C.3       4 GLC5        0.0000 
     59 CA          3.3360   -9.8190   12.6630 C.3      12 GLL5        0.0000 
     60 CA          3.7210   -5.5930   13.6550 C.3       8 GLP5        0.0000 
     61 CA          2.6437  -11.9805   12.7945 C.3       4 GLC5        0.0000 
     62 CA          1.5690  -13.6710   13.2780 C.3       8 GLP5        0.0000 
     63 CA          5.5392   -9.6630   11.6365 C.3       4 GLC5        0.0000 
     64 CA          4.1010  -10.7610   11.9590 C.3      12 GLL5        0.0000 
     65 CA          2.1321  -10.7523   11.1035 C.3       4 GLC5        0.0000 
     66 CA          0.4290  -10.9440   10.8170 C.3       8 GLP5        0.0000 
     67 CA          6.3037  -10.2427   12.1595 C.3       4 GLC5        0.0000 
     68 CA          6.0580  -12.3760   11.8810 C.3      12 GLL5        0.0000 
     69 CA          3.3580  -12.5577   13.3027 C.3       4 GLC5        0.0000 
     70 CA          5.0530  -11.5350   12.6390 C.3      12 GLL5        0.0000 
     71 CA          5.7751  -13.4914   13.5520 C.3       4 GLC5        0.0000 
     72 CA          6.1520  -15.3280   13.9660 C.3       8 GLP5        0.0000 
     73 CA          5.9582   -9.7078   13.2150 C.3       4 GLC5        0.0000 
     74 CA          5.2410  -11.3540   14.0160 C.3      12 GLL5        0.0000 
     75 CA          7.2001  -11.3829   13.4080 C.3       4 GLC5        0.0000 
     76 CA          9.0020  -11.1110   13.6780 C.3       8 GLP5        0.0000 
     77 CA          9.4065   -7.8760   17.3155 C.3       4 GLC5        0.0000 
     78 CA          9.4770  -10.0760   17.4940 C.3      12 GLL5        0.0000 
     79 CA          9.2940   -6.1520   16.5440 C.3       8 GLP5        0.0000 
     80 CA          8.7686  -10.6981   15.5297 C.3       4 GLC5        0.0000 
@<TRIPOS>BOND
@<TRIPOS>SUBSTRUCTURE
     1 ALC1        7 GROUP        1 X    ALC  0     ROOT ALC X 1
     2 SEC2        1 GROUP        1 X    SEC  0     **** SEC X 2
     3 LYC4       45 GROUP        1 X    LYC  0     **** LYC X 4
     4 GLC5       17 GROUP        1 X    GLC  0     **** GLC X 6
     5 ALP1        9 GROUP        1 Y    ALP  0     ROOT ALP Y 8
     6 SEP2        3 GROUP        1 Y    SEP  0     **** SEP Y 9
     7 LYP4       47 GROUP        1 Y    LYP  0     **** LYP Y 11
     8 GLP5       19 GROUP        1 Y    GLP  0     **** GLP Y 13
     9 ALL1        8 GROUP        1 Z    ALL  0     ROOT ALL Z 15
    10 SEL2        2 GROUP        1 Z    SEL  0     **** SEL Z 16
    11 LYL4       46 GROUP        1 Z    LYL  0     **** LYL Z 18
    12 GLL5       18 GROUP        1 Z    GLL  0     **** GLL Z 20
@<TRIPOS>SET

