#    Name: 3bnk_FMN_2_ligand
#    Modification time : Mon Mar 24 19:55:27 2014

@<TRIPOS>MOLECULE
3bnk_FMN_2_ligand
   50    52     1     0     0
SMALL
NO_CHARGES


@<TRIPOS>ATOM
      1 N1          4.0240   -9.0770   18.1290 N.2       1 FMN1001     0.0000 
      2 C2          3.2650   -8.1400   18.8020 C.2       1 FMN1001     0.0000 
      3 O2          3.4420   -7.9870   20.0050 O.2       1 FMN1001     0.0000 
      4 N3          2.3270   -7.3790   18.1250 N.am      1 FMN1001     0.0000 
      5 C4          2.1560   -7.5720   16.7640 C.2       1 FMN1001     0.0000 
      6 O4          1.3160   -6.9040   16.1720 O.2       1 FMN1001     0.0000 
      7 C4A         2.9230   -8.5250   16.0820 C.2       1 FMN1001     0.0000 
      8 N5          2.7520   -8.7340   14.7200 N.2       1 FMN1001     0.0000 
      9 C5A         3.5210   -9.6610   14.0420 C.ar      1 FMN1001     0.0000 
     10 C6          3.3360   -9.8190   12.6630 C.ar      1 FMN1001     0.0000 
     11 C7          4.1010  -10.7610   11.9590 C.ar      1 FMN1001     0.0000 
     12 C7M         3.9520  -10.8310   10.4690 C.3       1 FMN1001     0.0000 
     13 C8          5.0530  -11.5350   12.6390 C.ar      1 FMN1001     0.0000 
     14 C8M         6.0580  -12.3760   11.8810 C.3       1 FMN1001     0.0000 
     15 C9          5.2410  -11.3540   14.0160 C.ar      1 FMN1001     0.0000 
     16 C9A         4.4880  -10.4170   14.7260 C.ar      1 FMN1001     0.0000 
     17 N10         4.6660  -10.2220   16.1010 N.pl3     1 FMN1001     0.0000 
     18 C10         3.8760   -9.2840   16.7730 C.2       1 FMN1001     0.0000 
     19 C1'         5.7610  -10.9410   16.8430 C.3       1 FMN1001     0.0000 
     20 C2'         6.9810  -10.0670   17.1040 C.3       1 FMN1001     0.0000 
     21 O2'         7.2970   -9.3070   15.9530 O.3       1 FMN1001     0.0000 
     22 C3'         8.2060  -10.9220   17.4340 C.3       1 FMN1001     0.0000 
     23 O3'         8.0350  -11.6910   18.6110 O.3       1 FMN1001     0.0000 
     24 C4'         9.4770  -10.0760   17.4940 C.3       1 FMN1001     0.0000 
     25 O4'        10.5860  -10.9340   17.5190 O.3       1 FMN1001     0.0000 
     26 C5'         9.5610   -9.1240   18.6800 C.3       1 FMN1001     0.0000 
     27 O5'        10.7790   -8.4290   18.4850 O.3       1 FMN1001     0.0000 
     28 P          11.5880   -7.7270   19.6940 P.3       1 FMN1001     0.0000 
     29 O1P        11.7330   -8.7100   20.8190 O.co2     1 FMN1001     0.0000 
     30 O2P        10.7700   -6.5630   20.1690 O.co2     1 FMN1001     0.0000 
     31 O3P        12.9310   -7.2200   19.2460 O.co2     1 FMN1001     0.0000 
     32 H           1.7664   -6.6819   18.6242 H         1 FMN1001     0.0000 
     33 H           2.6444   -9.2490   12.1686 H         1 FMN1001     0.0000 
     34 H           5.9466  -11.9226   14.5100 H         1 FMN1001     0.0000 
     35 H           6.0756  -11.8255   16.2665 H         1 FMN1001     0.0000 
     36 H           5.3730  -11.3050   17.8077 H         1 FMN1001     0.0000 
     37 H           6.7818   -9.4339   17.9505 H         1 FMN1001     0.0000 
     38 H           8.3428  -11.6111   16.5591 H         1 FMN1001     0.0000 
     39 H           9.5063   -9.4652   16.5769 H         1 FMN1001     0.0000 
     40 H           9.5607   -9.7115   19.5821 H         1 FMN1001     0.0000 
     41 H           8.7043   -8.4727   18.6484 H         1 FMN1001     0.0000 
     42 H           4.1881   -9.9636   10.0310 H         1 FMN1001     0.0000 
     43 H           4.5429  -11.5317   10.0692 H         1 FMN1001     0.0000 
     44 H           3.0142  -11.0498   10.1994 H         1 FMN1001     0.0000 
     45 H           6.6313  -11.8184   11.2807 H         1 FMN1001     0.0000 
     46 H           6.6717  -12.8678   12.4986 H         1 FMN1001     0.0000 
     47 H           5.6106  -13.0608   11.3058 H         1 FMN1001     0.0000 
     48 H           6.4831   -8.7533   15.7771 H         1 FMN1001     0.0000 
     49 H           8.0995  -12.6424   18.3100 H         1 FMN1001     0.0000 
     50 H          11.3631  -10.3460   17.7436 H         1 FMN1001     0.0000 
@<TRIPOS>BOND
     1    2    1 1    
     2   18    1 2    
     3    3    2 2    
     4    4    2 am   
     5    5    4 am   
     6   32    4 1    
     7    6    5 2    
     8    7    5 1    
     9    8    7 2    
    10   18    7 1    
    11    9    8 1    
    12   10    9 ar   
    13   16    9 ar   
    14   11   10 ar   
    15   33   10 1    
    16   12   11 1    
    17   13   11 ar   
    18   42   12 1    
    19   43   12 1    
    20   44   12 1    
    21   14   13 1    
    22   15   13 ar   
    23   45   14 1    
    24   46   14 1    
    25   47   14 1    
    26   16   15 ar   
    27   34   15 1    
    28   17   16 1    
    29   18   17 1    
    30   19   17 1    
    31   20   19 1    
    32   35   19 1    
    33   36   19 1    
    34   21   20 1    
    35   22   20 1    
    36   37   20 1    
    37   48   21 1    
    38   23   22 1    
    39   24   22 1    
    40   38   22 1    
    41   49   23 1    
    42   25   24 1    
    43   26   24 1    
    44   39   24 1    
    45   50   25 1    
    46   27   26 1    
    47   40   26 1    
    48   41   26 1    
    49   28   27 1    
    50   29   28 ar   
    51   30   28 ar   
    52   31   28 ar   
@<TRIPOS>SUBSTRUCTURE
     1 FMN1001     1 GROUP   
@<TRIPOS>SET

