#    Name: 3phi_NDP_2_INTS_M
#    Modification time : Tue Mar 25 06:37:49 2014

@<TRIPOS>MOLECULE
3phi_NDP_2_INTS_M
   84     0    12     0     0
SMALL
NO_CHARGES


@<TRIPOS>ATOM
      1 N          22.4665  -12.8215   14.5385 N.am      2 SEC2        0.0000 
      2 N          22.2380  -12.3070   15.9930 N.am     10 SEL2        0.0000 
      3 N          22.6950  -13.3360   13.0840 N.am      6 SEP2        0.0000 
      4 CA         17.6020  -10.7075   17.6320 C.3       4 GLC5        0.0000 
      5 CA         18.9340  -10.3140   16.1380 C.3      12 GLL5        0.0000 
      6 CA         16.2700  -11.1010   19.1260 C.3       8 GLP5        0.0000 
      7 CA         17.7115   -8.8815   13.0510 C.3       4 GLC5        0.0000 
      8 CA         18.5100   -9.2710   15.1000 C.3      12 GLL5        0.0000 
      9 CA         16.9130   -8.4920   11.0020 C.3       8 GLP5        0.0000 
     10 N          16.2150   -9.6370   16.2620 N.am      2 SEC2        0.0000 
     11 N          17.2610   -8.7360   15.5230 N.am     10 SEL2        0.0000 
     12 N          15.1690  -10.5380   17.0010 N.am      6 SEP2        0.0000 
     13 N          19.3445   -8.0695   12.2790 N.am      2 SEC2        0.0000 
     14 N          19.3510   -7.6370   13.6480 N.am     10 SEL2        0.0000 
     15 N          19.3380   -8.5020   10.9100 N.am      6 SEP2        0.0000 
     16 CA         15.6795   -8.1265   15.2045 C.3       4 GLC5        0.0000 
     17 CA         17.3750   -7.3170   15.6400 C.3      12 GLL5        0.0000 
     18 CA         13.9840   -8.9360   14.7690 C.3       8 GLP5        0.0000 
     19 O          12.4185   -5.0830   20.0075 O.2       1 ALC1        0.0000 
     20 O          12.8790   -4.6150   18.5020 O.2       9 ALL1        0.0000 
     21 O          11.9580   -5.5510   21.5130 O.2       5 ALP1        0.0000 
     22 CA         14.9015   -3.2385   15.5085 C.3       4 GLC5        0.0000 
     23 CA         13.9150   -4.6730   15.0690 C.3      12 GLL5        0.0000 
     24 CA         15.8880   -1.8040   15.9480 C.3       8 GLP5        0.0000 
     25 CA         13.8930   -6.4355   14.2385 C.3       4 GLC5        0.0000 
     26 CA         13.8710   -8.1980   13.4080 C.3       8 GLP5        0.0000 
     27 CA         11.9060   -5.2965   14.9015 C.3       4 GLC5        0.0000 
     28 CA          9.8970   -5.9200   14.7340 C.3       8 GLP5        0.0000 
     29 NZ         20.4655  -17.1875   15.5005 N.4       3 LYC4        0.0000 
     30 NZ         20.7870  -15.5400   16.2650 N.4      11 LYL4        0.0000 
     31 NZ         20.1440  -18.8350   14.7360 N.4       7 LYP4        0.0000 
     32 N          20.2695  -14.6725   13.3985 N.am      2 SEC2        0.0000 
     33 N          19.8490  -13.9160   14.4740 N.am     10 SEL2        0.0000 
     34 N          20.6900  -15.4290   12.3230 N.am      6 SEP2        0.0000 
     35 N          18.5035  -15.8570   14.8885 N.am      2 SEC2        0.0000 
     36 N          18.3380  -14.9000   16.1180 N.am     10 SEL2        0.0000 
     37 N          18.6690  -16.8140   13.6590 N.am      6 SEP2        0.0000 
     38 CA         17.7920  -15.1265   14.1085 C.3       4 GLC5        0.0000 
     39 CA         17.2390  -14.0380   15.8160 C.3      12 GLL5        0.0000 
     40 CA         18.3450  -16.2150   12.4010 C.3       8 GLP5        0.0000 
     41 N          17.2045  -16.2970   14.4120 N.am      2 SEC2        0.0000 
     42 N          15.7400  -15.7800   15.1650 N.am     10 SEL2        0.0000 
     43 CA         16.8165  -14.6755   19.1560 C.3       4 GLC5        0.0000 
     44 CA         16.0290  -15.5160   17.4740 C.3      12 GLL5        0.0000 
     45 CA         17.6040  -13.8350   20.8380 C.3       8 GLP5        0.0000 
     46 CA         15.1640  -15.6040   19.4025 C.3       4 GLC5        0.0000 
     47 CA         14.2990  -15.6920   21.3310 C.3       8 GLP5        0.0000 
     48 CA         14.2345  -17.0525   14.6450 C.3       4 GLC5        0.0000 
     49 CA         15.4620  -17.0180   15.8270 C.3      12 GLL5        0.0000 
     50 CA         13.0070  -17.0870   13.4630 C.3       8 GLP5        0.0000 
     51 O          11.9425  -22.2850   14.0785 O.2       1 ALC1        0.0000 
     52 O          12.9870  -21.4040   13.7690 O.2       9 ALL1        0.0000 
     53 O          10.8980  -23.1660   14.3880 O.2       5 ALP1        0.0000 
     54 CA         17.6820  -17.4445   13.6630 C.3       4 GLC5        0.0000 
     55 CA         17.0190  -18.6740   14.9250 C.3      12 GLL5        0.0000 
     56 NZ         18.2955   -2.9225   16.2930 N.4       3 LYC4        0.0000 
     57 NZ         19.7360   -3.3320   15.8220 N.4      11 LYL4        0.0000 
     58 NZ         16.6040   -2.9010   18.0090 N.4       7 LYP4        0.0000 
     59 N          18.2955   -2.9225   16.2930 N.am      2 SEC2        0.0000 
     60 N          19.7360   -3.3320   15.8220 N.am     10 SEL2        0.0000 
     61 N          16.8550   -2.5130   16.7640 N.am      6 SEP2        0.0000 
     62 NZ         18.7580   -4.2400   18.2255 N.4       3 LYC4        0.0000 
     63 NZ         20.0090   -4.9470   17.7250 N.4      11 LYL4        0.0000 
     64 N          18.7580   -4.2400   18.2255 N.am      2 SEC2        0.0000 
     65 N          20.0090   -4.9470   17.7250 N.am     10 SEL2        0.0000 
     66 N          17.5070   -3.5330   18.7260 N.am      6 SEP2        0.0000 
     67 CA         16.7360  -10.0322   15.1190 C.3       4 GLC5        0.0000 
     68 CA         14.7500  -10.2720   14.6190 C.3       8 GLP5        0.0000 
     69 CA         14.5142   -7.4140   15.8253 C.3       4 GLC5        0.0000 
     70 CA         14.7030   -5.7510   17.4630 C.3      12 GLL5        0.0000 
     71 CA         12.8308   -6.5393   17.7208 C.3       4 GLC5        0.0000 
     72 CA         11.5020   -7.7660   18.0140 C.3       8 GLP5        0.0000 
     73 CA         15.3304   -3.7384   16.4059 C.3       4 GLC5        0.0000 
     74 CA         15.7875  -12.7825   17.1490 C.3       4 GLC5        0.0000 
     75 CA         14.9810  -11.1600   18.3170 C.3       8 GLP5        0.0000 
     76 CA         13.9002  -18.4310   14.1635 C.3       4 GLC5        0.0000 
     77 CA         14.6870  -19.0960   14.9710 C.3      12 GLL5        0.0000 
     78 CA         19.2563  -19.0512   15.2030 C.3       4 GLC5        0.0000 
     79 CA         17.2460  -20.0270   14.6810 C.3      12 GLL5        0.0000 
     80 CA         21.3800  -18.7520   15.6030 C.3       8 GLP5        0.0000 
     81 CA         16.1163  -18.3098   13.3930 C.3       4 GLC5        0.0000 
     82 CA         15.1000  -17.2690   11.9830 C.3       8 GLP5        0.0000 
     83 CA         16.4277  -20.5884   12.8269 C.3       4 GLC5        0.0000 
     84 CA         16.4590  -20.8160   10.9620 C.3       8 GLP5        0.0000 
@<TRIPOS>BOND
@<TRIPOS>SUBSTRUCTURE
     1 ALC1       19 GROUP        1 X    ALC  0     ROOT ALC X 1
     2 SEC2        1 GROUP        1 X    SEC  0     **** SEC X 2
     3 LYC4       29 GROUP        1 X    LYC  0     **** LYC X 4
     4 GLC5        4 GROUP        1 X    GLC  0     **** GLC X 6
     5 ALP1       21 GROUP        1 Y    ALP  0     ROOT ALP Y 8
     6 SEP2        3 GROUP        1 Y    SEP  0     **** SEP Y 9
     7 LYP4       31 GROUP        1 Y    LYP  0     **** LYP Y 11
     8 GLP5        6 GROUP        1 Y    GLP  0     **** GLP Y 13
     9 ALL1       20 GROUP        1 Z    ALL  0     ROOT ALL Z 15
    10 SEL2        2 GROUP        1 Z    SEL  0     **** SEL Z 16
    11 LYL4       30 GROUP        1 Z    LYL  0     **** LYL Z 18
    12 GLL5        5 GROUP        1 Z    GLL  0     **** GLL Z 20
@<TRIPOS>SET

