#    Name: 3phi_NDP_2_ligand
#    Modification time : Tue Mar 25 06:37:49 2014

@<TRIPOS>MOLECULE
3phi_NDP_2_ligand
   74    78     1     0     0
SMALL
NO_CHARGES


@<TRIPOS>ATOM
      1 PA         21.0210  -11.8630   16.7320 P.3       1 NDP1411     0.0000 
      2 O1A        21.2250  -11.2340   18.0980 O.co2     1 NDP1411     0.0000 
      3 O2A        22.2380  -12.3070   15.9930 O.co2     1 NDP1411     0.0000 
      4 O5B        20.2390  -10.7910   15.8100 O.3       1 NDP1411     0.0000 
      5 C5B        18.9340  -10.3140   16.1380 C.3       1 NDP1411     0.0000 
      6 C4B        18.5100   -9.2710   15.1000 C.3       1 NDP1411     0.0000 
      7 O4B        17.2610   -8.7360   15.5230 O.3       1 NDP1411     0.0000 
      8 C3B        19.4360   -8.0740   15.0110 C.3       1 NDP1411     0.0000 
      9 O3B        19.3510   -7.6370   13.6480 O.3       1 NDP1411     0.0000 
     10 C2B        18.8260   -7.0180   15.9150 C.3       1 NDP1411     0.0000 
     11 O2B        19.1150   -5.6920   15.4770 O.3       1 NDP1411     0.0000 
     12 C1B        17.3750   -7.3170   15.6400 C.3       1 NDP1411     0.0000 
     13 N9A        16.4330   -6.7940   16.6390 N.pl3     1 NDP1411     0.0000 
     14 C8A        16.4030   -7.0620   17.9550 C.2       1 NDP1411     0.0000 
     15 N7A        15.3430   -6.4010   18.4790 N.2       1 NDP1411     0.0000 
     16 C5A        14.7030   -5.7510   17.4630 C.ar      1 NDP1411     0.0000 
     17 C6A        13.6160   -4.8740   17.3920 C.ar      1 NDP1411     0.0000 
     18 N6A        12.8790   -4.6150   18.5020 N.pl3     1 NDP1411     0.0000 
     19 N1A        13.2200   -4.3950   16.1920 N.ar      1 NDP1411     0.0000 
     20 C2A        13.9150   -4.6730   15.0690 C.ar      1 NDP1411     0.0000 
     21 N3A        15.0210   -5.4330   15.1320 N.ar      1 NDP1411     0.0000 
     22 C4A        15.3860   -6.0330   16.3000 C.ar      1 NDP1411     0.0000 
     23 O3         19.9720  -13.1080   16.9000 O.3       1 NDP1411     0.0000 
     24 PN         19.8360  -14.4050   15.8930 P.3       1 NDP1411     0.0000 
     25 O1N        20.7870  -15.5400   16.2650 O.co2     1 NDP1411     0.0000 
     26 O2N        19.8490  -13.9160   14.4740 O.co2     1 NDP1411     0.0000 
     27 O5D        18.3380  -14.9000   16.1180 O.3       1 NDP1411     0.0000 
     28 C5D        17.2390  -14.0380   15.8160 C.3       1 NDP1411     0.0000 
     29 C4D        15.9490  -14.7720   16.1460 C.3       1 NDP1411     0.0000 
     30 O4D        15.7400  -15.7800   15.1650 O.3       1 NDP1411     0.0000 
     31 C3D        16.0290  -15.5160   17.4740 C.3       1 NDP1411     0.0000 
     32 O3D        14.7410  -15.4280   18.0800 O.3       1 NDP1411     0.0000 
     33 C2D        16.2770  -16.9650   17.1050 C.3       1 NDP1411     0.0000 
     34 O2D        15.7770  -17.8500   18.1090 O.3       1 NDP1411     0.0000 
     35 C1D        15.4620  -17.0180   15.8270 C.3       1 NDP1411     0.0000 
     36 N1N        15.7190  -18.1340   14.8970 N.pl3     1 NDP1411     0.0000 
     37 C2N        14.6870  -19.0960   14.9710 C.2       1 NDP1411     0.0000 
     38 C3N        14.9000  -20.4540   14.7570 C.2       1 NDP1411     0.0000 
     39 C7N        13.7240  -21.3880   14.7340 C.2       1 NDP1411     0.0000 
     40 O7N        13.4820  -22.1510   15.7920 O.2       1 NDP1411     0.0000 
     41 N7N        12.9870  -21.4040   13.7690 N.am      1 NDP1411     0.0000 
     42 C4N        16.1940  -20.9350   14.6480 C.3       1 NDP1411     0.0000 
     43 C5N        17.2460  -20.0270   14.6810 C.2       1 NDP1411     0.0000 
     44 C6N        17.0190  -18.6740   14.9250 C.2       1 NDP1411     0.0000 
     45 P2B        20.1810   -4.7170   16.2490 P.3       1 NDP1411     0.0000 
     46 O1X        21.5370   -5.1770   15.7760 O.co2     1 NDP1411     0.0000 
     47 O2X        19.7360   -3.3320   15.8220 O.co2     1 NDP1411     0.0000 
     48 O3X        20.0090   -4.9470   17.7250 O.co2     1 NDP1411     0.0000 
     49 H          18.9092   -9.8356   17.1200 H         1 NDP1411     0.0000 
     50 H          18.1917  -11.1157   16.1268 H         1 NDP1411     0.0000 
     51 H          18.4218   -9.7273   14.1453 H         1 NDP1411     0.0000 
     52 H          20.3814   -8.3301   15.3169 H         1 NDP1411     0.0000 
     53 H          19.0369   -7.2362   16.8985 H         1 NDP1411     0.0000 
     54 H          17.1386   -6.8713   14.6542 H         1 NDP1411     0.0000 
     55 H          17.0159   -7.6180   18.4405 H         1 NDP1411     0.0000 
     56 H          13.1541   -5.0954   19.3348 H         1 NDP1411     0.0000 
     57 H          12.1261   -3.9667   18.3889 H         1 NDP1411     0.0000 
     58 H          13.5905   -4.2957   14.1517 H         1 NDP1411     0.0000 
     59 H          17.2143  -13.7683   14.7590 H         1 NDP1411     0.0000 
     60 H          17.2683  -13.1218   16.4079 H         1 NDP1411     0.0000 
     61 H          15.1381  -14.0890   16.1785 H         1 NDP1411     0.0000 
     62 H          16.7999  -15.1454   18.0452 H         1 NDP1411     0.0000 
     63 H          17.2878  -17.0767   16.8633 H         1 NDP1411     0.0000 
     64 H          14.4010  -17.0115   16.1158 H         1 NDP1411     0.0000 
     65 H          13.7217  -18.7630   15.1976 H         1 NDP1411     0.0000 
     66 H          13.2064  -20.7590   13.0370 H         1 NDP1411     0.0000 
     67 H          12.2335  -22.0606   13.8017 H         1 NDP1411     0.0000 
     68 H          16.2811  -21.5756   13.6928 H         1 NDP1411     0.0000 
     69 H          16.3682  -21.7406   15.4549 H         1 NDP1411     0.0000 
     70 H          18.2131  -20.3595   14.5221 H         1 NDP1411     0.0000 
     71 H          17.8167  -18.0492   15.1312 H         1 NDP1411     0.0000 
     72 H          20.2648   -7.2953   13.4284 H         1 NDP1411     0.0000 
     73 H          14.4803  -16.3741   18.2722 H         1 NDP1411     0.0000 
     74 H          16.5093  -17.9119   18.7872 H         1 NDP1411     0.0000 
@<TRIPOS>BOND
     1    2    1 ar   
     2    3    1 ar   
     3    4    1 1    
     4   23    1 1    
     5    5    4 1    
     6    6    5 1    
     7   49    5 1    
     8   50    5 1    
     9    7    6 1    
    10    8    6 1    
    11   51    6 1    
    12   12    7 1    
    13    9    8 1    
    14   10    8 1    
    15   52    8 1    
    16   72    9 1    
    17   11   10 1    
    18   12   10 1    
    19   53   10 1    
    20   45   11 1    
    21   13   12 1    
    22   54   12 1    
    23   14   13 1    
    24   22   13 1    
    25   15   14 2    
    26   55   14 1    
    27   16   15 1    
    28   17   16 ar   
    29   22   16 ar   
    30   18   17 1    
    31   19   17 ar   
    32   56   18 1    
    33   57   18 1    
    34   20   19 ar   
    35   21   20 ar   
    36   58   20 1    
    37   22   21 ar   
    38   24   23 1    
    39   25   24 ar   
    40   26   24 ar   
    41   27   24 1    
    42   28   27 1    
    43   29   28 1    
    44   59   28 1    
    45   60   28 1    
    46   30   29 1    
    47   31   29 1    
    48   61   29 1    
    49   35   30 1    
    50   32   31 1    
    51   33   31 1    
    52   62   31 1    
    53   73   32 1    
    54   34   33 1    
    55   35   33 1    
    56   63   33 1    
    57   74   34 1    
    58   36   35 1    
    59   64   35 1    
    60   37   36 1    
    61   44   36 1    
    62   38   37 2    
    63   65   37 1    
    64   39   38 1    
    65   42   38 1    
    66   40   39 2    
    67   41   39 am   
    68   66   41 1    
    69   67   41 1    
    70   43   42 1    
    71   68   42 1    
    72   69   42 1    
    73   44   43 2    
    74   70   43 1    
    75   71   44 1    
    76   46   45 ar   
    77   47   45 ar   
    78   48   45 ar   
@<TRIPOS>SUBSTRUCTURE
     1 NDP1411     1 GROUP   
@<TRIPOS>SET

