#    Name: 3hv5_R24_2_INTS_M
#    Modification time : Tue Mar 25 15:07:04 2014

@<TRIPOS>MOLECULE
3hv5_R24_2_INTS_M
   96     0     9     0     0
SMALL
NO_CHARGES


@<TRIPOS>ATOM
      1 CA         15.2035   -0.1395   41.6585 C.3       3 GLC5        0.0000 
      2 CA         16.5680   -0.9970   40.2020 C.3       9 GLL5        0.0000 
      3 CA         13.8390    0.7180   43.1150 C.3       6 GLP5        0.0000 
      4 CA         17.1630    0.4910   42.9575 C.3       3 GLC5        0.0000 
      5 CA         16.2680    1.0790   41.1930 C.3       9 GLL5        0.0000 
      6 CA         18.0580   -0.0970   44.7220 C.3       6 GLP5        0.0000 
      7 CA         18.3370    7.1890   35.8840 C.3       3 GLC5        0.0000 
      8 CA         17.3210    5.6320   36.9700 C.3       9 GLL5        0.0000 
      9 CA         19.3530    8.7460   34.7980 C.3       6 GLP5        0.0000 
     10 CA         18.8005    2.4010   39.5005 C.3       3 GLC5        0.0000 
     11 CA         17.9320    3.4840   37.9490 C.3       9 GLL5        0.0000 
     12 CA         19.6690    1.3180   41.0520 C.3       6 GLP5        0.0000 
     13 CA         19.5390    6.5290   37.2900 C.3       3 GLC5        0.0000 
     14 CA         18.1840    4.8410   37.7480 C.3       9 GLL5        0.0000 
     15 CA         20.8940    8.2170   36.8320 C.3       6 GLP5        0.0000 
     16 O          15.8160    6.6420   34.4740 O.2       1 ALC1        0.0000 
     17 O          15.4600    5.9310   35.5990 O.2       7 ALL1        0.0000 
     18 O          16.1720    7.3530   33.3490 O.2       4 ALP1        0.0000 
     19 N          12.0615    4.7315   36.2070 N.am      2 SEC2        0.0000 
     20 N          13.4110    5.5260   36.4900 N.am      8 SEL2        0.0000 
     21 N          10.7120    3.9370   35.9240 N.am      5 SEP2        0.0000 
     22 O          14.8975    7.1700   34.0865 O.2       1 ALC1        0.0000 
     23 O          13.6230    6.9870   34.8240 O.2       7 ALL1        0.0000 
     24 CA         11.8250    7.5180   37.6235 C.3       3 GLC5        0.0000 
     25 CA         11.4820    7.5510   35.7220 C.3       9 GLL5        0.0000 
     26 CA         12.1680    7.4850   39.5250 C.3       6 GLP5        0.0000 
     27 CA         10.5925    5.9560   36.9075 C.3       3 GLC5        0.0000 
     28 CA          9.7030    4.3610   38.0930 C.3       6 GLP5        0.0000 
     29 CA         11.4625    9.9950   37.0875 C.3       3 GLC5        0.0000 
     30 CA          9.4360    9.8900   36.6860 C.3       9 GLL5        0.0000 
     31 CA         13.4890   10.1000   37.4890 C.3       6 GLP5        0.0000 
     32 CA          9.9830   11.4855   37.7760 C.3       3 GLC5        0.0000 
     33 CA         10.5300   13.0810   38.8660 C.3       6 GLP5        0.0000 
     34 CA          8.9370    9.9330   38.6895 C.3       3 GLC5        0.0000 
     35 CA          8.4380    9.9760   40.6930 C.3       6 GLP5        0.0000 
     36 CA          6.7695    8.4725   37.4215 C.3       3 GLC5        0.0000 
     37 CA          8.5020    7.5720   36.8110 C.3       9 GLL5        0.0000 
     38 CA          5.0370    9.3730   38.0320 C.3       6 GLP5        0.0000 
     39 CA          7.0005    6.4875   37.4970 C.3       3 GLC5        0.0000 
     40 CA          5.4990    5.4030   38.1830 C.3       6 GLP5        0.0000 
     41 CA          9.1025    5.9665   37.4520 C.3       3 GLC5        0.0000 
     42 CA          6.5670    9.2110   36.3920 C.3       3 GLC5        0.0000 
     43 CA          8.0970    9.0490   34.7520 C.3       9 GLL5        0.0000 
     44 CA          7.1525   10.6760   33.8800 C.3       3 GLC5        0.0000 
     45 CA          6.2080   12.3030   33.0080 C.3       6 GLP5        0.0000 
     46 CA         11.8125    5.8190   32.5260 C.3       3 GLC5        0.0000 
     47 CA         12.9010    7.3670   31.6060 C.3       9 GLL5        0.0000 
     48 CA         10.7240    4.2710   33.4460 C.3       6 GLP5        0.0000 
     49 CA         15.2250    9.7630   27.0390 C.3       3 GLC5        0.0000 
     50 CA         14.0330    9.4260   28.4790 C.3       9 GLL5        0.0000 
     51 CA         16.4170   10.1000   25.5990 C.3       6 GLP5        0.0000 
     52 CA         14.2220    9.7170   32.4350 C.3       3 GLC5        0.0000 
     53 CA         12.3970    9.7030   31.9760 C.3       9 GLL5        0.0000 
     54 CA         16.0470    9.7310   32.8940 C.3       6 GLP5        0.0000 
     55 CA         11.2965   11.1300   32.9815 C.3       3 GLC5        0.0000 
     56 CA         10.1960   12.5570   33.9870 C.3       6 GLP5        0.0000 
     57 CA         18.8120   -3.5245   38.5108 C.3       3 GLC5        0.0000 
     58 CA         16.9380   -2.6280   37.9440 C.3       9 GLL5        0.0000 
     59 CA         20.7100   -4.1350   38.4320 C.3       6 GLP5        0.0000 
     60 CA         18.6810   -0.8113   37.9694 C.3       3 GLC5        0.0000 
     61 CA         16.6260   -0.4220   38.9110 C.3       9 GLL5        0.0000 
     62 CA         20.6130   -0.4440   37.5510 C.3       6 GLP5        0.0000 
     63 CA         18.1330    0.3043   40.3042 C.3       3 GLC5        0.0000 
     64 CA         17.9581   -2.1241   41.4526 C.3       3 GLC5        0.0000 
     65 CA         19.2350   -2.3530   42.9060 C.3       6 GLP5        0.0000 
     66 CA         15.0653    1.0542   41.8383 C.3       3 GLC5        0.0000 
     67 CA         16.3150    1.7020   39.9300 C.3       9 GLL5        0.0000 
     68 CA         18.0035    1.2629   40.6604 C.3       3 GLC5        0.0000 
     69 CA         14.5175    1.6534   39.5589 C.3       3 GLC5        0.0000 
     70 CA         12.6970    2.0990   38.8490 C.3       6 GLP5        0.0000 
     71 CA         17.5988    3.8310   35.3792 C.3       3 GLC5        0.0000 
     72 CA         16.8260    2.8950   37.3330 C.3       9 GLL5        0.0000 
     73 CA         18.8030    4.3630   33.8170 C.3       6 GLP5        0.0000 
     74 CA         14.5457    2.6990   37.8952 C.3       3 GLC5        0.0000 
     75 CA         15.9630    3.7030   36.5500 C.3       9 GLL5        0.0000 
     76 CA         15.2900    5.1482   38.1685 C.3       3 GLC5        0.0000 
     77 CA         14.4910    5.9040   39.8850 C.3       6 GLP5        0.0000 
     78 CA         17.7855    4.8600   35.2395 C.3       3 GLC5        0.0000 
     79 CA         16.2150    5.0820   36.3540 C.3       9 GLL5        0.0000 
     80 CA         16.2695    7.3715   36.7315 C.3       3 GLC5        0.0000 
     81 CA         15.7710    9.3860   36.8010 C.3       6 GLP5        0.0000 
     82 CA         16.1217    5.5702   38.6220 C.3       3 GLC5        0.0000 
     83 CA         19.4110    4.1128   36.5892 C.3       3 GLC5        0.0000 
     84 CA         20.7640    4.0630   35.3300 C.3       6 GLP5        0.0000 
     85 CA         17.7271    5.4206   39.2970 C.3       3 GLC5        0.0000 
     86 CA         17.6120    6.4810   40.9400 C.3       6 GLP5        0.0000 
     87 CA         12.7082    8.8080   36.3567 C.3       3 GLC5        0.0000 
     88 CA         12.3730    7.4810   34.7270 C.3       9 GLL5        0.0000 
     89 CA         11.3257    5.8935   34.3353 C.3       3 GLC5        0.0000 
     90 CA          9.4390   10.8549   34.7496 C.3       3 GLC5        0.0000 
     91 CA          9.0980    8.6230   35.8590 C.3       9 GLL5        0.0000 
     92 CA         14.5444    8.7602   32.0387 C.3       3 GLC5        0.0000 
     93 CA         12.4020    8.3810   32.4480 C.3       9 GLL5        0.0000 
     94 CA         14.7931   10.1648   30.8382 C.3       3 GLC5        0.0000 
     95 CA         13.4560    9.0380   29.8910 C.3       9 GLL5        0.0000 
     96 CA         16.2560   10.6990   31.7280 C.3       6 GLP5        0.0000 
@<TRIPOS>BOND
@<TRIPOS>SUBSTRUCTURE
     1 ALC1       16 GROUP        1 X    ALC  0     ROOT ALC X 1
     2 SEC2       19 GROUP        1 X    SEC  0     **** SEC X 2
     3 GLC5        1 GROUP        1 X    GLC  0     **** GLC X 6
     4 ALP1       18 GROUP        1 Y    ALP  0     ROOT ALP Y 8
     5 SEP2       21 GROUP        1 Y    SEP  0     **** SEP Y 9
     6 GLP5        3 GROUP        1 Y    GLP  0     **** GLP Y 13
     7 ALL1       17 GROUP        1 Z    ALL  0     ROOT ALL Z 15
     8 SEL2       20 GROUP        1 Z    SEL  0     **** SEL Z 16
     9 GLL5        2 GROUP        1 Z    GLL  0     **** GLL Z 20
@<TRIPOS>SET

