#    Name: 3hv5_R24_2_ligand
#    Modification time : Tue Mar 25 15:07:04 2014

@<TRIPOS>MOLECULE
3hv5_R24_2_ligand
   70    74     1     0     0
SMALL
NO_CHARGES


@<TRIPOS>ATOM
      1 C1         16.9380   -2.6280   37.9440 C.ar      1 R24361      0.0000 
      2 C2         16.8900   -3.2000   39.2350 C.ar      1 R24361      0.0000 
      3 C3         16.6990   -2.3870   40.3580 C.ar      1 R24361      0.0000 
      4 C4         16.8060   -1.2420   37.7850 C.ar      1 R24361      0.0000 
      5 C5         16.6260   -0.4220   38.9110 C.ar      1 R24361      0.0000 
      6 C6         16.5680   -0.9970   40.2020 C.ar      1 R24361      0.0000 
      7 C8         16.5010    0.9710   38.7590 C.ar      1 R24361      0.0000 
      8 C10        16.3150    1.7020   39.9300 C.ar      1 R24361      0.0000 
      9 C11        16.2680    1.0790   41.1930 C.ar      1 R24361      0.0000 
     10 C12        16.8260    2.8950   37.3330 C.ar      1 R24361      0.0000 
     11 C13        15.9630    3.7030   36.5500 C.ar      1 R24361      0.0000 
     12 C14        16.2150    5.0820   36.3540 C.ar      1 R24361      0.0000 
     13 C15        17.3210    5.6320   36.9700 C.ar      1 R24361      0.0000 
     14 N38        17.1270   -3.4480   36.8930 N.pl3     1 R24361      0.0000 
     15 O40        17.0550   -4.8460   37.1280 O.2       1 R24361      0.0000 
     16 O39        17.4320   -2.9750   35.6050 O.2       1 R24361      0.0000 
     17 N7         16.3810   -0.2370   41.3060 N.pl3     1 R24361      0.0000 
     18 N9         16.5700    1.5700   37.5310 N.pl3     1 R24361      0.0000 
     19 C17        17.9320    3.4840   37.9490 C.ar      1 R24361      0.0000 
     20 C16        18.1840    4.8410   37.7480 C.ar      1 R24361      0.0000 
     21 N18        15.4600    5.9310   35.5990 N.am      1 R24361      0.0000 
     22 C19        14.1300    6.1260   35.6950 C.2       1 R24361      0.0000 
     23 O20        13.4110    5.5260   36.4900 O.2       1 R24361      0.0000 
     24 N21        13.6230    6.9870   34.8240 N.am      1 R24361      0.0000 
     25 C22        12.3730    7.4810   34.7270 C.2       1 R24361      0.0000 
     26 C26        11.4820    7.5510   35.7220 C.2       1 R24361      0.0000 
     27 C25        10.4270    8.2070   35.1910 C.2       1 R24361      0.0000 
     28 C27         9.0980    8.6230   35.8590 C.3       1 R24361      0.0000 
     29 C29         9.4360    9.8900   36.6860 C.3       1 R24361      0.0000 
     30 C30         8.5020    7.5720   36.8110 C.3       1 R24361      0.0000 
     31 C28         8.0970    9.0490   34.7520 C.3       1 R24361      0.0000 
     32 N24        10.7150    8.5520   33.9470 N.2       1 R24361      0.0000 
     33 N23        11.8620    8.1550   33.6660 N.pl3     1 R24361      0.0000 
     34 C31        12.4020    8.3810   32.4480 C.ar      1 R24361      0.0000 
     35 C32        12.9010    7.3670   31.6060 C.ar      1 R24361      0.0000 
     36 C33        13.4320    7.7050   30.3400 C.ar      1 R24361      0.0000 
     37 C34        13.4560    9.0380   29.8910 C.ar      1 R24361      0.0000 
     38 C37        14.0330    9.4260   28.4790 C.3       1 R24361      0.0000 
     39 C35        12.9160   10.0290   30.7120 C.ar      1 R24361      0.0000 
     40 C36        12.3970    9.7030   31.9760 C.ar      1 R24361      0.0000 
     41 H          16.9959   -4.2131   39.3431 H         1 R24361      0.0000 
     42 H          16.6545   -2.8022   41.2926 H         1 R24361      0.0000 
     43 H          16.8405   -0.8264   36.8503 H         1 R24361      0.0000 
     44 H          16.2076    2.7322   39.8783 H         1 R24361      0.0000 
     45 H          16.1417    1.6924   42.0263 H         1 R24361      0.0000 
     46 H          15.1330    3.2751   36.1138 H         1 R24361      0.0000 
     47 H          17.5274    6.6401   36.8643 H         1 R24361      0.0000 
     48 H          16.3274   -0.6994   42.2419 H         1 R24361      0.0000 
     49 H          16.4127    0.9579   36.6711 H         1 R24361      0.0000 
     50 H          18.5503    2.9258   38.5411 H         1 R24361      0.0000 
     51 H          19.0172    5.2762   38.1759 H         1 R24361      0.0000 
     52 H          15.9906    6.5055   34.8455 H         1 R24361      0.0000 
     53 H          14.3317    7.3641   34.0517 H         1 R24361      0.0000 
     54 H          11.5638    7.2188   36.6021 H         1 R24361      0.0000 
     55 H          12.8801    6.3932   31.9067 H         1 R24361      0.0000 
     56 H          13.8079    6.9586   29.7370 H         1 R24361      0.0000 
     57 H          12.8960   11.0066   30.3929 H         1 R24361      0.0000 
     58 H          12.0039   10.4515   32.5697 H         1 R24361      0.0000 
     59 H          10.1346    9.7066   37.3776 H         1 R24361      0.0000 
     60 H           9.7823   10.6291   36.1083 H         1 R24361      0.0000 
     61 H           8.6340   10.2448   37.1665 H         1 R24361      0.0000 
     62 H           9.1254    7.3555   37.5624 H         1 R24361      0.0000 
     63 H           7.6459    7.8858   37.2216 H         1 R24361      0.0000 
     64 H           8.3030    6.7134   36.3386 H         1 R24361      0.0000 
     65 H           8.4428    9.8182   34.2146 H         1 R24361      0.0000 
     66 H           7.9122    8.3036   34.1115 H         1 R24361      0.0000 
     67 H           7.2174    9.3310   35.1352 H         1 R24361      0.0000 
     68 H          14.9946    9.1675   28.3869 H         1 R24361      0.0000 
     69 H          13.5359    8.9747   27.7379 H         1 R24361      0.0000 
     70 H          13.9769   10.4105   28.3126 H         1 R24361      0.0000 
@<TRIPOS>BOND
     1    2    1 ar   
     2    4    1 ar   
     3   14    1 1    
     4    3    2 ar   
     5   41    2 1    
     6    6    3 ar   
     7   42    3 1    
     8    5    4 ar   
     9   43    4 1    
    10    6    5 ar   
    11    7    5 ar   
    12   17    6 ar   
    13    8    7 ar   
    14   18    7 1    
    15    9    8 ar   
    16   44    8 1    
    17   17    9 ar   
    18   45    9 1    
    19   11   10 ar   
    20   18   10 1    
    21   19   10 ar   
    22   12   11 ar   
    23   46   11 1    
    24   13   12 ar   
    25   21   12 1    
    26   20   13 ar   
    27   47   13 1    
    28   15   14 2    
    29   16   14 2    
    30   48   17 1    
    31   49   18 1    
    32   20   19 ar   
    33   50   19 1    
    34   51   20 1    
    35   22   21 am   
    36   52   21 1    
    37   23   22 2    
    38   24   22 am   
    39   25   24 1    
    40   53   24 1    
    41   26   25 2    
    42   33   25 1    
    43   27   26 1    
    44   54   26 1    
    45   28   27 1    
    46   32   27 2    
    47   29   28 1    
    48   30   28 1    
    49   31   28 1    
    50   59   29 1    
    51   60   29 1    
    52   61   29 1    
    53   62   30 1    
    54   63   30 1    
    55   64   30 1    
    56   65   31 1    
    57   66   31 1    
    58   67   31 1    
    59   33   32 1    
    60   34   33 1    
    61   35   34 ar   
    62   40   34 ar   
    63   36   35 ar   
    64   55   35 1    
    65   37   36 ar   
    66   56   36 1    
    67   38   37 1    
    68   39   37 ar   
    69   68   38 1    
    70   69   38 1    
    71   70   38 1    
    72   40   39 ar   
    73   57   39 1    
    74   58   40 1    
@<TRIPOS>SUBSTRUCTURE
     1 R24361      1 GROUP   
@<TRIPOS>SET

