#    Name: 2zgz_GNP_2_INTS_M
#    Modification time : Tue Mar 25 10:44:22 2014

@<TRIPOS>MOLECULE
2zgz_GNP_2_INTS_M
   60     0    15     0     0
SMALL
NO_CHARGES


@<TRIPOS>ATOM
      1 N          -3.1765   16.5845  -13.1805 N.am      2 SEC2        0.0000 
      2 N          -2.9190   18.0610  -12.5450 N.am     12 SEL2        0.0000 
      3 N          -3.4340   15.1080  -13.8160 N.am      7 SEP2        0.0000 
      4 N          -4.2530   17.4595  -13.4260 N.am      2 SEC2        0.0000 
      5 N          -5.5870   16.8580  -14.3070 N.am      7 SEP2        0.0000 
      6 N          -2.0950   18.6040  -13.4340 N.am      2 SEC2        0.0000 
      7 N          -1.2710   19.1470  -14.3230 N.am      7 SEP2        0.0000 
      8 N          -4.9680   19.4900   -9.8185 N.am      2 SEC2        0.0000 
      9 N          -3.8980   19.3940  -10.8200 N.am     12 SEL2        0.0000 
     10 N          -6.0380   19.5860   -8.8170 N.am      7 SEP2        0.0000 
     11 N          -5.3375   18.8320  -11.1150 N.am      2 SEC2        0.0000 
     12 N          -6.7770   18.2700  -11.4100 N.am      7 SEP2        0.0000 
     13 Zn         -0.8975   19.7015  -10.0600 Zn        4 ZIC7        0.0000 
     14 Zn         -1.6080   19.4580  -11.0280 Zn       14 ZIL7        0.0000 
     15 Zn         -0.1870   19.9450   -9.0920 Zn        9 ZIP7        0.0000 
     16 NZ         -1.3610   18.2975   -6.7050 N.4       3 LYC4        0.0000 
     17 NZ         -1.3610   18.2570   -8.1090 N.4      13 LYL4        0.0000 
     18 NZ         -1.3610   18.3380   -5.3010 N.4       8 LYP4        0.0000 
     19 Zn         -0.7740   19.1010   -8.6005 Zn        4 ZIC7        0.0000 
     20 Zn         -1.3610   18.2570   -8.1090 Zn       14 ZIL7        0.0000 
     21 NZ         -2.4575   17.8410   -6.5050 N.4       3 LYC4        0.0000 
     22 NZ         -3.5540   17.3440   -7.7090 N.4      13 LYL4        0.0000 
     23 N          -4.9425   17.1330   -7.9710 N.am      2 SEC2        0.0000 
     24 N          -3.5540   17.3440   -7.7090 N.am     12 SEL2        0.0000 
     25 N          -6.3310   16.9220   -8.2330 N.am      7 SEP2        0.0000 
     26 N          -4.4570   16.7785   -6.6900 N.am      2 SEC2        0.0000 
     27 N          -5.3600   16.2130   -5.6710 N.am      7 SEP2        0.0000 
     28 NZ         -0.7495   17.1795   -5.7820 N.4       3 LYC4        0.0000 
     29 NZ         -0.1380   16.0210   -6.2630 N.4      13 LYL4        0.0000 
     30 N          -0.7495   17.1795   -5.7820 N.am      2 SEC2        0.0000 
     31 N          -0.1380   16.0210   -6.2630 N.am     12 SEL2        0.0000 
     32 N          -1.3610   18.3380   -5.3010 N.am      7 SEP2        0.0000 
     33 N           2.0960   15.2610   -8.4120 N.am      2 SEC2        0.0000 
     34 N           0.7760   15.8640   -8.6550 N.am     12 SEL2        0.0000 
     35 N           3.4160   14.6580   -8.1690 N.am      7 SEP2        0.0000 
     36 CA         -0.0025   14.5445  -10.3655 C.3       5 GLC5        0.0000 
     37 CA         -0.5380   13.1420   -8.7920 C.3      15 GLL5        0.0000 
     38 CA          0.5330   15.9470  -11.9390 C.3      10 GLP5        0.0000 
     39 CA          0.2925   12.0855  -10.4265 C.3       5 GLC5        0.0000 
     40 CA          1.1230   11.0290  -12.0610 C.3      10 GLP5        0.0000 
     41 CA         -0.5545   11.0220  -10.3705 C.3       5 GLC5        0.0000 
     42 CA         -0.8580   11.6470   -8.5170 C.3      15 GLL5        0.0000 
     43 CA         -0.2510   10.3970  -12.2240 C.3      10 GLP5        0.0000 
     44 CA         -3.5365   12.3490   -7.5010 C.3       5 GLC5        0.0000 
     45 CA         -1.8460   11.3930   -7.3560 C.3      15 GLL5        0.0000 
     46 CA         -5.2270   13.3050   -7.6460 C.3      10 GLP5        0.0000 
     47 CA          1.7065   11.7595   -7.3550 C.3       5 GLC5        0.0000 
     48 CA          0.1850   10.2400   -6.9450 C.3      15 GLL5        0.0000 
     49 CA          3.2280   13.2790   -7.7650 C.3      10 GLP5        0.0000 
     50 O           5.9690    7.2030   -6.7710 O.2       1 ALC1        0.0000 
     51 O           4.7750    7.9460   -6.7040 O.2      11 ALL1        0.0000 
     52 O           7.1630    6.4600   -6.8380 O.2       6 ALP1        0.0000 
     53 O           5.4405    6.0845   -8.6290 O.2       1 ALC1        0.0000 
     54 O           3.8650    6.7400   -8.4910 O.2      11 ALL1        0.0000 
     55 O           7.0160    5.4290   -8.7670 O.2       6 ALP1        0.0000 
     56 CA         -1.6745   13.1578  -10.2528 C.3       5 GLC5        0.0000 
     57 CA         -2.6510   13.9210  -11.8510 C.3      10 GLP5        0.0000 
     58 CA          1.2650   12.8368   -8.2097 C.3       5 GLC5        0.0000 
     59 CA          3.1318   11.3938   -6.9123 C.3       5 GLC5        0.0000 
     60 CA          2.5270    9.3570   -6.5080 C.3      15 GLL5        0.0000 
@<TRIPOS>BOND
@<TRIPOS>SUBSTRUCTURE
     1 ALC1       50 GROUP        1 X    ALC  0     ROOT ALC X 1
     2 SEC2        1 GROUP        1 X    SEC  0     **** SEC X 2
     3 LYC4       16 GROUP        1 X    LYC  0     **** LYC X 4
     4 ZIC7       13 GROUP        1 X    ZIC  0     **** ZIC X 5
     5 GLC5       36 GROUP        1 X    GLC  0     **** GLC X 6
     6 ALP1       52 GROUP        1 Y    ALP  0     ROOT ALP Y 8
     7 SEP2        3 GROUP        1 Y    SEP  0     **** SEP Y 9
     8 LYP4       18 GROUP        1 Y    LYP  0     **** LYP Y 11
     9 ZIP7       15 GROUP        1 Y    ZIP  0     **** ZIP Y 12
    10 GLP5       38 GROUP        1 Y    GLP  0     **** GLP Y 13
    11 ALL1       51 GROUP        1 Z    ALL  0     ROOT ALL Z 15
    12 SEL2        2 GROUP        1 Z    SEL  0     **** SEL Z 16
    13 LYL4       17 GROUP        1 Z    LYL  0     **** LYL Z 18
    14 ZIL7       14 GROUP        1 Z    ZIL  0     **** ZIL Z 19
    15 GLL5       37 GROUP        1 Z    GLL  0     **** GLL Z 20
@<TRIPOS>SET

