#    Name: 2zgz_GNP_2_ligand
#    Modification time : Tue Mar 25 10:44:22 2014

@<TRIPOS>MOLECULE
2zgz_GNP_2_ligand
   44    46     1     0     0
SMALL
NO_CHARGES


@<TRIPOS>ATOM
      1 PG         -2.8120   18.5030  -11.1400 P.3       1 GNP323      0.0000 
      2 O1G        -2.9190   18.0610  -12.5450 O.co2     1 GNP323      0.0000 
      3 O2G        -3.8980   19.3940  -10.8200 O.co2     1 GNP323      0.0000 
      4 O3G        -1.6080   19.4580  -11.0280 O.co2     1 GNP323      0.0000 
      5 N3B        -2.5700   17.2360  -10.1630 N.4       1 GNP323      0.0000 
      6 PB         -2.3650   17.2980   -8.5460 P.3       1 GNP323      0.0000 
      7 O1B        -1.3610   18.2570   -8.1090 O.co2     1 GNP323      0.0000 
      8 O2B        -3.5540   17.3440   -7.7090 O.co2     1 GNP323      0.0000 
      9 O3A        -1.7550   15.8620   -8.2190 O.3       1 GNP323      0.0000 
     10 PA         -0.2730   15.5140   -7.6690 P.3       1 GNP323      0.0000 
     11 O1A        -0.1380   16.0210   -6.2630 O.co2     1 GNP323      0.0000 
     12 O2A         0.7760   15.8640   -8.6550 O.co2     1 GNP323      0.0000 
     13 O5'        -0.3950   13.9180   -7.5720 O.3       1 GNP323      0.0000 
     14 C5'        -0.5380   13.1420   -8.7920 C.3       1 GNP323      0.0000 
     15 C4'        -0.8580   11.6470   -8.5170 C.3       1 GNP323      0.0000 
     16 O4'         0.3630   10.9370   -8.1820 O.3       1 GNP323      0.0000 
     17 C3'        -1.8460   11.3930   -7.3560 C.3       1 GNP323      0.0000 
     18 O3'        -2.8310   10.3900   -7.6790 O.3       1 GNP323      0.0000 
     19 C2'        -0.9210   11.0020   -6.2180 C.3       1 GNP323      0.0000 
     20 O2'        -1.4970   10.1060   -5.2840 O.3       1 GNP323      0.0000 
     21 C1'         0.1850   10.2400   -6.9450 C.3       1 GNP323      0.0000 
     22 N9          1.4810   10.2140   -6.2170 N.pl3     1 GNP323      0.0000 
     23 C8          1.9340   10.9810   -5.1540 C.2       1 GNP323      0.0000 
     24 N7          3.1330   10.7070   -4.7530 N.2       1 GNP323      0.0000 
     25 C5          3.5440    9.6600   -5.6110 C.2       1 GNP323      0.0000 
     26 C6          4.7940    8.9020   -5.6900 C.2       1 GNP323      0.0000 
     27 O6          5.8130    9.0060   -4.9990 O.2       1 GNP323      0.0000 
     28 N1          4.7750    7.9460   -6.7040 N.am      1 GNP323      0.0000 
     29 C2          3.7110    7.7000   -7.5680 C.2       1 GNP323      0.0000 
     30 N2          3.8650    6.7400   -8.4910 N.pl3     1 GNP323      0.0000 
     31 N3          2.5480    8.3970   -7.5010 N.2       1 GNP323      0.0000 
     32 C4          2.5270    9.3570   -6.5080 C.2       1 GNP323      0.0000 
     33 H           0.3844   13.1732   -9.3958 H         1 GNP323      0.0000 
     34 H          -1.3492   13.5389   -9.4252 H         1 GNP323      0.0000 
     35 H          -1.2863   11.2163   -9.4174 H         1 GNP323      0.0000 
     36 H          -2.2803   12.3480   -7.1102 H         1 GNP323      0.0000 
     37 H          -0.4910   11.8626   -5.7978 H         1 GNP323      0.0000 
     38 H          -0.1628    9.2421   -7.1342 H         1 GNP323      0.0000 
     39 H           1.3338   11.6921   -4.7538 H         1 GNP323      0.0000 
     40 H           5.6526    7.3508   -6.8288 H         1 GNP323      0.0000 
     41 H           4.7267    6.2335   -8.4596 H         1 GNP323      0.0000 
     42 H           3.1044    6.6163   -9.1283 H         1 GNP323      0.0000 
     43 H          -2.3277    9.6843   -8.1777 H         1 GNP323      0.0000 
     44 H          -2.3743    9.8427   -5.6853 H         1 GNP323      0.0000 
@<TRIPOS>BOND
     1    2    1 ar   
     2    3    1 ar   
     3    4    1 ar   
     4    5    1 1    
     5    6    5 1    
     6    7    6 ar   
     7    8    6 ar   
     8    9    6 1    
     9   10    9 1    
    10   11   10 ar   
    11   12   10 ar   
    12   13   10 1    
    13   14   13 1    
    14   15   14 1    
    15   33   14 1    
    16   34   14 1    
    17   16   15 1    
    18   17   15 1    
    19   35   15 1    
    20   21   16 1    
    21   18   17 1    
    22   19   17 1    
    23   36   17 1    
    24   43   18 1    
    25   20   19 1    
    26   21   19 1    
    27   37   19 1    
    28   44   20 1    
    29   22   21 1    
    30   38   21 1    
    31   23   22 1    
    32   32   22 1    
    33   24   23 2    
    34   39   23 1    
    35   25   24 1    
    36   26   25 1    
    37   32   25 2    
    38   27   26 2    
    39   28   26 am   
    40   29   28 1    
    41   40   28 1    
    42   30   29 1    
    43   31   29 2    
    44   41   30 1    
    45   42   30 1    
    46   32   31 1    
@<TRIPOS>SUBSTRUCTURE
     1 GNP323      1 GROUP   
@<TRIPOS>SET

