#    Name: 2c6e_HPM_1_INTS_M
#    Modification time : Mon Mar 24 22:42:30 2014

@<TRIPOS>MOLECULE
2c6e_HPM_1_INTS_M
   86     0     6     0     0
SMALL
NO_CHARGES


@<TRIPOS>ATOM
      1 CA         22.4315   88.1265   76.2020 C.3       2 GLC5        0.0000 
      2 CA         21.7030   86.2170   75.3010 C.3       6 GLL5        0.0000 
      3 CA         23.1600   90.0360   77.1030 C.3       4 GLP5        0.0000 
      4 CA         20.3985   86.2270   73.5565 C.3       2 GLC5        0.0000 
      5 CA         22.2940   87.2270   73.0660 C.3       6 GLL5        0.0000 
      6 CA         18.5030   85.2270   74.0470 C.3       4 GLP5        0.0000 
      7 CA         20.7765   88.1150   70.2965 C.3       2 GLC5        0.0000 
      8 CA         22.8810   88.1970   70.8700 C.3       6 GLL5        0.0000 
      9 CA         18.6720   88.0330   69.7230 C.3       4 GLP5        0.0000 
     10 N          20.6380   91.3585   74.2575 N.am      1 SEC2        0.0000 
     11 N          21.6340   90.8720   73.1620 N.am      5 SEL2        0.0000 
     12 N          19.6420   91.8450   75.3530 N.am      3 SEP2        0.0000 
     13 CA         23.2710   92.9600   72.9630 C.3       2 GLC5        0.0000 
     14 CA         21.7330   91.9110   72.3470 C.3       6 GLL5        0.0000 
     15 CA         24.8090   94.0090   73.5790 C.3       4 GLP5        0.0000 
     16 CA         20.5820   93.1675   71.1445 C.3       2 GLC5        0.0000 
     17 CA         19.4310   94.4240   69.9420 C.3       4 GLP5        0.0000 
     18 CA         21.3625   92.8610   74.0820 C.3       2 GLC5        0.0000 
     19 CA         20.9920   93.8110   75.8170 C.3       4 GLP5        0.0000 
     20 CA         19.9115   91.1980   73.1935 C.3       2 GLC5        0.0000 
     21 CA         18.0900   90.4850   74.0400 C.3       4 GLP5        0.0000 
     22 CA         20.3440   91.2050   71.1910 C.3       2 GLC5        0.0000 
     23 CA         18.9550   90.4990   70.0350 C.3       4 GLP5        0.0000 
     24 CA         24.7460   91.1685   70.5435 C.3       2 GLC5        0.0000 
     25 CA         22.5600   90.6930   70.5390 C.3       6 GLL5        0.0000 
     26 CA         26.9320   91.6440   70.5480 C.3       4 GLP5        0.0000 
     27 CA         25.8170   91.4645   67.7285 C.3       2 GLC5        0.0000 
     28 CA         24.0610   91.9230   67.2460 C.3       6 GLL5        0.0000 
     29 CA         27.5730   91.0060   68.2110 C.3       4 GLP5        0.0000 
     30 CA         25.7460   92.9070   66.5665 C.3       2 GLC5        0.0000 
     31 CA         27.4310   93.8910   65.8870 C.3       4 GLP5        0.0000 
     32 N          25.1675   92.6550   65.3410 N.am      1 SEC2        0.0000 
     33 N          24.0420   92.9330   66.3670 N.am      5 SEL2        0.0000 
     34 N          26.2930   92.3770   64.3150 N.am      3 SEP2        0.0000 
     35 CA         25.2115   93.8370   66.1405 C.3       2 GLC5        0.0000 
     36 CA         22.9920   93.7830   66.3940 C.3       6 GLL5        0.0000 
     37 CA         23.6865   94.7150   67.7555 C.3       2 GLC5        0.0000 
     38 CA         24.3810   95.6470   69.1170 C.3       4 GLP5        0.0000 
     39 CA         20.6835   93.5740   69.0195 C.3       2 GLC5        0.0000 
     40 CA         21.9360   92.7240   68.0970 C.3       6 GLL5        0.0000 
     41 CA         20.4455   91.6115   69.0660 C.3       2 GLC5        0.0000 
     42 CA         20.1070   92.5155   67.2080 C.3       2 GLC5        0.0000 
     43 CA         18.2780   92.3070   66.3190 C.3       4 GLP5        0.0000 
     44 CA         22.6410   97.5285   66.4910 C.3       2 GLC5        0.0000 
     45 CA         22.4050   97.4700   64.4110 C.3       6 GLL5        0.0000 
     46 CA         22.8770   97.5870   68.5710 C.3       4 GLP5        0.0000 
     47 CA         20.4615   99.4885   64.1145 C.3       2 GLC5        0.0000 
     48 CA         22.1220   98.7420   63.8600 C.3       6 GLL5        0.0000 
     49 CA         18.8010  100.2350   64.3690 C.3       4 GLP5        0.0000 
     50 CA         22.3175  100.5005   64.9040 C.3       2 GLC5        0.0000 
     51 CA         22.5130  102.2590   65.9480 C.3       4 GLP5        0.0000 
     52 CA         21.0455  100.2490   63.0855 C.3       2 GLC5        0.0000 
     53 CA         22.7760   99.1530   62.6760 C.3       6 GLL5        0.0000 
     54 CA         19.3150  101.3450   63.4950 C.3       4 GLP5        0.0000 
     55 CA         25.7415   98.5735   61.2405 C.3       2 GLC5        0.0000 
     56 CA         23.7100   98.3030   62.0420 C.3       6 GLL5        0.0000 
     57 CA         27.7730   98.8440   60.4390 C.3       4 GLP5        0.0000 
     58 N          25.4120   93.4125   64.0695 N.am      1 SEC2        0.0000 
     59 N          24.5310   94.4480   63.8240 N.am      5 SEL2        0.0000 
     60 CA         20.9745   84.8860   69.6600 C.3       2 GLC5        0.0000 
     61 CA         22.6790   85.3750   69.9510 C.3       6 GLL5        0.0000 
     62 CA         19.2700   84.3970   69.3690 C.3       4 GLP5        0.0000 
     63 CA         20.2000   85.4043   74.8642 C.3       2 GLC5        0.0000 
     64 CA         24.7001   87.7583   72.2493 C.3       2 GLC5        0.0000 
     65 CA         26.6910   87.8430   72.8650 C.3       4 GLP5        0.0000 
     66 CA         20.0240   89.7843   73.5780 C.3       2 GLC5        0.0000 
     67 CA         22.0050   89.6510   72.6950 C.3       6 GLL5        0.0000 
     68 CA         23.9271   89.4287   73.4226 C.3       2 GLC5        0.0000 
     69 CA         21.9110   88.5160   73.5370 C.3       6 GLL5        0.0000 
     70 CA         25.7710   89.8160   74.0750 C.3       4 GLP5        0.0000 
     71 CA         20.6814   90.3145   70.6531 C.3       2 GLC5        0.0000 
     72 CA         23.5573   93.9645   68.5110 C.3       2 GLC5        0.0000 
     73 CA         23.0010   91.7570   68.1800 C.3       6 GLL5        0.0000 
     74 CA         24.7767   97.6683   64.5242 C.3       2 GLC5        0.0000 
     75 CA         23.3520   96.5850   63.7860 C.3       6 GLL5        0.0000 
     76 CA         26.6750   98.3090   64.9500 C.3       4 GLP5        0.0000 
     77 CA         20.9851   96.9019   63.1751 C.3       2 GLC5        0.0000 
     78 CA         19.4700   95.9190   62.3710 C.3       4 GLP5        0.0000 
     79 CA         22.3750   98.9835   60.6295 C.3       2 GLC5        0.0000 
     80 CA         21.5070   99.2390   58.9000 C.3       4 GLP5        0.0000 
     81 CA         24.3415  100.4350   62.3995 C.3       2 GLC5        0.0000 
     82 CA         25.4400  102.1420   62.4400 C.3       4 GLP5        0.0000 
     83 CA         25.2645   97.9890   63.6328 C.3       2 GLC5        0.0000 
     84 CA         23.3105   96.8135   60.4743 C.3       2 GLC5        0.0000 
     85 CA         23.9980   97.0350   62.5890 C.3       6 GLL5        0.0000 
     86 CA         22.7670   95.9580   58.6330 C.3       4 GLP5        0.0000 
@<TRIPOS>BOND
@<TRIPOS>SUBSTRUCTURE
     1 SEC2       10 GROUP        1 X    SEC  0     ROOT SEC X 2
     2 GLC5        1 GROUP        1 X    GLC  0     **** GLC X 6
     3 SEP2       12 GROUP        1 Y    SEP  0     ROOT SEP Y 9
     4 GLP5        3 GROUP        1 Y    GLP  0     **** GLP Y 13
     5 SEL2       11 GROUP        1 Z    SEL  0     ROOT SEL Z 16
     6 GLL5        2 GROUP        1 Z    GLL  0     **** GLL Z 20
@<TRIPOS>SET

