#    Name: 2c6e_HPM_1_ligand
#    Modification time : Mon Mar 24 22:42:30 2014

@<TRIPOS>MOLECULE
2c6e_HPM_1_ligand
   71    75     1     0     0
SMALL
NO_CHARGES


@<TRIPOS>ATOM
      1 C1         21.3640   83.8490   79.7510 C.3       1 HPM1389     0.0000 
      2 C2         21.2040   82.4820   80.4880 C.3       1 HPM1389     0.0000 
      3 C3         20.0890   81.5940   79.8480 C.3       1 HPM1389     0.0000 
      4 C4         20.1710   81.5300   78.2860 C.3       1 HPM1389     0.0000 
      5 C5         20.4030   82.9310   77.6370 C.3       1 HPM1389     0.0000 
      6 N6         21.5620   83.6780   78.2680 N.4       1 HPM1389     0.0000 
      7 C7         21.8440   85.0070   77.5900 C.3       1 HPM1389     0.0000 
      8 C8         22.0910   84.9460   76.0620 C.3       1 HPM1389     0.0000 
      9 C9         21.7030   86.2170   75.3010 C.3       1 HPM1389     0.0000 
     10 O10        22.1860   86.1270   73.9300 O.3       1 HPM1389     0.0000 
     11 C11        22.2940   87.2270   73.0660 C.ar      1 HPM1389     0.0000 
     12 C12        22.7810   87.0730   71.7280 C.ar      1 HPM1389     0.0000 
     13 C13        22.8810   88.1970   70.8700 C.ar      1 HPM1389     0.0000 
     14 C14        22.5060   89.4830   71.3120 C.ar      1 HPM1389     0.0000 
     15 C15        22.0050   89.6510   72.6950 C.ar      1 HPM1389     0.0000 
     16 C16        21.9110   88.5160   73.5370 C.ar      1 HPM1389     0.0000 
     17 N17        21.6340   90.8720   73.1620 N.ar      1 HPM1389     0.0000 
     18 C18        21.7330   91.9110   72.3470 C.ar      1 HPM1389     0.0000 
     19 N19        22.1690   91.8770   71.0880 N.ar      1 HPM1389     0.0000 
     20 C20        22.5600   90.6930   70.5390 C.ar      1 HPM1389     0.0000 
     21 N21        23.0250   90.7040   69.1480 N.pl3     1 HPM1389     0.0000 
     22 C22        23.0010   91.7570   68.1800 C.ar      1 HPM1389     0.0000 
     23 C23        24.0610   91.9230   67.2460 C.ar      1 HPM1389     0.0000 
     24 N24        24.0420   92.9330   66.3670 N.ar      1 HPM1389     0.0000 
     25 C25        22.9920   93.7830   66.3940 C.ar      1 HPM1389     0.0000 
     26 N26        21.9550   93.7080   67.2140 N.ar      1 HPM1389     0.0000 
     27 C27        21.9360   92.7240   68.0970 C.ar      1 HPM1389     0.0000 
     28 N28        23.0430   94.8760   65.4670 N.am      1 HPM1389     0.0000 
     29 C29        23.6960   95.2140   64.3460 C.2       1 HPM1389     0.0000 
     30 C30        23.3520   96.5850   63.7860 C.ar      1 HPM1389     0.0000 
     31 C31        22.4050   97.4700   64.4110 C.ar      1 HPM1389     0.0000 
     32 C32        22.1220   98.7420   63.8600 C.ar      1 HPM1389     0.0000 
     33 C33        22.7760   99.1530   62.6760 C.ar      1 HPM1389     0.0000 
     34 C34        23.7100   98.3030   62.0420 C.ar      1 HPM1389     0.0000 
     35 C35        23.9980   97.0350   62.5890 C.ar      1 HPM1389     0.0000 
     36 O36        24.5310   94.4480   63.8240 O.2       1 HPM1389     0.0000 
     37 O37        23.1700   85.8270   71.2400 O.3       1 HPM1389     0.0000 
     38 C38        22.6790   85.3750   69.9510 C.3       1 HPM1389     0.0000 
     39 O39        23.4660   84.6770   75.8200 O.3       1 HPM1389     0.0000 
     40 H          22.2208   84.3699   80.1883 H         1 HPM1389     0.0000 
     41 H          20.4671   84.4443   79.9455 H         1 HPM1389     0.0000 
     42 H          20.9489   82.6705   81.5278 H         1 HPM1389     0.0000 
     43 H          22.1485   81.9456   80.4437 H         1 HPM1389     0.0000 
     44 H          19.1143   81.9953   80.1307 H         1 HPM1389     0.0000 
     45 H          20.1755   80.5808   80.2444 H         1 HPM1389     0.0000 
     46 H          19.2397   81.1144   77.9038 H         1 HPM1389     0.0000 
     47 H          20.9920   80.8715   78.0058 H         1 HPM1389     0.0000 
     48 H          19.4828   83.5122   77.7447 H         1 HPM1389     0.0000 
     49 H          20.5917   82.7843   76.5698 H         1 HPM1389     0.0000 
     50 H          22.4703   83.0450   78.1324 H         1 HPM1389     0.0000 
     51 H          22.7303   85.4780   78.0629 H         1 HPM1389     0.0000 
     52 H          20.9960   85.6985   77.7738 H         1 HPM1389     0.0000 
     53 H          21.4823   84.1234   75.6664 H         1 HPM1389     0.0000 
     54 H          22.1425   87.0708   75.8186 H         1 HPM1389     0.0000 
     55 H          20.6168   86.3130   75.3308 H         1 HPM1389     0.0000 
     56 H          23.2320   88.0700   69.9129 H         1 HPM1389     0.0000 
     57 H          21.5648   88.6190   74.4945 H         1 HPM1389     0.0000 
     58 H          21.4320   92.8818   72.7373 H         1 HPM1389     0.0000 
     59 H          23.4497   89.7650   68.8142 H         1 HPM1389     0.0000 
     60 H          24.8373   91.2374   67.2757 H         1 HPM1389     0.0000 
     61 H          21.1501   92.6005   68.7752 H         1 HPM1389     0.0000 
     62 H          22.2887   95.6956   65.8095 H         1 HPM1389     0.0000 
     63 H          21.9343   97.1649   65.2672 H         1 HPM1389     0.0000 
     64 H          21.4506   99.3579   64.3143 H         1 HPM1389     0.0000 
     65 H          22.5714  100.0727   62.2754 H         1 HPM1389     0.0000 
     66 H          24.1771   98.6083   61.1858 H         1 HPM1389     0.0000 
     67 H          24.6775   96.4199   62.1308 H         1 HPM1389     0.0000 
     68 H          22.9491   85.9934   69.2130 H         1 HPM1389     0.0000 
     69 H          23.0302   84.4684   69.7169 H         1 HPM1389     0.0000 
     70 H          21.6809   85.3162   69.9336 H         1 HPM1389     0.0000 
     71 H          23.6504   85.0648   74.9169 H         1 HPM1389     0.0000 
@<TRIPOS>BOND
     1    2    1 1    
     2    6    1 1    
     3   40    1 1    
     4   41    1 1    
     5    3    2 1    
     6   42    2 1    
     7   43    2 1    
     8    4    3 1    
     9   44    3 1    
    10   45    3 1    
    11    5    4 1    
    12   46    4 1    
    13   47    4 1    
    14    6    5 1    
    15   48    5 1    
    16   49    5 1    
    17    7    6 1    
    18   50    6 1    
    19    8    7 1    
    20   51    7 1    
    21   52    7 1    
    22    9    8 1    
    23   39    8 1    
    24   53    8 1    
    25   10    9 1    
    26   54    9 1    
    27   55    9 1    
    28   11   10 1    
    29   12   11 ar   
    30   16   11 ar   
    31   13   12 ar   
    32   37   12 1    
    33   14   13 ar   
    34   56   13 1    
    35   15   14 ar   
    36   20   14 ar   
    37   16   15 ar   
    38   17   15 ar   
    39   57   16 1    
    40   18   17 ar   
    41   19   18 ar   
    42   58   18 1    
    43   20   19 ar   
    44   21   20 1    
    45   22   21 1    
    46   59   21 1    
    47   23   22 ar   
    48   27   22 ar   
    49   24   23 ar   
    50   60   23 1    
    51   25   24 ar   
    52   26   25 ar   
    53   28   25 1    
    54   27   26 ar   
    55   61   27 1    
    56   29   28 am   
    57   62   28 1    
    58   30   29 1    
    59   36   29 2    
    60   31   30 ar   
    61   35   30 ar   
    62   32   31 ar   
    63   63   31 1    
    64   33   32 ar   
    65   64   32 1    
    66   34   33 ar   
    67   65   33 1    
    68   35   34 ar   
    69   66   34 1    
    70   67   35 1    
    71   38   37 1    
    72   68   38 1    
    73   69   38 1    
    74   70   38 1    
    75   71   39 1    
@<TRIPOS>SUBSTRUCTURE
     1 HPM1389     1 GROUP   
@<TRIPOS>SET

