#    Name: 1o79_R23_3_INTS_M
#    Modification time : Mon Mar 24 19:46:07 2014

@<TRIPOS>MOLECULE
1o79_R23_3_INTS_M
   74     0     3     0     0
SMALL
NO_CHARGES


@<TRIPOS>ATOM
      1 CA        104.2585   32.5855   57.7450 C.3       1 GLC5        0.0000 
      2 CA        104.6440   31.5950   59.3940 C.3       3 GLL5        0.0000 
      3 CA        103.8730   33.5760   56.0960 C.3       2 GLP5        0.0000 
      4 CA        103.3915   33.0245   62.0195 C.3       1 GLC5        0.0000 
      5 CA        103.3230   30.9320   61.4810 C.3       3 GLL5        0.0000 
      6 CA        103.4600   35.1170   62.5580 C.3       2 GLP5        0.0000 
      7 CA        102.9280   28.8980   61.7835 C.3       1 GLC5        0.0000 
      8 CA        102.5330   26.8640   62.0860 C.3       2 GLP5        0.0000 
      9 CA        101.3285   31.9110   61.7320 C.3       1 GLC5        0.0000 
     10 CA         99.3340   32.8900   61.9830 C.3       2 GLP5        0.0000 
     11 CA        102.4890   28.9255   59.5040 C.3       1 GLC5        0.0000 
     12 CA        103.6110   30.5660   59.9920 C.3       3 GLL5        0.0000 
     13 CA        101.3670   27.2850   59.0160 C.3       2 GLP5        0.0000 
     14 CA        104.9575   33.2355   63.7145 C.3       1 GLC5        0.0000 
     15 CA        104.4230   31.5830   63.5880 C.3       3 GLL5        0.0000 
     16 CA        105.4920   34.8880   63.8410 C.3       2 GLP5        0.0000 
     17 CA        104.5380   29.6505   69.9070 C.3       1 GLC5        0.0000 
     18 CA        102.9670   28.8210   69.5070 C.3       3 GLL5        0.0000 
     19 CA        106.1090   30.4800   70.3070 C.3       2 GLP5        0.0000 
     20 CA        104.2705   29.0760   71.2125 C.3       1 GLC5        0.0000 
     21 CA        102.7390   27.7770   70.6300 C.3       3 GLL5        0.0000 
     22 CA        105.8020   30.3750   71.7950 C.3       2 GLP5        0.0000 
     23 CA        103.1415   28.2090   72.4930 C.3       1 GLC5        0.0000 
     24 CA        103.5440   28.6410   74.3560 C.3       2 GLP5        0.0000 
     25 CA        102.2900   27.1220   72.5005 C.3       1 GLC5        0.0000 
     26 CA        101.3670   27.0530   70.4840 C.3       3 GLL5        0.0000 
     27 CA        103.2130   27.1910   74.5170 C.3       2 GLP5        0.0000 
     28 CA         99.5055   27.6680   70.1595 C.3       1 GLC5        0.0000 
     29 CA         97.6440   28.2830   69.8350 C.3       2 GLP5        0.0000 
     30 CA        100.0880   26.7495   66.4575 C.3       1 GLC5        0.0000 
     31 CA        101.4470   27.4190   67.9310 C.3       3 GLL5        0.0000 
     32 CA         98.7290   26.0800   64.9840 C.3       2 GLP5        0.0000 
     33 CA        102.9935   25.1410   73.7710 C.3       1 GLC5        0.0000 
     34 CA        102.7740   23.0910   73.0250 C.3       3 GLL5        0.0000 
     35 CA        106.6185   21.9915   73.1060 C.3       1 GLC5        0.0000 
     36 CA        104.8430   22.2480   74.0790 C.3       3 GLL5        0.0000 
     37 CA        108.3940   21.7350   72.1330 C.3       2 GLP5        0.0000 
     38 CA        106.3635   22.7525   75.2185 C.3       1 GLC5        0.0000 
     39 CA        107.8840   23.2570   76.3580 C.3       2 GLP5        0.0000 
     40 CA        104.1020   25.0295   74.6560 C.3       1 GLC5        0.0000 
     41 CA        103.9370   23.3150   73.8220 C.3       3 GLL5        0.0000 
     42 CA        104.2670   26.7440   75.4900 C.3       2 GLP5        0.0000 
     43 CA         98.7650   27.7755   73.5790 C.3       1 GLC5        0.0000 
     44 CA         99.9210   26.2610   72.4540 C.3       3 GLL5        0.0000 
     45 CA         97.6090   29.2900   74.7040 C.3       2 GLP5        0.0000 
     46 CA        101.5670   26.7260   73.4855 C.3       1 GLC5        0.0000 
     47 CA         99.1645   24.2300   72.5245 C.3       1 GLC5        0.0000 
     48 CA         98.4080   22.1990   72.5950 C.3       2 GLP5        0.0000 
     49 CA         98.4840   27.2865   71.7735 C.3       1 GLC5        0.0000 
     50 CA         97.0470   28.3120   71.0930 C.3       2 GLP5        0.0000 
     51 CA        104.2485   20.3715   75.3750 C.3       1 GLC5        0.0000 
     52 CA        105.6820   19.6260   73.8660 C.3       3 GLL5        0.0000 
     53 CA        102.8150   21.1170   76.8840 C.3       2 GLP5        0.0000 
     54 CA        105.6125   18.7550   75.7340 C.3       1 GLC5        0.0000 
     55 CA        105.5430   17.8840   77.6020 C.3       2 GLP5        0.0000 
     56 CA        106.1003   31.1288   58.4232 C.3       1 GLC5        0.0000 
     57 CA        105.6470   32.1460   60.4850 C.3       3 GLL5        0.0000 
     58 CA        107.0550   30.3870   56.9070 C.3       2 GLP5        0.0000 
     59 CA        105.3022   33.3405   61.8347 C.3       1 GLC5        0.0000 
     60 CA        104.8470   35.0690   62.6230 C.3       2 GLP5        0.0000 
     61 CA        102.8337   32.2692   67.5948 C.3       1 GLC5        0.0000 
     62 CA        102.9130   31.1260   65.6220 C.3       3 GLL5        0.0000 
     63 CA        102.9570   33.8240   69.0160 C.3       2 GLP5        0.0000 
     64 CA        100.7202   30.6998   65.6472 C.3       1 GLC5        0.0000 
     65 CA        102.5080   30.3030   66.7250 C.3       3 GLL5        0.0000 
     66 CA         98.7300   30.6850   65.1210 C.3       2 GLP5        0.0000 
     67 CA        101.1872   24.7925   69.5187 C.3       1 GLC5        0.0000 
     68 CA        101.2400   26.3870   69.0830 C.3       3 GLL5        0.0000 
     69 CA        101.0710   22.8650   69.2540 C.3       2 GLP5        0.0000 
     70 CA         99.4332   27.0250   68.7735 C.3       1 GLC5        0.0000 
     71 CA         97.5230   27.1470   69.0400 C.3       2 GLP5        0.0000 
     72 CA        106.6238   20.3447   72.5835 C.3       1 GLC5        0.0000 
     73 CA        104.5890   20.9530   73.5380 C.3       3 GLL5        0.0000 
     74 CA        108.1120   20.4000   71.4650 C.3       2 GLP5        0.0000 
@<TRIPOS>BOND
@<TRIPOS>SUBSTRUCTURE
     1 GLC5        1 GROUP        1 X    GLC  0     ROOT GLC X 6
     2 GLP5        3 GROUP        1 Y    GLP  0     ROOT GLP Y 13
     3 GLL5        2 GROUP        1 Z    GLL  0     ROOT GLL Z 20
@<TRIPOS>SET

