#    Name: 1o79_R23_3_ligand
#    Modification time : Mon Mar 24 19:46:07 2014

@<TRIPOS>MOLECULE
1o79_R23_3_ligand
   65    68     1     0     0
SMALL
NO_CHARGES


@<TRIPOS>ATOM
      1 C4E       104.6440   31.5950   59.3940 C.3       1 R23800      0.0000 
      2 C5E       105.6470   32.1460   60.4850 C.3       1 R23800      0.0000 
      3 C6E       105.8680   31.0780   61.6080 C.3       1 R23800      0.0000 
      4 N1E       104.5740   30.7980   62.3360 N.4       1 R23800      0.0000 
      5 C2E       103.3230   30.9320   61.4810 C.3       1 R23800      0.0000 
      6 C3E       103.6110   30.5660   59.9920 C.3       1 R23800      0.0000 
      7 C1D       104.4230   31.5830   63.5880 C.3       1 R23800      0.0000 
      8 C4C       103.9870   30.7170   64.7640 C.ar      1 R23800      0.0000 
      9 C3C       102.9130   31.1260   65.6220 C.ar      1 R23800      0.0000 
     10 C2C       102.5080   30.3030   66.7250 C.ar      1 R23800      0.0000 
     11 C1C       103.1820   29.0650   66.9670 C.ar      1 R23800      0.0000 
     12 C6C       104.2460   28.6790   66.1010 C.ar      1 R23800      0.0000 
     13 C5C       104.6420   29.4900   65.0160 C.ar      1 R23800      0.0000 
     14 C4B       102.8530   28.1110   68.1100 C.3       1 R23800      0.0000 
     15 C3B       102.9670   28.8210   69.5070 C.3       1 R23800      0.0000 
     16 C2B       102.7390   27.7770   70.6300 C.3       1 R23800      0.0000 
     17 C1B       101.3670   27.0530   70.4840 C.3       1 R23800      0.0000 
     18 C6B       101.2400   26.3870   69.0830 C.3       1 R23800      0.0000 
     19 C5B       101.4470   27.4190   67.9310 C.3       1 R23800      0.0000 
     20 N4        101.1020   26.0980   71.5940 N.am      1 R23800      0.0000 
     21 C1        102.0010   25.0360   71.8150 C.2       1 R23800      0.0000 
     22 O3        101.8550   24.1360   72.7890 O.3       1 R23800      0.0000 
     23 C1F       102.7740   23.0910   73.0250 C.ar      1 R23800      0.0000 
     24 C6F       102.5310   21.7980   72.4790 C.ar      1 R23800      0.0000 
     25 C5F       103.4380   20.7320   72.7360 C.ar      1 R23800      0.0000 
     26 C4F       104.5890   20.9530   73.5380 C.ar      1 R23800      0.0000 
     27 C3F       104.8430   22.2480   74.0790 C.ar      1 R23800      0.0000 
     28 C2F       103.9370   23.3150   73.8220 C.ar      1 R23800      0.0000 
     29 C1A        99.9210   26.2610   72.4540 C.3       1 R23800      0.0000 
     30 O2        103.0030   24.8450   71.1230 O.2       1 R23800      0.0000 
     31 CL31      105.6820   19.6260   73.8660 Cl        1 R23800      0.0000 
     32 H         105.2162   31.1033   58.6146 H         1 R23800      0.0000 
     33 H         104.0990   32.4319   58.9708 H         1 R23800      0.0000 
     34 H         105.2268   33.0367   60.9199 H         1 R23800      0.0000 
     35 H         106.5885   32.3610   60.0093 H         1 R23800      0.0000 
     36 H         106.6125   31.4628   62.2980 H         1 R23800      0.0000 
     37 H         106.2420   30.1713   61.1427 H         1 R23800      0.0000 
     38 H         104.6096   29.7084   62.6506 H         1 R23800      0.0000 
     39 H         102.9579   31.9565   61.5172 H         1 R23800      0.0000 
     40 H         102.5471   30.2659   61.8533 H         1 R23800      0.0000 
     41 H         104.0365   29.5818   59.9429 H         1 R23800      0.0000 
     42 H         102.6996   30.6247   59.4280 H         1 R23800      0.0000 
     43 H         103.6780   32.3800   63.4460 H         1 R23800      0.0000 
     44 H         105.3759   32.0685   63.8461 H         1 R23800      0.0000 
     45 H         102.4345   32.0067   65.4472 H         1 R23800      0.0000 
     46 H         101.7505   30.5981   67.3265 H         1 R23800      0.0000 
     47 H         104.7322   27.7889   66.2755 H         1 R23800      0.0000 
     48 H         105.4080   29.1887   64.4073 H         1 R23800      0.0000 
     49 H         103.6038   27.3012   68.1084 H         1 R23800      0.0000 
     50 H         102.2138   29.5852   69.5679 H         1 R23800      0.0000 
     51 H         103.9517   29.2412   69.6009 H         1 R23800      0.0000 
     52 H         102.7690   28.2794   71.5946 H         1 R23800      0.0000 
     53 H         103.5329   27.0340   70.5919 H         1 R23800      0.0000 
     54 H         100.5932   27.8533   70.5145 H         1 R23800      0.0000 
     55 H         100.2508   25.9488   68.9880 H         1 R23800      0.0000 
     56 H         101.9894   25.6060   68.9933 H         1 R23800      0.0000 
     57 H         101.4315   26.9089   66.9885 H         1 R23800      0.0000 
     58 H         100.6841   28.1700   67.9839 H         1 R23800      0.0000 
     59 H         101.7065   21.6368   71.9037 H         1 R23800      0.0000 
     60 H         103.2602   19.8088   72.3433 H         1 R23800      0.0000 
     61 H         105.6705   22.4073   74.6473 H         1 R23800      0.0000 
     62 H         104.1168   24.2399   74.2062 H         1 R23800      0.0000 
     63 H          99.8730   25.5518   73.1573 H         1 R23800      0.0000 
     64 H          99.9243   27.1424   72.9263 H         1 R23800      0.0000 
     65 H          99.0706   26.2123   71.9302 H         1 R23800      0.0000 
@<TRIPOS>BOND
     1    2    1 1    
     2    6    1 1    
     3   32    1 1    
     4   33    1 1    
     5    3    2 1    
     6   34    2 1    
     7   35    2 1    
     8    4    3 1    
     9   36    3 1    
    10   37    3 1    
    11    5    4 1    
    12    7    4 1    
    13   38    4 1    
    14    6    5 1    
    15   39    5 1    
    16   40    5 1    
    17   41    6 1    
    18   42    6 1    
    19    8    7 1    
    20   43    7 1    
    21   44    7 1    
    22    9    8 ar   
    23   13    8 ar   
    24   10    9 ar   
    25   45    9 1    
    26   11   10 ar   
    27   46   10 1    
    28   12   11 ar   
    29   14   11 1    
    30   13   12 ar   
    31   47   12 1    
    32   48   13 1    
    33   15   14 1    
    34   19   14 1    
    35   49   14 1    
    36   16   15 1    
    37   50   15 1    
    38   51   15 1    
    39   17   16 1    
    40   52   16 1    
    41   53   16 1    
    42   18   17 1    
    43   20   17 1    
    44   54   17 1    
    45   19   18 1    
    46   55   18 1    
    47   56   18 1    
    48   57   19 1    
    49   58   19 1    
    50   21   20 am   
    51   29   20 1    
    52   22   21 1    
    53   30   21 2    
    54   23   22 1    
    55   24   23 ar   
    56   28   23 ar   
    57   25   24 ar   
    58   59   24 1    
    59   26   25 ar   
    60   60   25 1    
    61   27   26 ar   
    62   31   26 1    
    63   28   27 ar   
    64   61   27 1    
    65   62   28 1    
    66   63   29 1    
    67   64   29 1    
    68   65   29 1    
@<TRIPOS>SUBSTRUCTURE
     1 R23800      1 GROUP   
@<TRIPOS>SET

