#    Name: 3tz9_AQU_2_INTS_M
#    Modification time : Mon Mar 24 21:13:35 2014

@<TRIPOS>MOLECULE
3tz9_AQU_2_INTS_M
   89     0     9     0     0
SMALL
NO_CHARGES


@<TRIPOS>ATOM
      1 CA         -4.4290   67.0320   34.0150 C.3       3 GLC5        0.0000 
      2 CA         -4.5390   66.3280   32.4150 C.3       9 GLL5        0.0000 
      3 CA         -4.3190   67.7360   35.6150 C.3       6 GLP5        0.0000 
      4 CA         -2.6910   65.7690   33.1920 C.3       3 GLC5        0.0000 
      5 CA         -0.8430   65.2100   33.9690 C.3       6 GLP5        0.0000 
      6 CA         -3.6925   64.7570   31.1925 C.3       3 GLC5        0.0000 
      7 CA         -2.8460   63.1860   29.9700 C.3       6 GLP5        0.0000 
      8 CA         -5.5270   65.3620   31.0960 C.3       3 GLC5        0.0000 
      9 CA         -6.5150   64.3960   29.7770 C.3       6 GLP5        0.0000 
     10 N          -2.3465   66.0070   31.7000 N.am      2 SEC2        0.0000 
     11 N          -3.5610   67.1330   31.7870 N.am      8 SEL2        0.0000 
     12 N          -1.1320   64.8810   31.6130 N.am      5 SEP2        0.0000 
     13 CA         -4.1200   68.0170   33.4195 C.3       3 GLC5        0.0000 
     14 CA         -3.9210   68.2980   31.2240 C.3       9 GLL5        0.0000 
     15 CA         -5.2755   67.8265   33.7515 C.3       3 GLC5        0.0000 
     16 CA         -6.2320   67.9170   31.8880 C.3       9 GLL5        0.0000 
     17 CA        -16.1355   58.5105   33.6865 C.3       3 GLC5        0.0000 
     18 CA        -14.5630   58.3860   32.5680 C.3       9 GLL5        0.0000 
     19 CA        -17.7080   58.6350   34.8050 C.3       6 GLP5        0.0000 
     20 CA        -15.5230   56.8900   32.7640 C.3       3 GLC5        0.0000 
     21 CA        -16.4830   55.3940   32.9600 C.3       6 GLP5        0.0000 
     22 CA        -13.3890   56.8260   31.8535 C.3       3 GLC5        0.0000 
     23 CA        -12.2150   55.2660   31.1390 C.3       6 GLP5        0.0000 
     24 CA        -15.6245   59.5555   28.5685 C.3       3 GLC5        0.0000 
     25 CA        -15.2530   59.3310   30.3570 C.3       9 GLL5        0.0000 
     26 CA        -15.9960   59.7800   26.7800 C.3       6 GLP5        0.0000 
     27 CA        -13.7805   59.0475   28.8500 C.3       3 GLC5        0.0000 
     28 CA        -12.3080   58.7640   27.3430 C.3       6 GLP5        0.0000 
     29 CA        -12.5310   57.2155   31.0660 C.3       3 GLC5        0.0000 
     30 CA        -12.8470   59.1650   30.9930 C.3       9 GLL5        0.0000 
     31 CA        -11.1350   60.2150   31.5965 C.3       3 GLC5        0.0000 
     32 CA         -9.4230   61.2650   32.2000 C.3       6 GLP5        0.0000 
     33 CA        -12.5775   58.9645   29.1680 C.3       3 GLC5        0.0000 
     34 CA        -11.9740   60.7265   29.9660 C.3       3 GLC5        0.0000 
     35 CA        -11.1010   62.2880   28.9390 C.3       6 GLP5        0.0000 
     36 O         -15.9960   67.2175   34.6295 O.2       1 ALC1        0.0000 
     37 O         -16.5410   67.0840   33.4070 O.2       7 ALL1        0.0000 
     38 O         -15.4510   67.3510   35.8520 O.2       4 ALP1        0.0000 
     39 N         -12.2690   63.9825   30.6905 N.am      2 SEC2        0.0000 
     40 N         -11.8430   63.9500   31.8650 N.am      8 SEL2        0.0000 
     41 N         -12.6950   64.0150   29.5160 N.am      5 SEP2        0.0000 
     42 CA         -2.6965   69.5760   28.0835 C.3       3 GLC5        0.0000 
     43 CA         -3.3150   70.2850   30.0130 C.3       9 GLL5        0.0000 
     44 CA         -2.0780   68.8670   26.1540 C.3       6 GLP5        0.0000 
     45 CA        -17.8625   63.9625   36.0920 C.3       3 GLC5        0.0000 
     46 CA        -18.3340   64.0010   34.2430 C.3       9 GLL5        0.0000 
     47 CA        -17.3910   63.9240   37.9410 C.3       6 GLP5        0.0000 
     48 CA        -17.3860   65.3110   35.8315 C.3       3 GLC5        0.0000 
     49 CA        -18.0540   65.3660   34.0970 C.3       9 GLL5        0.0000 
     50 CA        -16.7180   65.2560   37.5660 C.3       6 GLP5        0.0000 
     51 CA        -18.2505   61.5165   35.0760 C.3       3 GLC5        0.0000 
     52 CA        -17.3920   63.0490   33.8430 C.3       9 GLL5        0.0000 
     53 CA        -19.1090   59.9840   36.3090 C.3       6 GLP5        0.0000 
     54 CA        -12.0650   65.5200   30.5555 C.3       3 GLC5        0.0000 
     55 CA        -10.3120   66.1180   31.8010 C.3       9 GLL5        0.0000 
     56 CA        -13.8180   64.9220   29.3100 C.3       6 GLP5        0.0000 
     57 CA        -11.8475   67.4090   30.7905 C.3       3 GLC5        0.0000 
     58 CA        -13.3830   68.7000   29.7800 C.3       6 GLP5        0.0000 
     59 CA        -11.2700   68.3270   34.9050 C.3       3 GLC5        0.0000 
     60 CA         -9.9630   66.8700   34.0570 C.3       9 GLL5        0.0000 
     61 CA        -12.5770   69.7840   35.7530 C.3       6 GLP5        0.0000 
     62 CA         -7.8725   65.6420   30.5780 C.3       3 GLC5        0.0000 
     63 CA         -9.2300   66.8880   31.3790 C.3       9 GLL5        0.0000 
     64 CA         -4.2560   67.6435   29.5025 C.3       3 GLC5        0.0000 
     65 CA         -2.9480   69.0770   30.6010 C.3       9 GLL5        0.0000 
     66 CA         -5.5640   66.2100   28.4040 C.3       6 GLP5        0.0000 
     67 CA        -13.1685   61.1480   34.4015 C.3       3 GLC5        0.0000 
     68 CA        -13.3440   61.5540   32.5810 C.3       9 GLL5        0.0000 
     69 CA        -12.9930   60.7420   36.2220 C.3       6 GLP5        0.0000 
     70 CA        -11.3835   61.4095   32.3905 C.3       3 GLC5        0.0000 
     71 CA        -12.2225   61.9210   30.7600 C.3       3 GLC5        0.0000 
     72 CA        -12.9475   62.4390   34.6360 C.3       3 GLC5        0.0000 
     73 CA        -13.9200   62.6580   33.0470 C.3       9 GLL5        0.0000 
     74 CA        -11.9750   62.2200   36.2250 C.3       6 GLP5        0.0000 
     75 CA        -16.1065   64.1860   35.1527 C.3       3 GLC5        0.0000 
     76 CA        -16.1680   63.4610   33.2900 C.3       9 GLL5        0.0000 
     77 CA        -15.4330   65.1170   36.7390 C.3       6 GLP5        0.0000 
     78 CA         -9.8535   64.8485   30.4110 C.3       3 GLC5        0.0000 
     79 CA         -9.9360   63.1940   29.2320 C.3       6 GLP5        0.0000 
     80 CA         -2.9638   71.5050   31.1156 C.3       3 GLC5        0.0000 
     81 CA         -4.6470   70.7090   30.0500 C.3       9 GLL5        0.0000 
     82 CA         -2.4630   73.2230   31.9150 C.3       6 GLP5        0.0000 
     83 CA         -5.5408   67.6414   29.7605 C.3       3 GLC5        0.0000 
     84 CA         -5.6230   69.9330   30.6690 C.3       9 GLL5        0.0000 
     85 CA        -15.8995   65.2122   35.0450 C.3       3 GLC5        0.0000 
     86 CA        -15.8990   64.8300   33.1520 C.3       9 GLL5        0.0000 
     87 CA        -14.3710   63.1825   31.2995 C.3       3 GLC5        0.0000 
     88 CA        -15.1100   64.2590   29.7850 C.3       6 GLP5        0.0000 
     89 CA        -15.6885   64.3216   31.5527 C.3       3 GLC5        0.0000 
@<TRIPOS>BOND
@<TRIPOS>SUBSTRUCTURE
     1 ALC1       36 GROUP        1 X    ALC  0     ROOT ALC X 1
     2 SEC2       10 GROUP        1 X    SEC  0     **** SEC X 2
     3 GLC5        1 GROUP        1 X    GLC  0     **** GLC X 6
     4 ALP1       38 GROUP        1 Y    ALP  0     ROOT ALP Y 8
     5 SEP2       12 GROUP        1 Y    SEP  0     **** SEP Y 9
     6 GLP5        3 GROUP        1 Y    GLP  0     **** GLP Y 13
     7 ALL1       37 GROUP        1 Z    ALL  0     ROOT ALL Z 15
     8 SEL2       11 GROUP        1 Z    SEL  0     **** SEL Z 16
     9 GLL5        2 GROUP        1 Z    GLL  0     **** GLL Z 20
@<TRIPOS>SET

