#    Name: 3tz9_AQU_2_ligand
#    Modification time : Mon Mar 24 21:13:36 2014

@<TRIPOS>MOLECULE
3tz9_AQU_2_ligand
   65    69     1     0     0
SMALL
NO_CHARGES


@<TRIPOS>ATOM
      1 N1         -5.8910   66.7460   32.4620 N.ar      1 AQU1        0.0000 
      2 C2         -4.5390   66.3280   32.4150 C.ar      1 AQU1        0.0000 
      3 N3         -3.5610   67.1330   31.7870 N.ar      1 AQU1        0.0000 
      4 C4         -3.9210   68.2980   31.2240 C.ar      1 AQU1        0.0000 
      5 C5         -5.2630   68.7190   31.2600 C.ar      1 AQU1        0.0000 
      6 C6         -6.2320   67.9170   31.8880 C.ar      1 AQU1        0.0000 
      7 CAA       -14.5630   58.3860   32.5680 C.3       1 AQU1        0.0000 
      8 CAB       -15.2530   59.3310   30.3570 C.3       1 AQU1        0.0000 
      9 CAC       -12.8470   59.1650   30.9930 C.3       1 AQU1        0.0000 
     10 NAD       -16.5410   67.0840   33.4070 N.pl3     1 AQU1        0.0000 
     11 OAE       -11.8430   63.9500   31.8650 O.2       1 AQU1        0.0000 
     12 CAF        -3.3150   70.2850   30.0130 C.ar      1 AQU1        0.0000 
     13 CAG        -4.6470   70.7090   30.0500 C.ar      1 AQU1        0.0000 
     14 CAH       -18.3340   64.0010   34.2430 C.ar      1 AQU1        0.0000 
     15 CAJ       -18.0540   65.3660   34.0970 C.ar      1 AQU1        0.0000 
     16 CAK       -17.3920   63.0490   33.8430 C.ar      1 AQU1        0.0000 
     17 CAL       -10.3120   66.1180   31.8010 C.ar      1 AQU1        0.0000 
     18 CAM        -9.9630   66.8700   34.0570 C.ar      1 AQU1        0.0000 
     19 CAN        -9.2300   66.8880   31.3790 C.ar      1 AQU1        0.0000 
     20 CAO        -8.8800   67.6380   33.6430 C.ar      1 AQU1        0.0000 
     21 CAP        -2.9480   69.0770   30.6010 C.ar      1 AQU1        0.0000 
     22 CAQ        -5.6230   69.9330   30.6690 C.ar      1 AQU1        0.0000 
     23 CAR       -15.8990   64.8300   33.1520 C.ar      1 AQU1        0.0000 
     24 CAS       -13.3440   61.5540   32.5810 C.2       1 AQU1        0.0000 
     25 NAV       -15.5100   61.4560   32.3820 N.2       1 AQU1        0.0000 
     26 NAW       -11.7230   65.3770   33.6180 N.am      1 AQU1        0.0000 
     27 NAX       -13.2840   63.7100   33.5940 N.am      1 AQU1        0.0000 
     28 NAY        -7.4860   68.3890   31.8810 N.pl3     1 AQU1        0.0000 
     29 CAZ       -12.2580   64.3230   32.9630 C.2       1 AQU1        0.0000 
     30 CBA       -16.8330   65.7850   33.5500 C.ar      1 AQU1        0.0000 
     31 CBB       -10.6860   66.0980   33.1460 C.ar      1 AQU1        0.0000 
     32 CBC        -8.5070   67.6380   32.3000 C.ar      1 AQU1        0.0000 
     33 CBD       -16.1680   63.4610   33.2900 C.ar      1 AQU1        0.0000 
     34 CBE       -14.3640   60.8180   32.1580 C.2       1 AQU1        0.0000 
     35 CBF       -13.9200   62.6580   33.0470 C.2       1 AQU1        0.0000 
     36 NBJ       -15.2550   62.5530   32.9120 N.pl3     1 AQU1        0.0000 
     37 CBK       -14.2570   59.4320   31.5150 C.3       1 AQU1        0.0000 
     38 H          -4.2686   65.4365   32.8390 H         1 AQU1        0.0000 
     39 H         -16.8098   67.5025   32.5395 H         1 AQU1        0.0000 
     40 H         -16.0803   67.5192   34.1805 H         1 AQU1        0.0000 
     41 H          -2.6065   70.8683   29.5499 H         1 AQU1        0.0000 
     42 H          -4.9064   71.6069   29.6131 H         1 AQU1        0.0000 
     43 H         -19.2291   63.7023   34.6429 H         1 AQU1        0.0000 
     44 H         -18.7472   66.0644   34.3924 H         1 AQU1        0.0000 
     45 H         -17.5911   62.0497   33.9518 H         1 AQU1        0.0000 
     46 H         -10.8409   65.5586   31.1161 H         1 AQU1        0.0000 
     47 H         -10.2385   66.8693   35.0537 H         1 AQU1        0.0000 
     48 H          -8.9669   66.9007   30.3849 H         1 AQU1        0.0000 
     49 H          -8.3574   68.2021   34.3215 H         1 AQU1        0.0000 
     50 H          -1.9745   68.7646   30.5760 H         1 AQU1        0.0000 
     51 H          -6.5965   70.2468   30.6923 H         1 AQU1        0.0000 
     52 H         -14.9975   65.1306   32.7505 H         1 AQU1        0.0000 
     53 H         -12.4223   61.3439   32.5573 H         1 AQU1        0.0000 
     54 H         -12.1441   65.6520   34.5577 H         1 AQU1        0.0000 
     55 H         -13.5911   64.0662   34.5362 H         1 AQU1        0.0000 
     56 H          -7.6668   69.3686   31.5390 H         1 AQU1        0.0000 
     57 H         -14.5111   57.4589   32.1967 H         1 AQU1        0.0000 
     58 H         -13.9216   58.4313   33.3339 H         1 AQU1        0.0000 
     59 H         -15.4813   58.4987   32.9476 H         1 AQU1        0.0000 
     60 H         -15.0680   60.0111   29.6476 H         1 AQU1        0.0000 
     61 H         -15.2219   58.4332   29.9176 H         1 AQU1        0.0000 
     62 H         -16.1941   59.4752   30.6629 H         1 AQU1        0.0000 
     63 H         -12.1645   59.2204   31.7218 H         1 AQU1        0.0000 
     64 H         -12.7678   58.2551   30.5858 H         1 AQU1        0.0000 
     65 H         -12.5799   59.8247   30.2905 H         1 AQU1        0.0000 
@<TRIPOS>BOND
     1    2    1 ar   
     2    6    1 ar   
     3    3    2 ar   
     4   38    2 1    
     5    4    3 ar   
     6    5    4 ar   
     7   21    4 ar   
     8    6    5 ar   
     9   22    5 ar   
    10   28    6 1    
    11   37    7 1    
    12   57    7 1    
    13   58    7 1    
    14   59    7 1    
    15   37    8 1    
    16   60    8 1    
    17   61    8 1    
    18   62    8 1    
    19   37    9 1    
    20   63    9 1    
    21   64    9 1    
    22   65    9 1    
    23   30   10 1    
    24   39   10 1    
    25   40   10 1    
    26   29   11 2    
    27   13   12 ar   
    28   21   12 ar   
    29   41   12 1    
    30   22   13 ar   
    31   42   13 1    
    32   15   14 ar   
    33   16   14 ar   
    34   43   14 1    
    35   30   15 ar   
    36   44   15 1    
    37   33   16 ar   
    38   45   16 1    
    39   19   17 ar   
    40   31   17 ar   
    41   46   17 1    
    42   20   18 ar   
    43   31   18 ar   
    44   47   18 1    
    45   32   19 ar   
    46   48   19 1    
    47   32   20 ar   
    48   49   20 1    
    49   50   21 1    
    50   51   22 1    
    51   30   23 ar   
    52   33   23 ar   
    53   52   23 1    
    54   34   24 1    
    55   35   24 2    
    56   53   24 1    
    57   34   25 2    
    58   36   25 1    
    59   29   26 am   
    60   31   26 1    
    61   54   26 1    
    62   29   27 am   
    63   35   27 1    
    64   55   27 1    
    65   32   28 1    
    66   56   28 1    
    67   36   33 1    
    68   37   34 1    
    69   36   35 1    
@<TRIPOS>SUBSTRUCTURE
     1 AQU1        1 GROUP   
@<TRIPOS>SET

