#    Name: 3nxe_2NC_1_INTS_M
#    Modification time : Tue Mar 25 02:53:47 2014

@<TRIPOS>MOLECULE
3nxe_2NC_1_INTS_M
  124     0    12     0     0
SMALL
NO_CHARGES


@<TRIPOS>ATOM
      1 CA          2.3680   -8.9925   14.5060 C.3       4 GLC5        0.0000 
      2 CA          4.1250   -9.3220   15.1200 C.3      12 GLL5        0.0000 
      3 CA          0.6110   -8.6630   13.8920 C.3       8 GLP5        0.0000 
      4 CA          5.8570   -9.3095   13.8625 C.3       4 GLC5        0.0000 
      5 CA          7.5890   -9.2970   12.6050 C.3       8 GLP5        0.0000 
      6 CA          4.6125   -7.9530   13.7795 C.3       4 GLC5        0.0000 
      7 CA          5.1000   -6.5840   12.4390 C.3       8 GLP5        0.0000 
      8 N           7.8805   -5.3660   20.0075 N.am      2 SEC2        0.0000 
      9 N           7.1130   -5.9540   18.8620 N.am     10 SEL2        0.0000 
     10 N           8.6480   -4.7780   21.1530 N.am      6 SEP2        0.0000 
     11 CA          8.1205   -7.9195   20.4335 C.3       4 GLC5        0.0000 
     12 CA          7.1970   -8.8140   18.7590 C.3      12 GLL5        0.0000 
     13 CA          9.0440   -7.0250   22.1080 C.3       8 GLP5        0.0000 
     14 O           6.8585   -6.8595   15.3820 O.2       1 ALC1        0.0000 
     15 O           6.8610   -6.1010   16.6450 O.2       9 ALL1        0.0000 
     16 O           6.8560   -7.6180   14.1190 O.2       5 ALP1        0.0000 
     17 CA          7.7435   -3.7925   18.1800 C.3       4 GLC5        0.0000 
     18 CA          7.4560   -4.8020   16.3930 C.3      12 GLL5        0.0000 
     19 CA          8.0310   -2.7830   19.9670 C.3       8 GLP5        0.0000 
     20 CA          8.7080   -5.0030   13.3865 C.3       4 GLC5        0.0000 
     21 CA          8.7760   -4.8950   15.5920 C.3      12 GLL5        0.0000 
     22 CA          8.6400   -5.1110   11.1810 C.3       8 GLP5        0.0000 
     23 CA         11.3980   -6.4250   15.1245 C.3       4 GLC5        0.0000 
     24 CA          9.8080   -5.8710   16.2040 C.3      12 GLL5        0.0000 
     25 CA         12.9880   -6.9790   14.0450 C.3       8 GLP5        0.0000 
     26 CA         10.4575   -3.3825   13.7580 C.3       4 GLC5        0.0000 
     27 CA          9.4580   -3.5250   15.4630 C.3      12 GLL5        0.0000 
     28 CA         11.4570   -3.2400   12.0530 C.3       8 GLP5        0.0000 
     29 CA          9.2915   -2.7625   17.3500 C.3       4 GLC5        0.0000 
     30 CA          9.1250   -2.0000   19.2370 C.3       8 GLP5        0.0000 
     31 CA         11.5810   -3.7725   15.6105 C.3       4 GLC5        0.0000 
     32 CA         13.7040   -4.0200   15.7580 C.3       8 GLP5        0.0000 
     33 CA         10.2405   -1.9365   14.8020 C.3       4 GLC5        0.0000 
     34 CA         11.0230   -0.3480   14.1410 C.3       8 GLP5        0.0000 
     35 CA          9.7110   -3.7665   18.4155 C.3       4 GLC5        0.0000 
     36 CA         10.2970   -5.5330   17.5940 C.3      12 GLL5        0.0000 
     37 CA         11.7585   -5.9480   18.8295 C.3       4 GLC5        0.0000 
     38 CA         13.2200   -6.3630   20.0650 C.3       8 GLP5        0.0000 
     39 O           5.4510   -3.1235   17.9295 O.2       1 ALC1        0.0000 
     40 O           5.6210   -3.1400   16.4680 O.2       9 ALL1        0.0000 
     41 O           5.2810   -3.1070   19.3910 O.2       5 ALP1        0.0000 
     42 CA          1.1465   -5.3885   17.2870 C.3       4 GLC5        0.0000 
     43 CA          2.9730   -4.3410   16.8560 C.3      12 GLL5        0.0000 
     44 CA         -0.6800   -6.4360   17.7180 C.3       8 GLP5        0.0000 
     45 CA          1.7220   -6.9175   14.7295 C.3       4 GLC5        0.0000 
     46 CA          2.8330   -5.1720   15.5670 C.3      12 GLL5        0.0000 
     47 CA          1.5400   -6.3870   16.6690 C.3       4 GLC5        0.0000 
     48 CA          0.2470   -7.6020   17.7710 C.3       8 GLP5        0.0000 
     49 CA          0.9130   -5.7995   13.4510 C.3       4 GLC5        0.0000 
     50 CA          1.8120   -4.5060   14.6670 C.3      12 GLL5        0.0000 
     51 CA          0.0140   -7.0930   12.2350 C.3       8 GLP5        0.0000 
     52 CA          0.5660   -5.4710   16.1925 C.3       4 GLC5        0.0000 
     53 CA          0.6085   -3.2485   16.0590 C.3       4 GLC5        0.0000 
     54 CA         -0.5950   -1.9910   17.4510 C.3       8 GLP5        0.0000 
     55 CA          1.3645   -4.0795   12.8125 C.3       4 GLC5        0.0000 
     56 CA          0.9170   -3.6530   10.9580 C.3       8 GLP5        0.0000 
     57 OD1         6.0970    0.2880   16.8760 O.co2     3 ASC3        0.0000 
     58 OD1         5.9940   -0.6090   15.0990 O.co2    11 ASL3        0.0000 
     59 OD1         6.2000    1.1850   18.6530 O.co2     7 ASP3        0.0000 
     60 OD1         6.8015   -0.0860   16.1110 O.co2     3 ASC3        0.0000 
     61 OD1         7.6090    0.4370   17.1230 O.co2     7 ASP3        0.0000 
     62 CA          5.7330    2.3435   15.6575 C.3       4 GLC5        0.0000 
     63 CA          5.9330    0.6030   14.2920 C.3      12 GLL5        0.0000 
     64 CA          5.5330    4.0840   17.0230 C.3       8 GLP5        0.0000 
     65 CA          6.5990   -0.0160   10.1885 C.3       4 GLC5        0.0000 
     66 CA          7.6970    1.4930   11.3280 C.3      12 GLL5        0.0000 
     67 CA          5.5010   -1.5250    9.0490 C.3       8 GLP5        0.0000 
     68 CA          8.8880   -1.2560   10.2900 C.3       4 GLC5        0.0000 
     69 CA          9.0090    0.7750   11.0870 C.3      12 GLL5        0.0000 
     70 CA          8.7670   -3.2870    9.4930 C.3       8 GLP5        0.0000 
     71 CA          9.8700    0.6225    9.4315 C.3       4 GLC5        0.0000 
     72 CA         10.7310    0.4700    7.7760 C.3       8 GLP5        0.0000 
     73 CA         10.0160    0.2135   12.6140 C.3       4 GLC5        0.0000 
     74 O           4.6645    2.6800   13.7730 O.2       1 ALC1        0.0000 
     75 O           4.2900    1.5990   12.8320 O.2       9 ALL1        0.0000 
     76 O           5.0390    3.7610   14.7140 O.2       5 ALP1        0.0000 
     77 CA          2.8065    2.8425   13.4265 C.3       4 GLC5        0.0000 
     78 CA          3.3340    1.6960   11.7410 C.3      12 GLL5        0.0000 
     79 CA          2.2790    3.9890   15.1120 C.3       8 GLP5        0.0000 
     80 N           2.5295    4.9525   12.6715 N.am      2 SEC2        0.0000 
     81 N           3.4280    4.1350   11.7780 N.am     10 SEL2        0.0000 
     82 N           1.6310    5.7700   13.5650 N.am      6 SEP2        0.0000 
     83 CA          1.5660    2.1430   13.8570 C.3       4 GLC5        0.0000 
     84 CA          1.9340    1.2680   12.1940 C.3      12 GLL5        0.0000 
     85 CA          1.1980    3.0180   15.5200 C.3       8 GLP5        0.0000 
     86 CA         -1.1460    0.9575   11.6035 C.3       4 GLC5        0.0000 
     87 CA          0.8570    1.4010   11.1380 C.3      12 GLL5        0.0000 
     88 CA         -3.1490    0.5140   12.0690 C.3       8 GLP5        0.0000 
     89 CA         -0.5620    0.6500    9.8630 C.3       4 GLC5        0.0000 
     90 CA         -1.9810   -0.1010    8.5880 C.3       8 GLP5        0.0000 
     91 N          -0.3415    4.6555   12.5550 N.am      2 SEC2        0.0000 
     92 N           0.3910    3.5830   11.9390 N.am     10 SEL2        0.0000 
     93 N          -1.0740    5.7280   13.1710 N.am      6 SEP2        0.0000 
     94 O          -0.9975    4.3190    9.8130 O.2       1 ALC1        0.0000 
     95 O          -0.3750    3.0870    9.9140 O.2       9 ALL1        0.0000 
     96 O          -1.6200    5.5510    9.7120 O.2       5 ALP1        0.0000 
     97 O           3.4015    1.8050    9.2015 O.2       1 ALC1        0.0000 
     98 O           3.2480    3.1490    9.8060 O.2       9 ALL1        0.0000 
     99 O           3.5550    0.4610    8.5970 O.2       5 ALP1        0.0000 
    100 CA          2.1600    5.8860   10.4475 C.3       4 GLC5        0.0000 
    101 CA          3.1760    4.4130    9.1250 C.3      12 GLL5        0.0000 
    102 CA          1.1440    7.3590   11.7700 C.3       8 GLP5        0.0000 
    103 N           2.1625    1.9585    6.7805 N.am      2 SEC2        0.0000 
    104 N           2.2120    3.3210    7.2920 N.am     10 SEL2        0.0000 
    105 N           2.1130    0.5960    6.2690 N.am      6 SEP2        0.0000 
    106 CA          8.9315    4.2400    9.2820 C.3       4 GLC5        0.0000 
    107 CA          7.0190    4.3340    8.3690 C.3      12 GLL5        0.0000 
    108 CA         10.8440    4.1460   10.1950 C.3       8 GLP5        0.0000 
    109 CA         11.8783   -4.8610   16.3285 C.3       4 GLC5        0.0000 
    110 CA          2.3963   -3.4917   18.6523 C.3       4 GLC5        0.0000 
    111 CA          3.2440   -2.8500   16.6010 C.3      12 GLL5        0.0000 
    112 CA          1.6840   -3.3880   20.5760 C.3       8 GLP5        0.0000 
    113 CA          1.2568   -2.7933   17.0898 C.3       4 GLC5        0.0000 
    114 CA          3.7112   -5.7115   13.7780 C.3       4 GLC5        0.0000 
    115 CA          8.0533    3.0202   14.1830 C.3       4 GLC5        0.0000 
    116 CA          7.3380    0.8520   13.7330 C.3      12 GLL5        0.0000 
    117 CA          8.6780    4.6060   15.1270 C.3       8 GLP5        0.0000 
    118 CA          9.2258    0.5433   13.6900 C.3       4 GLC5        0.0000 
    119 CA          7.5190    2.0170   12.7450 C.3      12 GLL5        0.0000 
    120 CA          9.5985    2.6400   10.7012 C.3       4 GLC5        0.0000 
    121 CA          0.5037    0.3808   13.3070 C.3       4 GLC5        0.0000 
    122 CA         -0.3880   -0.5730   14.9480 C.3       8 GLP5        0.0000 
    123 CA          1.0068   -0.4537   11.5380 C.3       4 GLC5        0.0000 
    124 CA          0.6180   -2.2420   11.4100 C.3       8 GLP5        0.0000 
@<TRIPOS>BOND
@<TRIPOS>SUBSTRUCTURE
     1 ALC1       14 GROUP        1 X    ALC  0     ROOT ALC X 1
     2 SEC2        8 GROUP        1 X    SEC  0     **** SEC X 2
     3 ASC3       57 GROUP        1 X    ASC  0     **** ASC X 3
     4 GLC5        1 GROUP        1 X    GLC  0     **** GLC X 6
     5 ALP1       16 GROUP        1 Y    ALP  0     ROOT ALP Y 8
     6 SEP2       10 GROUP        1 Y    SEP  0     **** SEP Y 9
     7 ASP3       59 GROUP        1 Y    ASP  0     **** ASP Y 10
     8 GLP5        3 GROUP        1 Y    GLP  0     **** GLP Y 13
     9 ALL1       15 GROUP        1 Z    ALL  0     ROOT ALL Z 15
    10 SEL2        9 GROUP        1 Z    SEL  0     **** SEL Z 16
    11 ASL3       58 GROUP        1 Z    ASL  0     **** ASL Z 17
    12 GLL5        2 GROUP        1 Z    GLL  0     **** GLL Z 20
@<TRIPOS>SET

