#    Name: 3nxe_2NC_1_ligand
#    Modification time : Tue Mar 25 02:53:47 2014

@<TRIPOS>MOLECULE
3nxe_2NC_1_ligand
  121   120     1     0     0
SMALL
NO_CHARGES


@<TRIPOS>ATOM
      1 C           4.4270   -8.8280   16.5100 C.2       1 2NC204      0.0000 
      2 O           3.5560   -8.6270   17.3730 O.2       1 2NC204      0.0000 
      3 CH3         4.1250   -9.3220   15.1200 C.3       1 2NC204      0.0000 
      4 N           5.7090   -8.6280   16.7950 N.am      1 2NC204      0.0000 
      5 CA          6.1290   -7.9880   18.0490 C.3       1 2NC204      0.0000 
      6 C1          6.7360   -6.5810   17.8740 C.2       1 2NC204      0.0000 
      7 O1          7.1130   -5.9540   18.8620 O.2       1 2NC204      0.0000 
      8 CB          7.1970   -8.8140   18.7590 C.3       1 2NC204      0.0000 
      9 OG1         8.3340   -8.9640   17.9050 O.3       1 2NC204      0.0000 
     10 CG2         6.6820  -10.2370   19.1010 C.3       1 2NC204      0.0000 
     11 N1          6.8610   -6.1010   16.6450 N.am      1 2NC204      0.0000 
     12 CA1         7.4560   -4.8020   16.3930 C.3       1 2NC204      0.0000 
     13 C2          6.4140   -3.8860   15.7220 C.2       1 2NC204      0.0000 
     14 O2          6.2960   -3.8460   14.5000 O.2       1 2NC204      0.0000 
     15 CB1         8.7760   -4.8950   15.5920 C.3       1 2NC204      0.0000 
     16 CG1         9.8080   -5.8710   16.2040 C.3       1 2NC204      0.0000 
     17 CG21        9.4580   -3.5250   15.4630 C.3       1 2NC204      0.0000 
     18 CD1        10.2970   -5.5330   17.5940 C.3       1 2NC204      0.0000 
     19 N2          5.6210   -3.1400   16.4680 N.am      1 2NC204      0.0000 
     20 CA2         4.5110   -2.4540   15.8470 C.3       1 2NC204      0.0000 
     21 C3          4.7560   -0.9560   15.8020 C.3       1 2NC204      0.0000 
     22 CB2         3.2440   -2.8500   16.6010 C.3       1 2NC204      0.0000 
     23 CG          2.9730   -4.3410   16.8560 C.3       1 2NC204      0.0000 
     24 CD          2.8330   -5.1720   15.5670 C.3       1 2NC204      0.0000 
     25 CE          1.8120   -4.5060   14.6670 C.3       1 2NC204      0.0000 
     26 N3          5.9940   -0.6090   15.0990 N.4       1 2NC204      0.0000 
     27 CA3         5.9330    0.6030   14.2920 C.3       1 2NC204      0.0000 
     28 C4          4.9140    0.4910   13.1730 C.2       1 2NC204      0.0000 
     29 O3          4.7130   -0.5550   12.5460 O.2       1 2NC204      0.0000 
     30 CB3         7.3380    0.8520   13.7330 C.3       1 2NC204      0.0000 
     31 CG3         7.5190    2.0170   12.7450 C.3       1 2NC204      0.0000 
     32 CD2         7.6970    1.4930   11.3280 C.3       1 2NC204      0.0000 
     33 CE1         9.0090    0.7750   11.0870 C.3       1 2NC204      0.0000 
     34 N4          4.2900    1.5990   12.8320 N.am      1 2NC204      0.0000 
     35 CA4         3.3340    1.6960   11.7410 C.3       1 2NC204      0.0000 
     36 C5          3.3510    3.1050   11.1080 C.2       1 2NC204      0.0000 
     37 O4          3.4280    4.1350   11.7780 O.2       1 2NC204      0.0000 
     38 CB4         1.9340    1.2680   12.1940 C.3       1 2NC204      0.0000 
     39 CG4         0.8570    1.4010   11.1380 C.3       1 2NC204      0.0000 
     40 CD3         0.2700    2.7940   11.0290 C.2       1 2NC204      0.0000 
     41 OE1         0.3910    3.5830   11.9390 O.2       1 2NC204      0.0000 
     42 NE2        -0.3750    3.0870    9.9140 N.am      1 2NC204      0.0000 
     43 N5          3.2480    3.1490    9.8060 N.am      1 2NC204      0.0000 
     44 CA5         3.1760    4.4130    9.1250 C.3       1 2NC204      0.0000 
     45 C6          2.2370    4.3340    7.9650 C.2       1 2NC204      0.0000 
     46 O5          2.2120    3.3210    7.2920 O.2       1 2NC204      0.0000 
     47 CB5         4.5700    4.8490    8.7090 C.3       1 2NC204      0.0000 
     48 CG5         5.6050    3.7600    8.5440 C.3       1 2NC204      0.0000 
     49 CD4         7.0190    4.3340    8.3690 C.3       1 2NC204      0.0000 
     50 NE          7.0490    5.5110    7.4910 N.pl3     1 2NC204      0.0000 
     51 CZ          8.1560    6.1450    7.1220 C.cat     1 2NC204      0.0000 
     52 NH1         9.3420    5.7180    7.5350 N.pl3     1 2NC204      0.0000 
     53 NH2         8.0800    7.2060    6.3220 N.pl3     1 2NC204      0.0000 
     54 N6          1.3660    5.3310    7.7810 N.am      1 2NC204      0.0000 
     55 H           6.4783   -8.9090   16.1557 H         1 2NC204      0.0000 
     56 H           5.2924   -7.8936   18.7392 H         1 2NC204      0.0000 
     57 H           7.4638   -8.3314   19.6786 H         1 2NC204      0.0000 
     58 H           6.5413   -6.6270   15.8044 H         1 2NC204      0.0000 
     59 H           7.7029   -4.3276   17.3661 H         1 2NC204      0.0000 
     60 H           8.5510   -5.2426   14.5837 H         1 2NC204      0.0000 
     61 H          10.6762   -5.9298   15.5127 H         1 2NC204      0.0000 
     62 H           9.3578   -6.8871   16.2093 H         1 2NC204      0.0000 
     63 H           5.7426   -3.0122   17.4793 H         1 2NC204      0.0000 
     64 H           4.4017   -2.8164   14.8167 H         1 2NC204      0.0000 
     65 H           4.7836   -0.5782   16.8394 H         1 2NC204      0.0000 
     66 H           3.8888   -0.4777   15.3132 H         1 2NC204      0.0000 
     67 H           2.3587   -2.4230   16.0576 H         1 2NC204      0.0000 
     68 H           3.2397   -2.3208   17.5916 H         1 2NC204      0.0000 
     69 H           2.0502   -4.4404   17.4437 H         1 2NC204      0.0000 
     70 H           3.7940   -4.7551   17.4571 H         1 2NC204      0.0000 
     71 H           2.5031   -6.1675   15.8253 H         1 2NC204      0.0000 
     72 H           3.7911   -5.2132   15.0702 H         1 2NC204      0.0000 
     73 H           5.6793    1.4511   14.9175 H         1 2NC204      0.0000 
     74 H           7.6941   -0.0852   13.2386 H         1 2NC204      0.0000 
     75 H           8.0382    1.0077   14.5904 H         1 2NC204      0.0000 
     76 H           8.3952    2.5920   13.0342 H         1 2NC204      0.0000 
     77 H           6.6414    2.6572   12.7898 H         1 2NC204      0.0000 
     78 H           7.6136    2.3401   10.6213 H         1 2NC204      0.0000 
     79 H           6.8614    0.8069   11.0938 H         1 2NC204      0.0000 
     80 H           4.4575    2.5088   13.3524 H         1 2NC204      0.0000 
     81 H           3.6395    0.9892   10.9386 H         1 2NC204      0.0000 
     82 H           1.6522    1.8698   13.0794 H         1 2NC204      0.0000 
     83 H           1.9817    0.2159   12.5351 H         1 2NC204      0.0000 
     84 H           0.0447    0.6850   11.3594 H         1 2NC204      0.0000 
     85 H           1.2756    1.1096   10.1575 H         1 2NC204      0.0000 
     86 H          -0.8088    3.9874    9.8802 H         1 2NC204      0.0000 
     87 H          -0.3709    2.3818    9.2050 H         1 2NC204      0.0000 
     88 H           3.2134    2.3002    9.2085 H         1 2NC204      0.0000 
     89 H           2.7935    5.1761    9.8220 H         1 2NC204      0.0000 
     90 H           4.9461    5.5927    9.4544 H         1 2NC204      0.0000 
     91 H           4.4918    5.4192    7.7504 H         1 2NC204      0.0000 
     92 H           5.3627    3.1513    7.6674 H         1 2NC204      0.0000 
     93 H           5.5974    3.1083    9.4232 H         1 2NC204      0.0000 
     94 H           7.6625    3.5337    7.9667 H         1 2NC204      0.0000 
     95 H           7.4087    4.5865    9.3693 H         1 2NC204      0.0000 
     96 H           6.0955    5.8321    7.1599 H         1 2NC204      0.0000 
     97 H          10.1311    6.2555    7.2378 H         1 2NC204      0.0000 
     98 H           9.3397    4.8972    8.1062 H         1 2NC204      0.0000 
     99 H           8.9492    7.6358    6.0774 H         1 2NC204      0.0000 
    100 H           7.1606    7.4777    6.0376 H         1 2NC204      0.0000 
    101 H           1.4058    6.0781    8.4445 H         1 2NC204      0.0000 
    102 H           0.7527    5.2403    6.9964 H         1 2NC204      0.0000 
    103 H           4.9555   -9.4179   14.5713 H         1 2NC204      0.0000 
    104 H           3.6773  -10.2161   15.1327 H         1 2NC204      0.0000 
    105 H           3.5187   -8.6976   14.6275 H         1 2NC204      0.0000 
    106 H           7.3787  -10.7819   19.5676 H         1 2NC204      0.0000 
    107 H           5.8821  -10.2084   19.7005 H         1 2NC204      0.0000 
    108 H           6.4154  -10.7426   18.2805 H         1 2NC204      0.0000 
    109 H           9.6811   -3.1356   16.3566 H         1 2NC204      0.0000 
    110 H          10.3125   -3.5827   14.9468 H         1 2NC204      0.0000 
    111 H           8.8751   -2.8629   14.9920 H         1 2NC204      0.0000 
    112 H          10.9627   -6.2012   17.9262 H         1 2NC204      0.0000 
    113 H          10.7407   -4.6373   17.6240 H         1 2NC204      0.0000 
    114 H           9.5480   -5.5114   18.2562 H         1 2NC204      0.0000 
    115 H           2.0861   -3.5771   14.4182 H         1 2NC204      0.0000 
    116 H           1.6827   -5.0118   13.8141 H         1 2NC204      0.0000 
    117 H           0.9165   -4.4394   15.1070 H         1 2NC204      0.0000 
    118 H           9.7946    1.3700   11.2566 H         1 2NC204      0.0000 
    119 H           9.1110   -0.0220   11.6823 H         1 2NC204      0.0000 
    120 H           9.0863    0.4489   10.1448 H         1 2NC204      0.0000 
    121 H           9.0723   -9.2662   18.5079 H         1 2NC204      0.0000 
@<TRIPOS>BOND
     1    2    1 2    
     2    3    1 1    
     3    4    1 am   
     4  103    3 1    
     5  104    3 1    
     6  105    3 1    
     7    5    4 1    
     8   55    4 1    
     9    6    5 1    
    10    8    5 1    
    11   56    5 1    
    12    7    6 2    
    13   11    6 am   
    14    9    8 1    
    15   10    8 1    
    16   57    8 1    
    17  121    9 1    
    18  106   10 1    
    19  107   10 1    
    20  108   10 1    
    21   12   11 1    
    22   58   11 1    
    23   13   12 1    
    24   15   12 1    
    25   59   12 1    
    26   14   13 2    
    27   19   13 am   
    28   16   15 1    
    29   17   15 1    
    30   60   15 1    
    31   18   16 1    
    32   61   16 1    
    33   62   16 1    
    34  109   17 1    
    35  110   17 1    
    36  111   17 1    
    37  112   18 1    
    38  113   18 1    
    39  114   18 1    
    40   20   19 1    
    41   63   19 1    
    42   21   20 1    
    43   22   20 1    
    44   64   20 1    
    45   26   21 1    
    46   65   21 1    
    47   66   21 1    
    48   23   22 1    
    49   67   22 1    
    50   68   22 1    
    51   24   23 1    
    52   69   23 1    
    53   70   23 1    
    54   25   24 1    
    55   71   24 1    
    56   72   24 1    
    57  115   25 1    
    58  116   25 1    
    59  117   25 1    
    60   27   26 1    
    61   28   27 1    
    62   30   27 1    
    63   73   27 1    
    64   29   28 2    
    65   34   28 am   
    66   31   30 1    
    67   74   30 1    
    68   75   30 1    
    69   32   31 1    
    70   76   31 1    
    71   77   31 1    
    72   33   32 1    
    73   78   32 1    
    74   79   32 1    
    75  118   33 1    
    76  119   33 1    
    77  120   33 1    
    78   35   34 1    
    79   80   34 1    
    80   36   35 1    
    81   38   35 1    
    82   81   35 1    
    83   37   36 2    
    84   43   36 am   
    85   39   38 1    
    86   82   38 1    
    87   83   38 1    
    88   40   39 1    
    89   84   39 1    
    90   85   39 1    
    91   41   40 2    
    92   42   40 am   
    93   86   42 1    
    94   87   42 1    
    95   44   43 1    
    96   88   43 1    
    97   45   44 1    
    98   47   44 1    
    99   89   44 1    
   100   46   45 2    
   101   54   45 am   
   102   48   47 1    
   103   90   47 1    
   104   91   47 1    
   105   49   48 1    
   106   92   48 1    
   107   93   48 1    
   108   50   49 1    
   109   94   49 1    
   110   95   49 1    
   111   51   50 ar   
   112   96   50 1    
   113   52   51 ar   
   114   53   51 ar   
   115   97   52 1    
   116   98   52 1    
   117   99   53 1    
   118  100   53 1    
   119  101   54 1    
   120  102   54 1    
@<TRIPOS>SUBSTRUCTURE
     1 2NC204      1 GROUP   
@<TRIPOS>SET

