#    Name: 4bfp_SWY_2_INTS_M
#    Modification time : Tue Mar 25 07:36:27 2014

@<TRIPOS>MOLECULE
4bfp_SWY_2_INTS_M
   95     0     6     0     0
SMALL
NO_CHARGES


@<TRIPOS>ATOM
      1 CA        -44.6225  -40.2030   24.5730 C.3       2 GLC5        0.0000 
      2 CA        -44.5780  -38.5980   24.0110 C.3       6 GLL5        0.0000 
      3 CA        -44.6670  -41.8080   25.1350 C.3       4 GLP5        0.0000 
      4 CA        -43.4470  -39.8205   24.9480 C.3       2 GLC5        0.0000 
      5 CA        -43.2200  -38.4240   23.8090 C.3       6 GLL5        0.0000 
      6 CA        -43.6740  -41.2170   26.0870 C.3       4 GLP5        0.0000 
      7 CA        -38.3985  -37.5670   23.2005 C.3       2 GLC5        0.0000 
      8 CA        -40.4880  -38.0580   23.4190 C.3       6 GLL5        0.0000 
      9 CA        -36.3090  -37.0760   22.9820 C.3       4 GLP5        0.0000 
     10 CA        -40.6530  -39.9505   20.7160 C.3       2 GLC5        0.0000 
     11 CA        -41.1980  -38.9470   22.6230 C.3       6 GLL5        0.0000 
     12 CA        -40.1080  -40.9540   18.8090 C.3       4 GLP5        0.0000 
     13 N         -41.6345  -41.4645   20.9635 N.am      1 SEC2        0.0000 
     14 N         -42.7130  -40.6560   21.1370 N.am      5 SEL2        0.0000 
     15 N         -40.5560  -42.2730   20.7900 N.am      3 SEP2        0.0000 
     16 CA        -45.0360  -41.4890   23.2470 C.3       2 GLC5        0.0000 
     17 CA        -45.4050  -41.1700   21.3590 C.3       6 GLL5        0.0000 
     18 CA        -46.1515  -43.2715   21.5275 C.3       2 GLC5        0.0000 
     19 CA        -46.8980  -45.3730   21.6960 C.3       4 GLP5        0.0000 
     20 CA        -44.3075  -40.4675   18.4670 C.3       2 GLC5        0.0000 
     21 CA        -45.8000  -40.6020   19.9740 C.3       6 GLL5        0.0000 
     22 CA        -42.8150  -40.3330   16.9600 C.3       4 GLP5        0.0000 
     23 N         -49.5430  -42.3930   17.0595 N.am      1 SEC2        0.0000 
     24 N         -50.0630  -41.6470   18.3040 N.am      5 SEL2        0.0000 
     25 N         -49.0230  -43.1390   15.8150 N.am      3 SEP2        0.0000 
     26 CA        -55.5820  -43.9465   19.0880 C.3       2 GLC5        0.0000 
     27 CA        -54.4060  -42.4180   18.9540 C.3       6 GLL5        0.0000 
     28 CA        -56.7580  -45.4750   19.2220 C.3       4 GLP5        0.0000 
     29 N         -55.0820  -36.9470   22.7860 N.am      1 SEC2        0.0000 
     30 N         -53.7340  -37.2160   23.3990 N.am      5 SEL2        0.0000 
     31 N         -56.4300  -36.6780   22.1730 N.am      3 SEP2        0.0000 
     32 CA        -52.1990  -35.2790   23.5135 C.3       2 GLC5        0.0000 
     33 CA        -52.9970  -36.7920   24.5080 C.3       6 GLL5        0.0000 
     34 CA        -51.4010  -33.7660   22.5190 C.3       4 GLP5        0.0000 
     35 CA        -51.0165  -36.5155   24.8635 C.3       2 GLC5        0.0000 
     36 CA        -49.0360  -36.2390   25.2190 C.3       4 GLP5        0.0000 
     37 CA        -54.1055  -35.6910   23.3670 C.3       2 GLC5        0.0000 
     38 CA        -55.2140  -34.5900   22.2260 C.3       4 GLP5        0.0000 
     39 CA        -54.5725  -38.1585   23.6790 C.3       2 GLC5        0.0000 
     40 CA        -56.1480  -39.5250   22.8500 C.3       4 GLP5        0.0000 
     41 CA        -44.8065  -36.8465   23.3175 C.3       2 GLC5        0.0000 
     42 CA        -45.7140  -35.1820   22.7250 C.3       4 GLP5        0.0000 
     43 CA        -45.2900  -36.3075   24.0688 C.3       2 GLC5        0.0000 
     44 CA        -45.2240  -37.8790   25.0150 C.3       6 GLL5        0.0000 
     45 CA        -44.2692  -36.1765   23.9165 C.3       2 GLC5        0.0000 
     46 CA        -43.1460  -36.8140   25.6050 C.3       6 GLL5        0.0000 
     47 CA        -41.8897  -35.4650   24.4620 C.3       2 GLC5        0.0000 
     48 CA        -40.9550  -33.7590   23.8160 C.3       4 GLP5        0.0000 
     49 CA        -43.8400  -39.1703   25.7979 C.3       2 GLC5        0.0000 
     50 CA        -42.0700  -39.3447   25.3050 C.3       2 GLC5        0.0000 
     51 CA        -42.5030  -37.5280   24.6110 C.3       6 GLL5        0.0000 
     52 CA        -42.3200  -41.2510   26.0990 C.3       4 GLP5        0.0000 
     53 CA        -40.8837  -35.7313   23.8655 C.3       2 GLC5        0.0000 
     54 CA        -41.1370  -37.3490   24.4110 C.3       6 GLL5        0.0000 
     55 CA        -40.8620  -40.8533   22.9118 C.3       2 GLC5        0.0000 
     56 CA        -39.8360  -42.6680   23.1000 C.3       4 GLP5        0.0000 
     57 CA        -42.1040  -40.1448   24.4113 C.3       2 GLC5        0.0000 
     58 CA        -42.0588  -37.7246   21.2888 C.3       2 GLC5        0.0000 
     59 CA        -42.5780  -39.1300   22.8240 C.3       6 GLL5        0.0000 
     60 CA        -42.4070  -36.6330   19.6550 C.3       4 GLP5        0.0000 
     61 CA        -45.4342  -42.5445   19.5673 C.3       2 GLC5        0.0000 
     62 CA        -45.2660  -44.2030   18.4680 C.3       4 GLP5        0.0000 
     63 CA        -44.9650  -38.4110   19.5048 C.3       2 GLC5        0.0000 
     64 CA        -43.7290  -36.8650   18.9540 C.3       4 GLP5        0.0000 
     65 CA        -48.2237  -37.9105   19.9378 C.3       2 GLC5        0.0000 
     66 CA        -46.6020  -39.3120   20.1370 C.3       6 GLL5        0.0000 
     67 CA        -49.0640  -36.4120   19.2600 C.3       4 GLP5        0.0000 
     68 CA        -47.6022  -37.9405   21.8938 C.3       2 GLC5        0.0000 
     69 CA        -48.1650  -39.5060   21.0940 C.3       6 GLL5        0.0000 
     70 CA        -47.8210  -36.4720   23.1720 C.3       4 GLP5        0.0000 
     71 CA        -54.5575  -41.0992   20.3695 C.3       2 GLC5        0.0000 
     72 CA        -53.0820  -42.1710   19.3180 C.3       6 GLL5        0.0000 
     73 CA        -55.3710  -39.9040   21.6030 C.3       4 GLP5        0.0000 
     74 CA        -52.3271  -41.7465   16.3392 C.3       2 GLC5        0.0000 
     75 CA        -52.3130  -41.3050   18.5730 C.3       6 GLL5        0.0000 
     76 CA        -51.2810  -42.5120   15.1060 C.3       4 GLP5        0.0000 
     77 CA        -53.9417  -38.7415   17.2437 C.3       2 GLC5        0.0000 
     78 CA        -52.8460  -40.7050   17.4770 C.3       6 GLL5        0.0000 
     79 CA        -54.3770  -36.6520   17.1890 C.3       4 GLP5        0.0000 
     80 CA        -50.3935  -37.6908   19.9095 C.3       2 GLC5        0.0000 
     81 CA        -52.0440  -38.3920   20.3250 C.3       6 GLL5        0.0000 
     82 CA        -53.4183  -39.8175   21.5340 C.3       2 GLC5        0.0000 
     83 CA        -51.4020  -39.5470   20.7930 C.3       6 GLL5        0.0000 
     84 CA        -52.3907  -41.3023   23.4370 C.3       2 GLC5        0.0000 
     85 CA        -52.3080  -39.1400   22.9990 C.3       6 GLL5        0.0000 
     86 CA        -52.8630  -43.0770   24.3060 C.3       4 GLP5        0.0000 
     87 CA        -54.0008  -39.2338   22.1835 C.3       2 GLC5        0.0000 
     88 CA        -51.8260  -36.2535   21.7085 C.3       2 GLC5        0.0000 
     89 CA        -52.9530  -37.9870   22.5290 C.3       6 GLL5        0.0000 
     90 CA        -50.7650  -34.7050   21.5550 C.3       4 GLP5        0.0000 
     91 CA        -54.0505  -36.1960   22.0440 C.3       2 GLC5        0.0000 
     92 CA        -52.8210  -37.6170   21.1950 C.3       6 GLL5        0.0000 
     93 CA        -51.1735  -36.7815   20.5837 C.3       2 GLC5        0.0000 
     94 CA        -53.4047  -37.3283   18.9745 C.3       2 GLC5        0.0000 
     95 CA        -53.9017  -38.9543   21.1815 C.3       2 GLC5        0.0000 
@<TRIPOS>BOND
@<TRIPOS>SUBSTRUCTURE
     1 SEC2       13 GROUP        1 X    SEC  0     ROOT SEC X 2
     2 GLC5        1 GROUP        1 X    GLC  0     **** GLC X 6
     3 SEP2       15 GROUP        1 Y    SEP  0     ROOT SEP Y 9
     4 GLP5        3 GROUP        1 Y    GLP  0     **** GLP Y 13
     5 SEL2       14 GROUP        1 Z    SEL  0     ROOT SEL Z 16
     6 GLL5        2 GROUP        1 Z    GLL  0     **** GLL Z 20
@<TRIPOS>SET

