#    Name: 4bfp_SWY_2_ligand
#    Modification time : Tue Mar 25 07:36:27 2014

@<TRIPOS>MOLECULE
4bfp_SWY_2_ligand
   61    66     1     0     0
SMALL
NO_CHARGES


@<TRIPOS>ATOM
      1 OAQ       -46.5010  -39.6450   23.3950 O.2       1 SWY2162     0.0000 
      2 CAP       -45.3070  -39.5060   23.1960 C.2       1 SWY2162     0.0000 
      3 CAR       -44.5780  -38.5980   24.0110 C.ar      1 SWY2162     0.0000 
      4 CBC       -43.2200  -38.4240   23.8090 C.ar      1 SWY2162     0.0000 
      5 CAS       -45.2240  -37.8790   25.0150 C.ar      1 SWY2162     0.0000 
      6 CAT       -44.5080  -36.9870   25.8100 C.ar      1 SWY2162     0.0000 
      7 CAU       -43.1460  -36.8140   25.6050 C.ar      1 SWY2162     0.0000 
      8 CAV       -42.5030  -37.5280   24.6110 C.ar      1 SWY2162     0.0000 
      9 CAW       -41.1370  -37.3490   24.4110 C.ar      1 SWY2162     0.0000 
     10 CAX       -40.4880  -38.0580   23.4190 C.ar      1 SWY2162     0.0000 
     11 CAY       -41.1980  -38.9470   22.6230 C.ar      1 SWY2162     0.0000 
     12 CAZ       -42.5780  -39.1300   22.8240 C.ar      1 SWY2162     0.0000 
     13 CBA       -43.2980  -40.0330   22.0200 C.2       1 SWY2162     0.0000 
     14 OBB       -42.7130  -40.6560   21.1370 O.2       1 SWY2162     0.0000 
     15 NAO       -44.6720  -40.2140   22.2120 N.am      1 SWY2162     0.0000 
     16 CAN       -45.4050  -41.1700   21.3590 C.3       1 SWY2162     0.0000 
     17 CAM       -45.8000  -40.6020   19.9740 C.3       1 SWY2162     0.0000 
     18 CAL       -46.6020  -39.3120   20.1370 C.3       1 SWY2162     0.0000 
     19 SAK       -48.1650  -39.5060   21.0940 S.3       1 SWY2162     0.0000 
     20 CAJ       -49.2490  -40.3600   19.9510 C.2       1 SWY2162     0.0000 
     21 NBD       -48.8690  -41.2430   18.8860 N.2       1 SWY2162     0.0000 
     22 NBE       -50.0630  -41.6470   18.3040 N.2       1 SWY2162     0.0000 
     23 CBF       -50.9810  -41.0720   18.9410 C.2       1 SWY2162     0.0000 
     24 CBG       -52.3130  -41.3050   18.5730 C.ar      1 SWY2162     0.0000 
     25 CBH       -53.0820  -42.1710   19.3180 C.ar      1 SWY2162     0.0000 
     26 CBI       -54.4060  -42.4180   18.9540 C.ar      1 SWY2162     0.0000 
     27 NBJ       -54.9320  -41.8120   17.8650 N.ar      1 SWY2162     0.0000 
     28 CBK       -54.1670  -40.9570   17.1200 C.ar      1 SWY2162     0.0000 
     29 CBL       -52.8460  -40.7050   17.4770 C.ar      1 SWY2162     0.0000 
     30 NAI       -50.6230  -40.3010   19.9290 N.pl3     1 SWY2162     0.0000 
     31 CAF       -51.4020  -39.5470   20.7930 C.ar      1 SWY2162     0.0000 
     32 CAE       -51.5290  -39.9150   22.1370 C.ar      1 SWY2162     0.0000 
     33 CAD       -52.3080  -39.1400   22.9990 C.ar      1 SWY2162     0.0000 
     34 CAC       -52.9530  -37.9870   22.5290 C.ar      1 SWY2162     0.0000 
     35 OAB       -53.7340  -37.2160   23.3990 O.3       1 SWY2162     0.0000 
     36 CAA       -52.9970  -36.7920   24.5080 C.3       1 SWY2162     0.0000 
     37 CAH       -52.8210  -37.6170   21.1950 C.ar      1 SWY2162     0.0000 
     38 CAG       -52.0440  -38.3920   20.3250 C.ar      1 SWY2162     0.0000 
     39 H         -46.2331  -38.0077   25.1693 H         1 SWY2162     0.0000 
     40 H         -44.9902  -36.4578   26.5480 H         1 SWY2162     0.0000 
     41 H         -42.6181  -36.1548   26.1932 H         1 SWY2162     0.0000 
     42 H         -40.6162  -36.6887   25.0035 H         1 SWY2162     0.0000 
     43 H         -39.4772  -37.9295   23.2671 H         1 SWY2162     0.0000 
     44 H         -40.7212  -39.4765   21.8828 H         1 SWY2162     0.0000 
     45 H         -46.3327  -41.5032   21.8609 H         1 SWY2162     0.0000 
     46 H         -44.7981  -42.0787   21.1872 H         1 SWY2162     0.0000 
     47 H         -46.3989  -41.3399   19.4512 H         1 SWY2162     0.0000 
     48 H         -44.8969  -40.4006   19.4080 H         1 SWY2162     0.0000 
     49 H         -46.9667  -38.9057   19.2070 H         1 SWY2162     0.0000 
     50 H         -46.0923  -38.5515   20.7070 H         1 SWY2162     0.0000 
     51 H         -52.6872  -42.6404   20.1453 H         1 SWY2162     0.0000 
     52 H         -54.9692  -43.0671   19.5288 H         1 SWY2162     0.0000 
     53 H         -54.5625  -40.4908   16.2861 H         1 SWY2162     0.0000 
     54 H         -52.2829  -40.0594   16.8990 H         1 SWY2162     0.0000 
     55 H         -51.0512  -40.7512   22.4868 H         1 SWY2162     0.0000 
     56 H         -52.4107  -39.4144   23.9845 H         1 SWY2162     0.0000 
     57 H         -53.2923  -36.7748   20.8430 H         1 SWY2162     0.0000 
     58 H         -51.9440  -38.1142   19.3424 H         1 SWY2162     0.0000 
     59 H         -52.6444  -37.5640   25.0368 H         1 SWY2162     0.0000 
     60 H         -52.2099  -36.2362   24.2404 H         1 SWY2162     0.0000 
     61 H         -53.5490  -36.2378   25.1309 H         1 SWY2162     0.0000 
@<TRIPOS>BOND
     1    2    1 2    
     2    3    2 1    
     3   15    2 am   
     4    4    3 ar   
     5    5    3 ar   
     6    8    4 ar   
     7   12    4 ar   
     8    6    5 ar   
     9   39    5 1    
    10    7    6 ar   
    11   40    6 1    
    12    8    7 ar   
    13   41    7 1    
    14    9    8 ar   
    15   10    9 ar   
    16   42    9 1    
    17   11   10 ar   
    18   43   10 1    
    19   12   11 ar   
    20   44   11 1    
    21   13   12 1    
    22   14   13 2    
    23   15   13 am   
    24   16   15 1    
    25   17   16 1    
    26   45   16 1    
    27   46   16 1    
    28   18   17 1    
    29   47   17 1    
    30   48   17 1    
    31   19   18 1    
    32   49   18 1    
    33   50   18 1    
    34   20   19 1    
    35   21   20 2    
    36   30   20 1    
    37   22   21 1    
    38   23   22 2    
    39   24   23 1    
    40   30   23 1    
    41   25   24 ar   
    42   29   24 ar   
    43   26   25 ar   
    44   51   25 1    
    45   27   26 ar   
    46   52   26 1    
    47   28   27 ar   
    48   29   28 ar   
    49   53   28 1    
    50   54   29 1    
    51   31   30 1    
    52   32   31 ar   
    53   38   31 ar   
    54   33   32 ar   
    55   55   32 1    
    56   34   33 ar   
    57   56   33 1    
    58   35   34 1    
    59   37   34 ar   
    60   36   35 1    
    61   59   36 1    
    62   60   36 1    
    63   61   36 1    
    64   38   37 ar   
    65   57   37 1    
    66   58   38 1    
@<TRIPOS>SUBSTRUCTURE
     1 SWY2162     1 GROUP   
@<TRIPOS>SET

