#    Name: 4j08_1JH_1_INTS_M
#    Modification time : Tue Mar 25 04:58:09 2014

@<TRIPOS>MOLECULE
4j08_1JH_1_INTS_M
   52     0     6     0     0
SMALL
NO_CHARGES


@<TRIPOS>ATOM
      1 CA        -27.3465   46.7485   56.4810 C.3       2 GLC5        0.0000 
      2 CA        -27.6580   48.8680   55.8320 C.3       6 GLL5        0.0000 
      3 CA        -27.0350   44.6290   57.1300 C.3       4 GLP5        0.0000 
      4 N         -22.1320   45.5965   55.2660 N.am      1 SEC2        0.0000 
      5 N         -22.3270   46.8260   55.8740 N.am      5 SEL2        0.0000 
      6 N         -21.9370   44.3670   54.6580 N.am      3 SEP2        0.0000 
      7 N         -24.2565   45.6790   56.6845 N.am      1 SEC2        0.0000 
      8 N         -24.4000   47.0270   56.7470 N.am      5 SEL2        0.0000 
      9 N         -24.1130   44.3310   56.6220 N.am      3 SEP2        0.0000 
     10 CA        -23.3040   54.4980   52.5590 C.3       2 GLC5        0.0000 
     11 CA        -21.7280   53.6320   53.0700 C.3       6 GLL5        0.0000 
     12 CA        -24.8800   55.3640   52.0480 C.3       4 GLP5        0.0000 
     13 CA        -22.6790   55.0330   54.4070 C.3       2 GLC5        0.0000 
     14 CA        -23.6300   56.4340   55.7440 C.3       4 GLP5        0.0000 
     15 CA        -22.3320   55.2685   51.7790 C.3       2 GLC5        0.0000 
     16 CA        -20.6260   54.5590   52.9500 C.3       6 GLL5        0.0000 
     17 CA        -24.0380   55.9780   50.6080 C.3       4 GLP5        0.0000 
     18 CA        -20.4425   53.8920   50.8890 C.3       2 GLC5        0.0000 
     19 CA        -20.2590   53.2250   48.8280 C.3       4 GLP5        0.0000 
     20 CA        -20.6675   55.9055   51.4020 C.3       2 GLC5        0.0000 
     21 CA        -20.7090   57.2520   49.8540 C.3       4 GLP5        0.0000 
     22 CA        -17.6265   54.4420   52.7375 C.3       2 GLC5        0.0000 
     23 CA        -19.4410   54.3860   53.7480 C.3       6 GLL5        0.0000 
     24 CA        -15.8120   54.4980   51.7270 C.3       4 GLP5        0.0000 
     25 CA        -26.2860   50.1385   52.2165 C.3       2 GLC5        0.0000 
     26 CA        -28.3260   50.0470   52.2250 C.3       6 GLL5        0.0000 
     27 CA        -24.2460   50.2300   52.2080 C.3       4 GLP5        0.0000 
     28 CA        -29.1640   50.2000   50.6360 C.3       2 GLC5        0.0000 
     29 CA        -30.0020   50.3530   49.0470 C.3       4 GLP5        0.0000 
     30 CA        -30.0250   50.5495   53.0020 C.3       2 GLC5        0.0000 
     31 CA        -31.7240   51.0520   53.7790 C.3       4 GLP5        0.0000 
     32 CA        -29.7022   49.4062   54.9688 C.3       2 GLC5        0.0000 
     33 CA        -28.0590   48.8810   54.4670 C.3       6 GLL5        0.0000 
     34 CA        -31.5460   49.9380   54.7880 C.3       4 GLP5        0.0000 
     35 CA        -29.5727   50.2870   54.3730 C.3       2 GLC5        0.0000 
     36 CA        -27.3060   51.2210   54.2500 C.3       6 GLL5        0.0000 
     37 CA        -26.3960   53.1543   55.1367 C.3       2 GLC5        0.0000 
     38 CA        -25.6890   55.0890   55.3390 C.3       4 GLP5        0.0000 
     39 CA        -25.7479   50.5785   53.4982 C.3       2 GLC5        0.0000 
     40 CA        -26.9000   51.2180   55.6190 C.3       6 GLL5        0.0000 
     41 CA        -20.2005   48.9350   55.6480 C.3       2 GLC5        0.0000 
     42 CA        -21.8250   49.5050   56.1420 C.3       6 GLL5        0.0000 
     43 CA        -18.7520   47.6890   55.0320 C.3       4 GLP5        0.0000 
     44 CA        -23.5135   52.9310   57.3683 C.3       2 GLC5        0.0000 
     45 CA        -22.3080   51.6470   57.2370 C.3       6 GLL5        0.0000 
     46 CA        -24.1350   54.4940   57.2060 C.3       4 GLP5        0.0000 
     47 CA        -18.6020   51.4877   54.3765 C.3       2 GLC5        0.0000 
     48 CA        -20.4490   52.3520   54.7950 C.3       6 GLL5        0.0000 
     49 CA        -17.3030   50.1560   54.0220 C.3       4 GLP5        0.0000 
     50 CA        -21.6349   51.4251   52.6036 C.3       2 GLC5        0.0000 
     51 CA        -21.6420   52.5330   53.9860 C.3       6 GLL5        0.0000 
     52 CA        -21.8830   49.8130   51.4770 C.3       4 GLP5        0.0000 
@<TRIPOS>BOND
@<TRIPOS>SUBSTRUCTURE
     1 SEC2        4 GROUP        1 X    SEC  0     ROOT SEC X 2
     2 GLC5        1 GROUP        1 X    GLC  0     **** GLC X 6
     3 SEP2        6 GROUP        1 Y    SEP  0     ROOT SEP Y 9
     4 GLP5        3 GROUP        1 Y    GLP  0     **** GLP Y 13
     5 SEL2        5 GROUP        1 Z    SEL  0     ROOT SEL Z 16
     6 GLL5        2 GROUP        1 Z    GLL  0     **** GLL Z 20
@<TRIPOS>SET

