#    Name: 4j08_1JH_1_ligand
#    Modification time : Tue Mar 25 04:58:09 2014

@<TRIPOS>MOLECULE
4j08_1JH_1_ligand
   43    45     1     0     0
SMALL
NO_CHARGES


@<TRIPOS>ATOM
      1 C1        -27.6580   48.8680   55.8320 C.ar      1 1JH601      0.0000 
      2 C2        -28.0590   48.8810   54.4670 C.ar      1 1JH601      0.0000 
      3 C3        -27.8930   50.0510   53.6660 C.ar      1 1JH601      0.0000 
      4 C4        -27.3060   51.2210   54.2500 C.ar      1 1JH601      0.0000 
      5 C5        -26.9000   51.2180   55.6190 C.ar      1 1JH601      0.0000 
      6 C6        -27.0770   50.0330   56.4030 C.ar      1 1JH601      0.0000 
      7 S7        -26.5850   50.0120   58.1270 S.o2      1 1JH601      0.0000 
      8 O8        -26.4910   51.4050   58.5560 O.2       1 1JH601      0.0000 
      9 O9        -27.5780   49.1630   58.7850 O.2       1 1JH601      0.0000 
     10 N10       -25.0570   49.1760   58.1960 N.pl3     1 1JH601      0.0000 
     11 C11       -23.8400   49.7330   57.5790 C.ar      1 1JH601      0.0000 
     12 C12       -22.9880   48.9270   56.7230 C.ar      1 1JH601      0.0000 
     13 C13       -21.8250   49.5050   56.1420 C.ar      1 1JH601      0.0000 
     14 C14       -21.4730   50.8570   56.3860 C.ar      1 1JH601      0.0000 
     15 C15       -22.3080   51.6470   57.2370 C.ar      1 1JH601      0.0000 
     16 C16       -23.4760   51.0890   57.8240 C.ar      1 1JH601      0.0000 
     17 C17       -23.3250   47.5320   56.4600 C.2       1 1JH601      0.0000 
     18 O18       -22.3270   46.8260   55.8740 O.co2     1 1JH601      0.0000 
     19 O19       -24.4000   47.0270   56.7470 O.co2     1 1JH601      0.0000 
     20 O20       -20.3080   51.2410   55.7410 O.3       1 1JH601      0.0000 
     21 C21       -20.4490   52.3520   54.7950 C.ar      1 1JH601      0.0000 
     22 C22       -21.6420   52.5330   53.9860 C.ar      1 1JH601      0.0000 
     23 C23       -21.7280   53.6320   53.0700 C.ar      1 1JH601      0.0000 
     24 C24       -20.6260   54.5590   52.9500 C.ar      1 1JH601      0.0000 
     25 C25       -19.4410   54.3860   53.7480 C.ar      1 1JH601      0.0000 
     26 C26       -19.3530   53.2870   54.6670 C.ar      1 1JH601      0.0000 
     27 C28       -28.3260   50.0470   52.2250 C.3       1 1JH601      0.0000 
     28 H         -27.7860   48.0329   56.3935 H         1 1JH601      0.0000 
     29 H         -28.4719   48.0420   54.0521 H         1 1JH601      0.0000 
     30 H         -27.1789   52.0570   53.6841 H         1 1JH601      0.0000 
     31 H         -26.4908   52.0448   56.0329 H         1 1JH601      0.0000 
     32 H         -25.1229   48.3293   58.6781 H         1 1JH601      0.0000 
     33 H         -21.2292   48.9296   55.5335 H         1 1JH601      0.0000 
     34 H         -22.0597   52.6196   57.4220 H         1 1JH601      0.0000 
     35 H         -24.0640   51.6667   58.4303 H         1 1JH601      0.0000 
     36 H         -22.4076   51.8785   54.0755 H         1 1JH601      0.0000 
     37 H         -22.5573   53.7631   52.5056 H         1 1JH601      0.0000 
     38 H         -20.6905   55.3338   52.3000 H         1 1JH601      0.0000 
     39 H         -18.6728   55.0383   53.6602 H         1 1JH601      0.0000 
     40 H         -18.5201   53.1613   55.2316 H         1 1JH601      0.0000 
     41 H         -28.1532   50.9271   51.7828 H         1 1JH601      0.0000 
     42 H         -27.8418   49.3519   51.6936 H         1 1JH601      0.0000 
     43 H         -29.3037   49.8590   52.1315 H         1 1JH601      0.0000 
@<TRIPOS>BOND
     1    2    1 ar   
     2    6    1 ar   
     3   28    1 1    
     4    3    2 ar   
     5   29    2 1    
     6    4    3 ar   
     7   27    3 1    
     8    5    4 ar   
     9   30    4 1    
    10    6    5 ar   
    11   31    5 1    
    12    7    6 1    
    13    8    7 2    
    14    9    7 2    
    15   10    7 1    
    16   11   10 1    
    17   32   10 1    
    18   12   11 ar   
    19   16   11 ar   
    20   13   12 ar   
    21   17   12 1    
    22   14   13 ar   
    23   33   13 1    
    24   15   14 ar   
    25   20   14 1    
    26   16   15 ar   
    27   34   15 1    
    28   35   16 1    
    29   18   17 ar   
    30   19   17 ar   
    31   21   20 1    
    32   22   21 ar   
    33   26   21 ar   
    34   23   22 ar   
    35   36   22 1    
    36   24   23 ar   
    37   37   23 1    
    38   25   24 ar   
    39   38   24 1    
    40   26   25 ar   
    41   39   25 1    
    42   40   26 1    
    43   41   27 1    
    44   42   27 1    
    45   43   27 1    
@<TRIPOS>SUBSTRUCTURE
     1 1JH601      1 GROUP   
@<TRIPOS>SET

