#    Name: 3v9b_IHM_4_INTS_M
#    Modification time : Tue Mar 25 00:19:06 2014

@<TRIPOS>MOLECULE
3v9b_IHM_4_INTS_M
   80     0     6     0     0
SMALL
NO_CHARGES


@<TRIPOS>ATOM
      1 CA        -22.2825    1.9000  -11.8155 C.3       2 GLC5        0.0000 
      2 CA        -23.6220    3.6920  -11.6030 C.3       6 GLL5        0.0000 
      3 CA        -20.9430    0.1080  -12.0280 C.3       4 GLP5        0.0000 
      4 CA        -22.7955    0.8195  -11.0430 C.3       2 GLC5        0.0000 
      5 CA        -24.6480    1.5310  -10.0580 C.3       6 GLL5        0.0000 
      6 N         -25.6860    1.5405  -14.4320 N.am      1 SEC2        0.0000 
      7 N         -24.8110    2.6020  -13.6210 N.am      5 SEL2        0.0000 
      8 N         -26.5610    0.4790  -15.2430 N.am      3 SEP2        0.0000 
      9 CA        -21.3755    4.2330  -13.5965 C.3       2 GLC5        0.0000 
     10 CA        -23.1270    3.7720  -14.7200 C.3       6 GLL5        0.0000 
     11 CA        -19.6240    4.6940  -12.4730 C.3       4 GLP5        0.0000 
     12 CA        -26.5575    5.6555  -13.8920 C.3       2 GLC5        0.0000 
     13 CA        -25.0470    4.7670  -14.1710 C.3       6 GLL5        0.0000 
     14 CA        -28.0680    6.5440  -13.6130 C.3       4 GLP5        0.0000 
     15 CA        -26.3370    4.1740  -12.5895 C.3       2 GLC5        0.0000 
     16 CA        -27.6270    3.5810  -11.0080 C.3       4 GLP5        0.0000 
     17 N         -26.1360    0.5545  -13.6880 N.am      1 SEC2        0.0000 
     18 N         -25.7110    0.6300  -12.1330 N.am      5 SEL2        0.0000 
     19 CA        -24.2190   -1.8590  -10.9440 C.3       2 GLC5        0.0000 
     20 CA        -25.6490   -0.7450  -11.7080 C.3       6 GLL5        0.0000 
     21 CA        -22.7890   -2.9730  -10.1800 C.3       4 GLP5        0.0000 
     22 CA        -25.0285   -3.2465  -14.0960 C.3       2 GLC5        0.0000 
     23 CA        -26.4030   -2.9590  -12.5060 C.3       6 GLL5        0.0000 
     24 CA        -23.6540   -3.5340  -15.6860 C.3       4 GLP5        0.0000 
     25 CA        -24.5960   -2.9660  -11.3430 C.3       2 GLC5        0.0000 
     26 CA        -29.0305   -0.6545  -12.0865 C.3       2 GLC5        0.0000 
     27 CA        -27.7700   -2.2860  -12.4300 C.3       6 GLL5        0.0000 
     28 CA        -30.2910    0.9770  -11.7430 C.3       4 GLP5        0.0000 
     29 CA        -24.6210    4.1400   -7.2245 C.3       2 GLC5        0.0000 
     30 CA        -23.6090    2.4740   -7.9520 C.3       6 GLL5        0.0000 
     31 CA        -25.6330    5.8060   -6.4970 C.3       4 GLP5        0.0000 
     32 CA        -25.6015    3.0195   -8.7820 C.3       2 GLC5        0.0000 
     33 CA        -27.5940    3.5650   -9.6120 C.3       4 GLP5        0.0000 
     34 N         -22.9240    2.0550   -0.9555 N.am      1 SEC2        0.0000 
     35 N         -21.6740    1.7720   -1.9970 N.am      5 SEL2        0.0000 
     36 N         -24.1740    2.3380    0.0860 N.am      3 SEP2        0.0000 
     37 CA        -25.7090    3.8680   -6.5890 C.3       2 GLC5        0.0000 
     38 CA        -25.7850    1.9300   -6.6810 C.3       6 GLL5        0.0000 
     39 CA        -28.5220    0.7910   -6.1900 C.3       2 GLC5        0.0000 
     40 CA        -26.3280    0.7500   -6.1500 C.3       6 GLL5        0.0000 
     41 CA        -30.7160    0.8320   -6.2300 C.3       4 GLP5        0.0000 
     42 CA        -25.3015   -4.5100   -7.9815 C.3       2 GLC5        0.0000 
     43 CA        -24.2410   -3.9590   -6.2680 C.3       6 GLL5        0.0000 
     44 CA        -26.3620   -5.0610   -9.6950 C.3       4 GLP5        0.0000 
     45 CA        -20.9560    1.2820   -9.3410 C.3       2 GLC5        0.0000 
     46 CA        -22.0910    2.1010   -7.6050 C.3       6 GLL5        0.0000 
     47 CA        -19.8210    0.4630  -11.0770 C.3       4 GLP5        0.0000 
     48 CA        -20.0240   -5.2645   -5.4560 C.3       2 GLC5        0.0000 
     49 CA        -20.8400   -5.4650   -7.2190 C.3       6 GLL5        0.0000 
     50 CA        -19.2080   -5.0640   -3.6930 C.3       4 GLP5        0.0000 
     51 CA        -20.6820   -4.0025   -8.3580 C.3       2 GLC5        0.0000 
     52 CA        -20.5240   -2.5400   -9.4970 C.3       4 GLP5        0.0000 
     53 CA        -21.0955   -6.8150   -8.4330 C.3       2 GLC5        0.0000 
     54 CA        -21.3510   -8.1650   -9.6470 C.3       4 GLP5        0.0000 
     55 CA        -23.9205    4.5090   -5.8820 C.3       2 GLC5        0.0000 
     56 CA        -22.2080    3.2120   -5.2670 C.3       6 GLL5        0.0000 
     57 CA        -23.4210    1.3450   -3.5195 C.3       2 GLC5        0.0000 
     58 CA        -21.5190    0.7120   -4.0560 C.3       6 GLL5        0.0000 
     59 CA        -25.3230    1.9780   -2.9830 C.3       4 GLP5        0.0000 
     60 CA        -23.3395    1.2275  -13.0610 C.3       2 GLC5        0.0000 
     61 CA        -24.9430    1.5570  -11.4460 C.3       6 GLL5        0.0000 
     62 CA        -21.9850    0.3570  -14.2750 C.3       4 GLP5        0.0000 
     63 CA        -25.8510    4.8168  -15.5412 C.3       2 GLC5        0.0000 
     64 CA        -26.9460    5.4580  -16.7120 C.3       4 GLP5        0.0000 
     65 CA        -23.2220    2.9515  -16.1125 C.3       2 GLC5        0.0000 
     66 CA        -22.6480    2.2250  -17.5800 C.3       4 GLP5        0.0000 
     67 CA        -22.8905    2.0175  -14.4600 C.3       2 GLC5        0.0000 
     68 CA        -24.1912    5.9887  -14.0855 C.3       2 GLC5        0.0000 
     69 CA        -24.4650    3.5840  -14.5700 C.3       6 GLL5        0.0000 
     70 CA        -23.9610    7.7550  -13.7630 C.3       4 GLP5        0.0000 
     71 CA        -22.8732    5.2338  -15.2835 C.3       2 GLC5        0.0000 
     72 CA        -21.3250    6.2450  -16.1590 C.3       4 GLP5        0.0000 
     73 CA        -26.7242   -3.8417  -11.0815 C.3       2 GLC5        0.0000 
     74 CA        -28.2561   -3.1937  -13.6551 C.3       2 GLC5        0.0000 
     75 CA        -29.3800   -4.1380  -14.8170 C.3       4 GLP5        0.0000 
     76 CA        -25.6898    1.6590   -4.6993 C.3       2 GLC5        0.0000 
     77 CA        -26.5365   -5.1180   -6.8955 C.3       2 GLC5        0.0000 
     78 CA        -26.4740   -3.7230   -5.1100 C.3       6 GLL5        0.0000 
     79 CA        -27.1560   -6.0980   -8.4710 C.3       4 GLP5        0.0000 
     80 CA        -23.7390    2.5695   -3.7710 C.3       2 GLC5        0.0000 
@<TRIPOS>BOND
@<TRIPOS>SUBSTRUCTURE
     1 SEC2        6 GROUP        1 X    SEC  0     ROOT SEC X 2
     2 GLC5        1 GROUP        1 X    GLC  0     **** GLC X 6
     3 SEP2        8 GROUP        1 Y    SEP  0     ROOT SEP Y 9
     4 GLP5        3 GROUP        1 Y    GLP  0     **** GLP Y 13
     5 SEL2        7 GROUP        1 Z    SEL  0     ROOT SEL Z 16
     6 GLL5        2 GROUP        1 Z    GLL  0     **** GLL Z 20
@<TRIPOS>SET

