#    Name: 3v9b_IHM_4_ligand
#    Modification time : Tue Mar 25 00:19:07 2014

@<TRIPOS>MOLECULE
3v9b_IHM_4_ligand
   67    71     1     0     0
SMALL
NO_CHARGES


@<TRIPOS>ATOM
      1 C01       -24.4450    2.6390  -12.2480 C.ar      1 IHM1        0.0000 
      2 C02       -23.6220    3.6920  -11.6030 C.ar      1 IHM1        0.0000 
      3 C03       -23.3370    3.6410  -10.2070 C.ar      1 IHM1        0.0000 
      4 C04       -23.8580    2.5500   -9.4310 C.ar      1 IHM1        0.0000 
      5 C05       -24.6480    1.5310  -10.0580 C.ar      1 IHM1        0.0000 
      6 C06       -24.9430    1.5570  -11.4460 C.ar      1 IHM1        0.0000 
      7 O07       -24.8110    2.6020  -13.6210 O.3       1 IHM1        0.0000 
      8 C08       -24.4650    3.5840  -14.5700 C.3       1 IHM1        0.0000 
      9 F09       -23.1270    3.7720  -14.7200 F         1 IHM1        0.0000 
     10 F10       -25.0470    4.7670  -14.1710 F         1 IHM1        0.0000 
     11 O11       -25.7110    0.6300  -12.1330 O.3       1 IHM1        0.0000 
     12 C12       -25.6490   -0.7450  -11.7080 C.3       1 IHM1        0.0000 
     13 C13       -26.5860   -1.4670  -12.6070 C.3       1 IHM1        0.0000 
     14 C14       -26.4030   -2.9590  -12.5060 C.3       1 IHM1        0.0000 
     15 C15       -27.7700   -2.2860  -12.4300 C.3       1 IHM1        0.0000 
     16 C16       -23.6090    2.4740   -7.9520 C.3       1 IHM1        0.0000 
     17 O17       -21.6740    1.7720   -1.9970 O.2       1 IHM1        0.0000 
     18 C18       -25.7850    1.9300   -6.6810 C.2       1 IHM1        0.0000 
     19 C19       -26.3280    0.7500   -6.1500 C.2       1 IHM1        0.0000 
     20 C20       -25.3450   -0.2840   -6.4650 C.2       1 IHM1        0.0000 
     21 N21       -24.3060    0.2690   -7.1410 N.2       1 IHM1        0.0000 
     22 N22       -24.5490    1.5670   -7.2710 N.pl3     1 IHM1        0.0000 
     23 C23       -25.3910   -1.7090   -6.1380 C.ar      1 IHM1        0.0000 
     24 C24       -24.2800   -2.5260   -6.5610 C.ar      1 IHM1        0.0000 
     25 C25       -24.2410   -3.9590   -6.2680 C.ar      1 IHM1        0.0000 
     26 C26       -25.3600   -4.5530   -5.5300 C.ar      1 IHM1        0.0000 
     27 C27       -26.4740   -3.7230   -5.1100 C.ar      1 IHM1        0.0000 
     28 C28       -26.5010   -2.3060   -5.4060 C.ar      1 IHM1        0.0000 
     29 N29       -23.1180   -4.7100   -6.7140 N.am      1 IHM1        0.0000 
     30 C30       -21.7550   -4.4130   -6.6350 C.2       1 IHM1        0.0000 
     31 O31       -21.2930   -3.3570   -6.1220 O.2       1 IHM1        0.0000 
     32 C32       -22.0910    2.1010   -7.6050 C.3       1 IHM1        0.0000 
     33 C33       -20.8400   -5.4650   -7.2190 C.3       1 IHM1        0.0000 
     34 C34       -21.9680    2.0430   -6.0990 C.ar      1 IHM1        0.0000 
     35 C35       -22.2080    3.2120   -5.2670 C.ar      1 IHM1        0.0000 
     36 C36       -22.1020    3.1100   -3.8510 C.ar      1 IHM1        0.0000 
     37 N37       -21.7600    1.8620   -3.2290 N.pl3     1 IHM1        0.0000 
     38 C38       -21.5190    0.7120   -4.0560 C.ar      1 IHM1        0.0000 
     39 C39       -21.6200    0.7930   -5.4650 C.ar      1 IHM1        0.0000 
     40 H         -23.2706    4.4445  -12.1823 H         1 IHM1        0.0000 
     41 H         -22.7801    4.3556   -9.7674 H         1 IHM1        0.0000 
     42 H         -25.0095    0.7595   -9.4785 H         1 IHM1        0.0000 
     43 H         -24.9209    3.2936  -15.5472 H         1 IHM1        0.0000 
     44 H         -25.9767   -0.8544  -10.6850 H         1 IHM1        0.0000 
     45 H         -24.6543   -1.1479  -11.8275 H         1 IHM1        0.0000 
     46 H         -26.4861   -1.3540  -13.6612 H         1 IHM1        0.0000 
     47 H         -26.1420   -3.1595  -11.6221 H         1 IHM1        0.0000 
     48 H         -26.3084   -3.2990  -13.3807 H         1 IHM1        0.0000 
     49 H         -28.2016   -2.4264  -13.2707 H         1 IHM1        0.0000 
     50 H         -28.0352   -2.2870  -11.5121 H         1 IHM1        0.0000 
     51 H         -23.7488    3.4992   -7.5318 H         1 IHM1        0.0000 
     52 H         -26.1545    2.7805   -6.6552 H         1 IHM1        0.0000 
     53 H         -27.1101    0.6213   -5.7054 H         1 IHM1        0.0000 
     54 H         -23.5077   -2.1080   -7.0712 H         1 IHM1        0.0000 
     55 H         -25.3495   -5.5358   -5.3181 H         1 IHM1        0.0000 
     56 H         -27.2457   -4.1439   -4.6008 H         1 IHM1        0.0000 
     57 H         -27.2730   -1.7379   -5.1125 H         1 IHM1        0.0000 
     58 H         -23.3686   -5.6620   -7.1891 H         1 IHM1        0.0000 
     59 H         -21.4697    2.8703   -8.0124 H         1 IHM1        0.0000 
     60 H         -21.8855    1.1480   -8.0448 H         1 IHM1        0.0000 
     61 H         -22.4492    4.0903   -5.7074 H         1 IHM1        0.0000 
     62 H         -22.2699    3.9299   -3.2671 H         1 IHM1        0.0000 
     63 H         -21.2709   -0.1755   -3.6098 H         1 IHM1        0.0000 
     64 H         -21.4493   -0.0252   -6.0449 H         1 IHM1        0.0000 
     65 H         -19.8775   -5.2056   -7.1395 H         1 IHM1        0.0000 
     66 H         -20.9451   -6.3461   -6.7579 H         1 IHM1        0.0000 
     67 H         -21.0229   -5.6187   -8.1900 H         1 IHM1        0.0000 
@<TRIPOS>BOND
     1    2    1 ar   
     2    6    1 ar   
     3    7    1 1    
     4    3    2 ar   
     5   40    2 1    
     6    4    3 ar   
     7   41    3 1    
     8    5    4 ar   
     9   16    4 1    
    10    6    5 ar   
    11   42    5 1    
    12   11    6 1    
    13    8    7 1    
    14    9    8 1    
    15   10    8 1    
    16   43    8 1    
    17   12   11 1    
    18   13   12 1    
    19   44   12 1    
    20   45   12 1    
    21   14   13 1    
    22   15   13 1    
    23   46   13 1    
    24   15   14 1    
    25   47   14 1    
    26   48   14 1    
    27   49   15 1    
    28   50   15 1    
    29   22   16 1    
    30   32   16 1    
    31   51   16 1    
    32   37   17 1    
    33   19   18 2    
    34   22   18 1    
    35   52   18 1    
    36   20   19 1    
    37   53   19 1    
    38   21   20 2    
    39   23   20 1    
    40   22   21 1    
    41   24   23 ar   
    42   28   23 ar   
    43   25   24 ar   
    44   54   24 1    
    45   26   25 ar   
    46   29   25 1    
    47   27   26 ar   
    48   55   26 1    
    49   28   27 ar   
    50   56   27 1    
    51   57   28 1    
    52   30   29 am   
    53   58   29 1    
    54   31   30 2    
    55   33   30 1    
    56   34   32 1    
    57   59   32 1    
    58   60   32 1    
    59   65   33 1    
    60   66   33 1    
    61   67   33 1    
    62   35   34 ar   
    63   39   34 ar   
    64   36   35 ar   
    65   61   35 1    
    66   37   36 ar   
    67   62   36 1    
    68   38   37 ar   
    69   39   38 ar   
    70   63   38 1    
    71   64   39 1    
@<TRIPOS>SUBSTRUCTURE
     1 IHM1        1 GROUP   
@<TRIPOS>SET

