#    Name: 3a2o_KNJ_1_INTS_M
#    Modification time : Mon Apr  7 18:55:27 2014

@<TRIPOS>MOLECULE
3a2o_KNJ_1_INTS_M
   96     0     9     0     0
SMALL
NO_CHARGES


@<TRIPOS>ATOM
      1 CA         12.4160   19.7760   21.6665 C.3       3 GLC5        0.0000 
      2 CA         12.7130   17.7850   21.4510 C.3       9 GLL5        0.0000 
      3 CA         12.1190   21.7670   21.8820 C.3       6 GLP5        0.0000 
      4 CA         13.7120   17.3445   22.8410 C.3       3 GLC5        0.0000 
      5 CA         14.7110   16.9040   24.2310 C.3       6 GLP5        0.0000 
      6 CA         13.8515   16.2060   21.4945 C.3       3 GLC5        0.0000 
      7 CA         14.9900   14.6270   21.5380 C.3       6 GLP5        0.0000 
      8 O           8.9140   15.0930   20.9475 O.2       1 ALC1        0.0000 
      9 O           8.9670   15.3080   19.4530 O.2       7 ALL1        0.0000 
     10 O           8.8610   14.8780   22.4420 O.2       4 ALP1        0.0000 
     11 CA         15.7120   18.3280   19.7665 C.3       3 GLC5        0.0000 
     12 CA         14.0240   18.8150   18.6060 C.3       9 GLL5        0.0000 
     13 CA         17.4000   17.8410   20.9270 C.3       6 GLP5        0.0000 
     14 CA         15.4485   18.2880   17.0560 C.3       3 GLC5        0.0000 
     15 CA         16.8730   17.7610   15.5060 C.3       6 GLP5        0.0000 
     16 O          12.7795   21.9060   18.0175 O.2       1 ALC1        0.0000 
     17 O          14.3660   21.1790   17.9830 O.2       7 ALL1        0.0000 
     18 O          11.1930   22.6330   18.0520 O.2       4 ALP1        0.0000 
     19 N          15.5810   25.7680   17.2140 N.am      2 SEC2        0.0000 
     20 N          16.5970   25.1770   17.8480 N.am      8 SEL2        0.0000 
     21 N          14.5650   26.3590   16.5800 N.am      5 SEP2        0.0000 
     22 CA         13.2005   24.1655   18.6215 C.3       3 GLC5        0.0000 
     23 CA         15.2810   23.3490   18.6880 C.3       9 GLL5        0.0000 
     24 CA         11.1200   24.9820   18.5550 C.3       6 GLP5        0.0000 
     25 N          14.3645   25.2705   17.6360 N.am      2 SEC2        0.0000 
     26 N          14.1640   24.1820   18.6920 N.am      8 SEL2        0.0000 
     27 O          13.8615   24.8130   19.8095 O.2       1 ALC1        0.0000 
     28 O          14.1640   24.1820   18.6920 O.2       7 ALL1        0.0000 
     29 O          13.5590   25.4440   20.9270 O.2       4 ALP1        0.0000 
     30 O          14.6720   24.1455   20.1765 O.2       1 ALC1        0.0000 
     31 O          15.1800   24.1090   21.6610 O.2       4 ALP1        0.0000 
     32 CA         11.6580   23.0885   14.9335 C.3       3 GLC5        0.0000 
     33 CA         13.0290   21.4130   14.9900 C.3       9 GLL5        0.0000 
     34 CA         10.2870   24.7640   14.8770 C.3       6 GLP5        0.0000 
     35 CA         21.9135   22.1285   20.6510 C.3       3 GLC5        0.0000 
     36 CA         21.3420   24.0340   19.7270 C.3       9 GLL5        0.0000 
     37 CA         22.4850   20.2230   21.5750 C.3       6 GLP5        0.0000 
     38 CA         18.8645   25.6070   22.5205 C.3       3 GLC5        0.0000 
     39 CA         19.4780   24.5500   21.3290 C.3       9 GLL5        0.0000 
     40 CA         18.2510   26.6640   23.7120 C.3       6 GLP5        0.0000 
     41 CA         20.1690   23.9075   22.9485 C.3       3 GLC5        0.0000 
     42 CA         20.8600   23.2650   24.5680 C.3       6 GLP5        0.0000 
     43 CA         18.4300   22.8620   22.2060 C.3       3 GLC5        0.0000 
     44 CA         17.3820   21.1740   23.0830 C.3       6 GLP5        0.0000 
     45 CA         20.7945   21.4190   18.8965 C.3       3 GLC5        0.0000 
     46 CA         19.4830   22.0700   20.1240 C.3       9 GLL5        0.0000 
     47 CA         22.1060   20.7680   17.6690 C.3       6 GLP5        0.0000 
     48 CA         19.1315   19.9210   20.2195 C.3       3 GLC5        0.0000 
     49 CA         18.7800   17.7720   20.3150 C.3       6 GLP5        0.0000 
     50 CA         20.9840   21.1465   20.8495 C.3       3 GLC5        0.0000 
     51 CA         20.7765   23.0795   14.9910 C.3       3 GLC5        0.0000 
     52 CA         20.7010   25.1690   15.5940 C.3       9 GLL5        0.0000 
     53 CA         20.8520   20.9900   14.3880 C.3       6 GLP5        0.0000 
     54 CA         18.2365   26.0045   12.3695 C.3       3 GLC5        0.0000 
     55 CA         18.4370   25.5160   14.4550 C.3       9 GLL5        0.0000 
     56 CA         18.0360   26.4930   10.2840 C.3       6 GLP5        0.0000 
     57 CA         16.7900   25.1600   13.6070 C.3       3 GLC5        0.0000 
     58 CA         15.1430   24.8040   12.7590 C.3       6 GLP5        0.0000 
     59 CA         18.6150   24.0325   12.9835 C.3       3 GLC5        0.0000 
     60 CA         18.7930   22.5490   11.5120 C.3       6 GLP5        0.0000 
     61 CA         20.9045   29.0645   13.5685 C.3       3 GLC5        0.0000 
     62 CA         20.3380   27.1310   14.1250 C.3       9 GLL5        0.0000 
     63 CA         21.4710   30.9980   13.0120 C.3       6 GLP5        0.0000 
     64 CA         11.4772   19.8935   20.2323 C.3       3 GLC5        0.0000 
     65 CA         11.7650   17.5470   20.3170 C.3       9 GLL5        0.0000 
     66 CA         11.1490   21.8560   20.7160 C.3       6 GLP5        0.0000 
     67 CA          9.3558   17.8790   20.3027 C.3       3 GLC5        0.0000 
     68 CA          7.4340   18.7130   20.2570 C.3       6 GLP5        0.0000 
     69 CA         10.5742   16.8442   22.2530 C.3       3 GLC5        0.0000 
     70 CA         10.7900   16.5430   20.3800 C.3       9 GLL5        0.0000 
     71 CA          9.6340   16.5840   23.8740 C.3       6 GLP5        0.0000 
     72 CA         11.4579   14.9760   20.2274 C.3       3 GLC5        0.0000 
     73 CA          9.9020   16.2850   19.3570 C.3       9 GLL5        0.0000 
     74 CA         12.3260   13.2870   20.6020 C.3       6 GLP5        0.0000 
     75 CA          8.9515   18.0499   19.3493 C.3       3 GLC5        0.0000 
     76 CA         14.7792   23.6140   14.2525 C.3       3 GLC5        0.0000 
     77 CA         14.3060   21.9140   15.2100 C.3       9 GLL5        0.0000 
     78 CA         15.1230   19.3627   11.7787 C.3       3 GLC5        0.0000 
     79 CA         15.1570   20.3950   13.5230 C.3       9 GLL5        0.0000 
     80 CA         15.7150   18.5900   10.1210 C.3       6 GLP5        0.0000 
     81 CA         15.2067   22.8507   13.3727 C.3       3 GLC5        0.0000 
     82 CA         15.9153   19.2644   14.7246 C.3       3 GLC5        0.0000 
     83 CA         15.3840   21.4000   14.4500 C.3       9 GLL5        0.0000 
     84 CA         17.0973   20.3937   13.5597 C.3       3 GLC5        0.0000 
     85 CA         18.9240   19.8900   13.1330 C.3       6 GLP5        0.0000 
     86 CA         12.1905   20.8946   12.6914 C.3       3 GLC5        0.0000 
     87 CA         13.9050   19.8760   13.3500 C.3       9 GLL5        0.0000 
     88 CA         11.1750   21.0200   11.0390 C.3       6 GLP5        0.0000 
     89 CA         21.3567   22.3520   18.7722 C.3       3 GLC5        0.0000 
     90 CA         19.8730   23.8380   20.0240 C.3       9 GLL5        0.0000 
     91 CA         17.9982   21.7100   21.5450 C.3       3 GLC5        0.0000 
     92 CA         21.0490   26.0120   12.6820 C.3       3 GLC5        0.0000 
     93 CA         19.8260   26.0030   14.6830 C.3       9 GLL5        0.0000 
     94 CA         22.0160   25.4570   10.9600 C.3       6 GLP5        0.0000 
     95 CA         18.4359   27.4921   15.2995 C.3       3 GLC5        0.0000 
     96 CA         17.1370   28.5390   16.2520 C.3       6 GLP5        0.0000 
@<TRIPOS>BOND
@<TRIPOS>SUBSTRUCTURE
     1 ALC1        8 GROUP        1 X    ALC  0     ROOT ALC X 1
     2 SEC2       19 GROUP        1 X    SEC  0     **** SEC X 2
     3 GLC5        1 GROUP        1 X    GLC  0     **** GLC X 6
     4 ALP1       10 GROUP        1 Y    ALP  0     ROOT ALP Y 8
     5 SEP2       21 GROUP        1 Y    SEP  0     **** SEP Y 9
     6 GLP5        3 GROUP        1 Y    GLP  0     **** GLP Y 13
     7 ALL1        9 GROUP        1 Z    ALL  0     ROOT ALL Z 15
     8 SEL2       20 GROUP        1 Z    SEL  0     **** SEL Z 16
     9 GLL5        2 GROUP        1 Z    GLL  0     **** GLL Z 20
@<TRIPOS>SET

