#    Name: 3a2o_KNJ_1_ligand
#    Modification time : Mon Apr  7 18:55:27 2014

@<TRIPOS>MOLECULE
3a2o_KNJ_1_ligand
   78    80     1     0     0
SMALL
NO_CHARGES


@<TRIPOS>ATOM
      1 C1         12.7130   17.7850   21.4510 C.3       1 KNJ999      0.0000 
      2 C2         11.7650   17.5470   20.3170 C.ar      1 KNJ999      0.0000 
      3 C3         10.7900   16.5430   20.3800 C.ar      1 KNJ999      0.0000 
      4 C4          9.9020   16.2850   19.3570 C.ar      1 KNJ999      0.0000 
      5 C7         10.9760   18.0910   18.0940 C.ar      1 KNJ999      0.0000 
      6 N1          8.9670   15.3080   19.4530 N.pl3     1 KNJ999      0.0000 
      7 C5         10.0220   17.0800   18.2210 C.ar      1 KNJ999      0.0000 
      8 C6         11.0240   18.9070   16.8340 C.3       1 KNJ999      0.0000 
      9 C8         11.8460   18.3150   19.1800 C.ar      1 KNJ999      0.0000 
     10 O1         12.7770   19.3140   19.0470 O.3       1 KNJ999      0.0000 
     11 C9         14.0240   18.8150   18.6060 C.3       1 KNJ999      0.0000 
     12 C10        14.9220   19.9880   18.1900 C.2       1 KNJ999      0.0000 
     13 O6         16.1370   19.7620   18.0700 O.2       1 KNJ999      0.0000 
     14 C20        16.5690   24.1320   18.5140 C.2       1 KNJ999      0.0000 
     15 N3         14.3660   21.1790   17.9830 N.am      1 KNJ999      0.0000 
     16 O4         16.5970   25.1770   17.8480 O.2       1 KNJ999      0.0000 
     17 C19        15.2810   23.3490   18.6880 C.3       1 KNJ999      0.0000 
     18 C13        14.3060   21.9140   15.2100 C.ar      1 KNJ999      0.0000 
     19 C12        14.5250   22.9340   16.2820 C.3       1 KNJ999      0.0000 
     20 C16        13.9050   19.8760   13.3500 C.ar      1 KNJ999      0.0000 
     21 C11        15.1370   22.3170   17.5390 C.3       1 KNJ999      0.0000 
     22 O2         14.1640   24.1820   18.6920 O.3       1 KNJ999      0.0000 
     23 C14        15.3840   21.4000   14.4500 C.ar      1 KNJ999      0.0000 
     24 C18        13.0290   21.4130   14.9900 C.ar      1 KNJ999      0.0000 
     25 C15        15.1570   20.3950   13.5230 C.ar      1 KNJ999      0.0000 
     26 C17        12.8610   20.3750   14.0450 C.ar      1 KNJ999      0.0000 
     27 C26        19.4780   24.1450   17.4670 C.2       1 KNJ999      0.0000 
     28 N4         17.6860   23.6370   19.0540 N.am      1 KNJ999      0.0000 
     29 O5         19.2480   23.1110   16.8400 O.2       1 KNJ999      0.0000 
     30 C21        18.9550   24.3560   18.8850 C.3       1 KNJ999      0.0000 
     31 C22        19.8730   23.8380   20.0240 C.3       1 KNJ999      0.0000 
     32 C25        17.7460   22.4220   19.8900 C.3       1 KNJ999      0.0000 
     33 C23        21.3420   24.0340   19.7270 C.3       1 KNJ999      0.0000 
     34 C24        19.4780   24.5500   21.3290 C.3       1 KNJ999      0.0000 
     35 S2         19.4830   22.0700   20.1240 S.3       1 KNJ999      0.0000 
     36 N5         20.1560   25.1710   16.9610 N.am      1 KNJ999      0.0000 
     37 C27        20.7010   25.1690   15.5940 C.3       1 KNJ999      0.0000 
     38 C28        19.8260   26.0030   14.6830 C.2       1 KNJ999      0.0000 
     39 C30        18.4370   25.5160   14.4550 C.3       1 KNJ999      0.0000 
     40 C29        20.3380   27.1310   14.1250 C.2       1 KNJ999      0.0000 
     41 H          10.7401   15.9618   21.2552 H         1 KNJ999      0.0000 
     42 H           8.6573   14.9090   18.5899 H         1 KNJ999      0.0000 
     43 H           8.6697   15.0728   20.3784 H         1 KNJ999      0.0000 
     44 H           9.3643   16.9126   17.4204 H         1 KNJ999      0.0000 
     45 H          13.9237   18.1551   17.7371 H         1 KNJ999      0.0000 
     46 H          14.5510   18.2614   19.3909 H         1 KNJ999      0.0000 
     47 H          13.3457   21.3457   18.1322 H         1 KNJ999      0.0000 
     48 H          15.3593   22.7720   19.6089 H         1 KNJ999      0.0000 
     49 H          13.5712   23.4039   16.5511 H         1 KNJ999      0.0000 
     50 H          15.1948   23.7220   15.9168 H         1 KNJ999      0.0000 
     51 H          13.7635   19.0937   12.6786 H         1 KNJ999      0.0000 
     52 H          16.1572   21.9898   17.2819 H         1 KNJ999      0.0000 
     53 H          16.3243   21.7786   14.5946 H         1 KNJ999      0.0000 
     54 H          12.2252   21.7774   15.4921 H         1 KNJ999      0.0000 
     55 H          15.9519   20.0389   12.9587 H         1 KNJ999      0.0000 
     56 H          11.8969   20.0048   13.9014 H         1 KNJ999      0.0000 
     57 H          18.7802   25.4099   19.0568 H         1 KNJ999      0.0000 
     58 H          17.3992   21.5442   19.4203 H         1 KNJ999      0.0000 
     59 H          17.4061   22.5489   20.8799 H         1 KNJ999      0.0000 
     60 H          20.3410   26.0425   17.5099 H         1 KNJ999      0.0000 
     61 H          20.7458   24.1489   15.2018 H         1 KNJ999      0.0000 
     62 H          21.7133   25.5831   15.5854 H         1 KNJ999      0.0000 
     63 H          13.2672   16.9762   21.6478 H         1 KNJ999      0.0000 
     64 H          13.3463   18.5336   21.2548 H         1 KNJ999      0.0000 
     65 H          12.2310   18.0223   22.2944 H         1 KNJ999      0.0000 
     66 H          11.7452   19.5990   16.8669 H         1 KNJ999      0.0000 
     67 H          11.1994   18.3388   16.0300 H         1 KNJ999      0.0000 
     68 H          10.1630   19.3885   16.6704 H         1 KNJ999      0.0000 
     69 H          21.9194   23.6988   20.4715 H         1 KNJ999      0.0000 
     70 H          21.6213   23.5490   18.8983 H         1 KNJ999      0.0000 
     71 H          21.5682   24.9987   19.5923 H         1 KNJ999      0.0000 
     72 H          20.0387   24.2494   22.1005 H         1 KNJ999      0.0000 
     73 H          19.5848   25.5417   21.2580 H         1 KNJ999      0.0000 
     74 H          18.5244   24.3746   21.5738 H         1 KNJ999      0.0000 
     75 H          18.4258   24.6068   14.0388 H         1 KNJ999      0.0000 
     76 H          17.9204   25.4538   15.3090 H         1 KNJ999      0.0000 
     77 H          17.9257   26.1231   13.8467 H         1 KNJ999      0.0000 
     78 H          14.1273   24.5610   19.6166 H         1 KNJ999      0.0000 
@<TRIPOS>BOND
     1    2    1 1    
     2   63    1 1    
     3   64    1 1    
     4   65    1 1    
     5    3    2 ar   
     6    9    2 ar   
     7    4    3 ar   
     8   41    3 1    
     9    6    4 1    
    10    7    4 ar   
    11    7    5 ar   
    12    8    5 1    
    13    9    5 ar   
    14   42    6 1    
    15   43    6 1    
    16   44    7 1    
    17   66    8 1    
    18   67    8 1    
    19   68    8 1    
    20   10    9 1    
    21   11   10 1    
    22   12   11 1    
    23   45   11 1    
    24   46   11 1    
    25   13   12 2    
    26   15   12 am   
    27   16   14 2    
    28   17   14 1    
    29   28   14 am   
    30   21   15 1    
    31   47   15 1    
    32   21   17 1    
    33   22   17 1    
    34   48   17 1    
    35   19   18 1    
    36   23   18 ar   
    37   24   18 ar   
    38   21   19 1    
    39   49   19 1    
    40   50   19 1    
    41   25   20 ar   
    42   26   20 ar   
    43   51   20 1    
    44   52   21 1    
    45   78   22 1    
    46   25   23 ar   
    47   53   23 1    
    48   26   24 ar   
    49   54   24 1    
    50   55   25 1    
    51   56   26 1    
    52   29   27 2    
    53   30   27 1    
    54   36   27 am   
    55   30   28 1    
    56   32   28 1    
    57   31   30 1    
    58   57   30 1    
    59   33   31 1    
    60   34   31 1    
    61   35   31 1    
    62   35   32 1    
    63   58   32 1    
    64   59   32 1    
    65   69   33 1    
    66   70   33 1    
    67   71   33 1    
    68   72   34 1    
    69   73   34 1    
    70   74   34 1    
    71   37   36 1    
    72   60   36 1    
    73   38   37 1    
    74   61   37 1    
    75   62   37 1    
    76   39   38 1    
    77   40   38 2    
    78   75   39 1    
    79   76   39 1    
    80   77   39 1    
@<TRIPOS>SUBSTRUCTURE
     1 KNJ999      1 GROUP   
@<TRIPOS>SET

