#    Name: 3na1_HCD_1_INTS_M
#    Modification time : Tue Mar 25 01:07:41 2014

@<TRIPOS>MOLECULE
3na1_HCD_1_INTS_M
   80     0     3     0     0
SMALL
NO_CHARGES


@<TRIPOS>ATOM
      1 CA        -35.9320  -10.4560   54.5915 C.3       1 GLC5        0.0000 
      2 CA        -36.6090   -9.6770   56.3910 C.3       3 GLL5        0.0000 
      3 CA        -35.2550  -11.2350   52.7920 C.3       2 GLP5        0.0000 
      4 CA        -34.4430   -9.8585   56.5060 C.3       1 GLC5        0.0000 
      5 CA        -32.2770  -10.0400   56.6210 C.3       2 GLP5        0.0000 
      6 CA        -36.1730  -11.5865   54.8285 C.3       1 GLC5        0.0000 
      7 CA        -37.4760  -10.8890   56.0130 C.3       3 GLL5        0.0000 
      8 CA        -34.8700  -12.2840   53.6440 C.3       2 GLP5        0.0000 
      9 CA        -36.7930  -10.9455   58.7270 C.3       1 GLC5        0.0000 
     10 CA        -38.2630  -11.4030   57.2240 C.3       3 GLL5        0.0000 
     11 CA        -35.3230  -10.4880   60.2300 C.3       2 GLP5        0.0000 
     12 CA        -41.1375   -9.5505   58.3560 C.3       1 GLC5        0.0000 
     13 CA        -39.1820  -10.2810   57.7290 C.3       3 GLL5        0.0000 
     14 CA        -43.0930   -8.8200   58.9830 C.3       2 GLP5        0.0000 
     15 CA        -39.7615   -9.5095   60.5890 C.3       1 GLC5        0.0000 
     16 CA        -38.4130   -8.5160   59.2520 C.3       3 GLL5        0.0000 
     17 CA        -41.1100  -10.5030   61.9260 C.3       2 GLP5        0.0000 
     18 CA        -38.7590   -5.9265   60.9050 C.3       1 GLC5        0.0000 
     19 CA        -37.6930   -7.2570   59.6890 C.3       3 GLL5        0.0000 
     20 CA        -39.8250   -4.5960   62.1210 C.3       2 GLP5        0.0000 
     21 CA        -36.7800   -5.7505   54.6810 C.3       1 GLC5        0.0000 
     22 CA        -35.6790   -6.6490   56.4130 C.3       3 GLL5        0.0000 
     23 CA        -37.8810   -4.8520   52.9490 C.3       2 GLP5        0.0000 
     24 CA        -33.1005   -5.2870   55.5835 C.3       1 GLC5        0.0000 
     25 CA        -34.7130   -5.5970   56.9850 C.3       3 GLL5        0.0000 
     26 CA        -31.4880   -4.9770   54.1820 C.3       2 GLP5        0.0000 
     27 CA        -38.2020   -4.4950   61.0755 C.3       1 GLC5        0.0000 
     28 CA        -36.5790   -4.3940   60.0300 C.3       3 GLL5        0.0000 
     29 CA        -37.5240   -3.8860   55.5620 C.3       1 GLC5        0.0000 
     30 CA        -36.4220   -3.7390   57.1150 C.3       3 GLL5        0.0000 
     31 CA        -38.6260   -4.0330   54.0090 C.3       2 GLP5        0.0000 
     32 CA        -38.0850   -6.3610   54.3840 C.3       1 GLC5        0.0000 
     33 CA        -38.2890   -7.8700   55.8190 C.3       3 GLL5        0.0000 
     34 CA        -38.4955   -8.8600   54.1930 C.3       1 GLC5        0.0000 
     35 CA        -38.7020   -9.8500   52.5670 C.3       2 GLP5        0.0000 
     36 CA        -30.9240   -3.6740   57.2850 C.3       1 GLC5        0.0000 
     37 CA        -32.8080   -2.9540   57.1350 C.3       3 GLL5        0.0000 
     38 CA        -29.0400   -4.3940   57.4350 C.3       2 GLP5        0.0000 
     39 CA        -32.1975   -1.4255   55.9230 C.3       1 GLC5        0.0000 
     40 CA        -31.5870    0.1030   54.7110 C.3       2 GLP5        0.0000 
     41 CA        -32.1480   -3.9655   55.6585 C.3       1 GLC5        0.0000 
     42 CA        -32.0440   -4.7965   60.8510 C.3       1 GLC5        0.0000 
     43 CA        -31.8260   -2.7890   60.0860 C.3       3 GLL5        0.0000 
     44 CA        -32.2620   -6.8040   61.6160 C.3       2 GLP5        0.0000 
     45 CA        -30.4330   -3.5915   58.7605 C.3       1 GLC5        0.0000 
     46 CA        -31.2590   -4.9000   61.8490 C.3       1 GLC5        0.0000 
     47 CA        -30.2560   -2.9960   62.0820 C.3       3 GLL5        0.0000 
     48 CA        -28.5435   -4.0610   63.8505 C.3       1 GLC5        0.0000 
     49 CA        -29.6260   -2.2050   63.2260 C.3       3 GLL5        0.0000 
     50 CA        -27.4610   -5.9170   64.4750 C.3       2 GLP5        0.0000 
     51 CA        -29.0575   -0.7115   64.1715 C.3       1 GLC5        0.0000 
     52 CA        -28.4890    0.7820   65.1170 C.3       2 GLP5        0.0000 
     53 CA        -27.7615   -1.7005   62.4395 C.3       1 GLC5        0.0000 
     54 CA        -25.8970   -1.1960   61.6530 C.3       2 GLP5        0.0000 
     55 CA        -30.4350   -5.3860   60.8020 C.3       1 GLC5        0.0000 
     56 CA        -29.1670   -3.6380   61.2330 C.3       3 GLL5        0.0000 
     57 CA        -31.7030   -7.1340   60.3710 C.3       2 GLP5        0.0000 
     58 CA        -28.1380   -4.9660   60.7355 C.3       1 GLC5        0.0000 
     59 CA        -27.1090   -6.2940   60.2380 C.3       2 GLP5        0.0000 
     60 CA        -29.1035   -4.0160   59.3340 C.3       1 GLC5        0.0000 
     61 CA        -28.3140   -4.7775   62.8540 C.3       1 GLC5        0.0000 
     62 CA        -27.5320   -2.4170   61.4430 C.3       1 GLC5        0.0000 
     63 CA        -37.8723  -10.0665   54.3845 C.3       1 GLC5        0.0000 
     64 CA        -36.6578  -12.8960   56.5297 C.3       1 GLC5        0.0000 
     65 CA        -35.4460  -14.6460   56.4410 C.3       2 GLP5        0.0000 
     66 CA        -38.9883  -11.4965   59.4672 C.3       1 GLC5        0.0000 
     67 CA        -39.2540  -12.1510   61.4580 C.3       2 GLP5        0.0000 
     68 CA        -36.6782   -9.2542   59.6956 C.3       1 GLC5        0.0000 
     69 CA        -38.3350   -9.0520   58.0150 C.3       3 GLL5        0.0000 
     70 CA        -36.0289   -9.3704   58.6554 C.3       1 GLC5        0.0000 
     71 CA        -36.4530   -7.4230   57.5000 C.3       3 GLL5        0.0000 
     72 CA        -33.9228   -7.5248   57.1634 C.3       1 GLC5        0.0000 
     73 CA        -32.4560   -8.7330   57.3560 C.3       2 GLP5        0.0000 
     74 CA        -35.6295   -3.5760   61.9402 C.3       1 GLC5        0.0000 
     75 CA        -35.2430   -3.2740   63.8580 C.3       2 GLP5        0.0000 
     76 CA        -30.5886   -0.7839   59.9377 C.3       1 GLC5        0.0000 
     77 CA        -31.1830   -2.0880   61.2780 C.3       3 GLL5        0.0000 
     78 CA        -29.4110    0.6470   59.3640 C.3       2 GLP5        0.0000 
     79 CA        -31.5479   -3.2193   63.3865 C.3       1 GLC5        0.0000 
     80 CA        -32.9230   -4.0650   64.3200 C.3       2 GLP5        0.0000 
@<TRIPOS>BOND
@<TRIPOS>SUBSTRUCTURE
     1 GLC5        1 GROUP        1 X    GLC  0     ROOT GLC X 6
     2 GLP5        3 GROUP        1 Y    GLP  0     ROOT GLP Y 13
     3 GLL5        2 GROUP        1 Z    GLL  0     ROOT GLL Z 20
@<TRIPOS>SET

