#    Name: 3na1_HCD_1_ligand
#    Modification time : Tue Mar 25 01:07:41 2014

@<TRIPOS>MOLECULE
3na1_HCD_1_ligand
   75    78     1     0     0
SMALL
NO_CHARGES


@<TRIPOS>ATOM
      1 C1        -36.6090   -9.6770   56.3910 C.3       1 HCD602      0.0000 
      2 O1        -39.0230  -12.5670   56.8650 O.3       1 HCD602      0.0000 
      3 C2        -37.4760  -10.8890   56.0130 C.3       1 HCD602      0.0000 
      4 O2        -34.6270   -1.5740   57.8570 O.3       1 HCD602      0.0000 
      5 C3        -38.2630  -11.4030   57.2240 C.3       1 HCD602      0.0000 
      6 C4        -39.1820  -10.2810   57.7290 C.3       1 HCD602      0.0000 
      7 C5        -38.3350   -9.0520   58.0150 C.2       1 HCD602      0.0000 
      8 C6        -38.4130   -8.5160   59.2520 C.2       1 HCD602      0.0000 
      9 C7        -37.6930   -7.2570   59.6890 C.3       1 HCD602      0.0000 
     10 C8        -37.1190   -6.4730   58.5100 C.3       1 HCD602      0.0000 
     11 C9        -36.4530   -7.4230   57.5000 C.3       1 HCD602      0.0000 
     12 C10       -37.4240   -8.4880   56.9320 C.3       1 HCD602      0.0000 
     13 C11       -35.6790   -6.6490   56.4130 C.3       1 HCD602      0.0000 
     14 C12       -34.7130   -5.5970   56.9850 C.3       1 HCD602      0.0000 
     15 C13       -35.4250   -4.6070   57.9140 C.3       1 HCD602      0.0000 
     16 C14       -36.1080   -5.4240   59.0040 C.3       1 HCD602      0.0000 
     17 C15       -36.5790   -4.3940   60.0300 C.3       1 HCD602      0.0000 
     18 C16       -35.4530   -3.3620   60.0150 C.3       1 HCD602      0.0000 
     19 C17       -34.5210   -3.7770   58.8580 C.3       1 HCD602      0.0000 
     20 C18       -36.4220   -3.7390   57.1150 C.3       1 HCD602      0.0000 
     21 C19       -38.2890   -7.8700   55.8190 C.3       1 HCD602      0.0000 
     22 C20       -33.7160   -2.5780   58.3090 C.3       1 HCD602      0.0000 
     23 C21       -32.8080   -2.9540   57.1350 C.3       1 HCD602      0.0000 
     24 C22       -32.8730   -1.8940   59.4040 C.3       1 HCD602      0.0000 
     25 C23       -31.8260   -2.7890   60.0860 C.3       1 HCD602      0.0000 
     26 C24       -31.1830   -2.0880   61.2780 C.3       1 HCD602      0.0000 
     27 C25       -30.2560   -2.9960   62.0820 C.3       1 HCD602      0.0000 
     28 C26       -29.6260   -2.2050   63.2260 C.3       1 HCD602      0.0000 
     29 C27       -29.1670   -3.6380   61.2330 C.3       1 HCD602      0.0000 
     30 H         -36.0486   -9.3497   55.5061 H         1 HCD602      0.0000 
     31 H         -35.8804   -9.9834   57.1523 H         1 HCD602      0.0000 
     32 H         -36.8334  -11.6835   55.6389 H         1 HCD602      0.0000 
     33 H         -38.1726  -10.5978   55.2294 H         1 HCD602      0.0000 
     34 H         -37.5509  -11.6237   58.0080 H         1 HCD602      0.0000 
     35 H         -39.6725  -10.6055   58.6342 H         1 HCD602      0.0000 
     36 H         -39.9127  -10.0523   56.9680 H         1 HCD602      0.0000 
     37 H         -38.9951   -8.9528   60.0085 H         1 HCD602      0.0000 
     38 H         -36.8751   -7.5229   60.3705 H         1 HCD602      0.0000 
     39 H         -38.3891   -6.6115   60.2394 H         1 HCD602      0.0000 
     40 H         -37.9276   -5.9565   58.0100 H         1 HCD602      0.0000 
     41 H         -35.6721   -7.9945   58.0848 H         1 HCD602      0.0000 
     42 H         -36.3993   -6.1504   55.7530 H         1 HCD602      0.0000 
     43 H         -35.1095   -7.3642   55.8071 H         1 HCD602      0.0000 
     44 H         -34.2557   -5.0484   56.1586 H         1 HCD602      0.0000 
     45 H         -33.9225   -6.1059   57.5409 H         1 HCD602      0.0000 
     46 H         -35.2598   -5.9804   59.5144 H         1 HCD602      0.0000 
     47 H         -36.6431   -4.8420   60.9847 H         1 HCD602      0.0000 
     48 H         -37.4794   -3.9481   59.7034 H         1 HCD602      0.0000 
     49 H         -34.9131   -3.3998   60.9336 H         1 HCD602      0.0000 
     50 H         -35.8509   -2.3928   59.8171 H         1 HCD602      0.0000 
     51 H         -33.8067   -4.5001   59.3239 H         1 HCD602      0.0000 
     52 H         -33.5566   -1.4941   60.1766 H         1 HCD602      0.0000 
     53 H         -32.3592   -1.0210   58.9591 H         1 HCD602      0.0000 
     54 H         -31.0551   -3.0488   59.3592 H         1 HCD602      0.0000 
     55 H         -32.3103   -3.7065   60.4231 H         1 HCD602      0.0000 
     56 H         -31.9741   -1.7077   61.9402 H         1 HCD602      0.0000 
     57 H         -30.6108   -1.2207   60.9184 H         1 HCD602      0.0000 
     58 H         -30.8590   -3.7908   62.5283 H         1 HCD602      0.0000 
     59 H         -35.9639   -3.2085   56.4017 H         1 HCD602      0.0000 
     60 H         -37.1201   -4.2951   56.6640 H         1 HCD602      0.0000 
     61 H         -36.9012   -3.0873   57.7029 H         1 HCD602      0.0000 
     62 H         -37.7322   -7.5326   55.0600 H         1 HCD602      0.0000 
     63 H         -38.9331   -8.5332   55.4378 H         1 HCD602      0.0000 
     64 H         -38.8279   -7.0969   56.1535 H         1 HCD602      0.0000 
     65 H         -32.2898   -2.1673   56.7995 H         1 HCD602      0.0000 
     66 H         -32.1430   -3.6560   57.3898 H         1 HCD602      0.0000 
     67 H         -33.3305   -3.3123   56.3613 H         1 HCD602      0.0000 
     68 H         -29.0093   -2.7708   63.7733 H         1 HCD602      0.0000 
     69 H         -29.0918   -1.4289   62.8909 H         1 HCD602      0.0000 
     70 H         -30.3172   -1.8381   63.8486 H         1 HCD602      0.0000 
     71 H         -28.5846   -2.9527   60.7957 H         1 HCD602      0.0000 
     72 H         -28.5693   -4.2259   61.7781 H         1 HCD602      0.0000 
     73 H         -29.5503   -4.2051   60.5040 H         1 HCD602      0.0000 
     74 H         -39.6773  -12.2475   56.1796 H         1 HCD602      0.0000 
     75 H         -34.0748   -0.7451   57.7672 H         1 HCD602      0.0000 
@<TRIPOS>BOND
     1    3    1 1    
     2   12    1 1    
     3   30    1 1    
     4   31    1 1    
     5    5    2 1    
     6   74    2 1    
     7    5    3 1    
     8   32    3 1    
     9   33    3 1    
    10   22    4 1    
    11   75    4 1    
    12    6    5 1    
    13   34    5 1    
    14    7    6 1    
    15   35    6 1    
    16   36    6 1    
    17    8    7 2    
    18   12    7 1    
    19    9    8 1    
    20   37    8 1    
    21   10    9 1    
    22   38    9 1    
    23   39    9 1    
    24   11   10 1    
    25   16   10 1    
    26   40   10 1    
    27   12   11 1    
    28   13   11 1    
    29   41   11 1    
    30   21   12 1    
    31   14   13 1    
    32   42   13 1    
    33   43   13 1    
    34   15   14 1    
    35   44   14 1    
    36   45   14 1    
    37   16   15 1    
    38   19   15 1    
    39   20   15 1    
    40   17   16 1    
    41   46   16 1    
    42   18   17 1    
    43   47   17 1    
    44   48   17 1    
    45   19   18 1    
    46   49   18 1    
    47   50   18 1    
    48   22   19 1    
    49   51   19 1    
    50   59   20 1    
    51   60   20 1    
    52   61   20 1    
    53   62   21 1    
    54   63   21 1    
    55   64   21 1    
    56   23   22 1    
    57   24   22 1    
    58   65   23 1    
    59   66   23 1    
    60   67   23 1    
    61   25   24 1    
    62   52   24 1    
    63   53   24 1    
    64   26   25 1    
    65   54   25 1    
    66   55   25 1    
    67   27   26 1    
    68   56   26 1    
    69   57   26 1    
    70   28   27 1    
    71   29   27 1    
    72   58   27 1    
    73   68   28 1    
    74   69   28 1    
    75   70   28 1    
    76   71   29 1    
    77   72   29 1    
    78   73   29 1    
@<TRIPOS>SUBSTRUCTURE
     1 HCD602      1 GROUP   
@<TRIPOS>SET

