#    Name: 3o0i_P54_1_INTS_M
#    Modification time : Tue Mar 25 03:05:29 2014

@<TRIPOS>MOLECULE
3o0i_P54_1_INTS_M
   52     0     6     0     0
SMALL
NO_CHARGES


@<TRIPOS>ATOM
      1 CA          0.1970  -10.0880  -26.4765 C.3       2 GLC5        0.0000 
      2 CA         -0.0380  -10.7530  -24.5030 C.3       6 GLL5        0.0000 
      3 CA          0.4320   -9.4230  -28.4500 C.3       4 GLP5        0.0000 
      4 CA         -1.0530  -11.6925  -22.9085 C.3       2 GLC5        0.0000 
      5 CA         -2.0680  -12.6320  -21.3140 C.3       4 GLP5        0.0000 
      6 CA          2.5940   -9.3665  -23.7355 C.3       2 GLC5        0.0000 
      7 CA          1.3120  -10.8500  -24.1780 C.3       6 GLL5        0.0000 
      8 CA          3.8760   -7.8830  -23.2930 C.3       4 GLP5        0.0000 
      9 CA          0.2815  -12.3170  -22.9045 C.3       2 GLC5        0.0000 
     10 CA         -0.7490  -13.7840  -21.6310 C.3       4 GLP5        0.0000 
     11 CA          2.3460  -12.5005  -23.3410 C.3       2 GLC5        0.0000 
     12 CA          3.3800  -14.1510  -22.5040 C.3       4 GLP5        0.0000 
     13 O           3.6815  -11.7010  -25.0085 O.2       1 ALC1        0.0000 
     14 O           2.1970  -11.4570  -25.0100 O.2       5 ALL1        0.0000 
     15 O           5.1660  -11.9450  -25.0070 O.2       3 ALP1        0.0000 
     16 CA         -1.3670  -10.3430  -20.6820 C.3       2 GLC5        0.0000 
     17 CA         -1.3150   -8.9140  -21.4840 C.3       6 GLL5        0.0000 
     18 CA         -1.4190  -11.7720  -19.8800 C.3       4 GLP5        0.0000 
     19 CA          1.1445   -6.7780  -20.7520 C.3       2 GLC5        0.0000 
     20 CA         -0.3640   -6.6320  -22.1480 C.3       6 GLL5        0.0000 
     21 CA          2.6530   -6.9240  -19.3560 C.3       4 GLP5        0.0000 
     22 CA          1.8950   -6.3400  -23.4655 C.3       2 GLC5        0.0000 
     23 CA         -0.2350   -6.3020  -23.6190 C.3       6 GLL5        0.0000 
     24 CA          4.0250   -6.3780  -23.3120 C.3       4 GLP5        0.0000 
     25 CA          0.9170   -7.6460  -26.5315 C.3       2 GLC5        0.0000 
     26 CA          0.4600   -7.0630  -24.4480 C.3       6 GLL5        0.0000 
     27 CA          1.3740   -8.2290  -28.6150 C.3       4 GLP5        0.0000 
     28 CA          2.1680   -7.4730  -23.8705 C.3       2 GLC5        0.0000 
     29 CA         -6.9905  -11.6685  -23.4185 C.3       2 GLC5        0.0000 
     30 CA         -6.5390  -12.9570  -24.7090 C.3       6 GLL5        0.0000 
     31 CA         -7.4420  -10.3800  -22.1280 C.3       4 GLP5        0.0000 
     32 CA         -1.5365  -13.7410  -23.2870 C.3       2 GLC5        0.0000 
     33 CA         -2.3240  -13.6980  -24.9430 C.3       6 GLL5        0.0000 
     34 CA         -2.8610  -14.1775  -26.5960 C.3       2 GLC5        0.0000 
     35 CA         -3.3980  -14.6570  -28.2490 C.3       4 GLP5        0.0000 
     36 CA         -6.2825  -15.5535  -25.4815 C.3       2 GLC5        0.0000 
     37 CA         -6.8440  -15.1140  -23.4600 C.3       6 GLL5        0.0000 
     38 CA         -5.7210  -15.9930  -27.5030 C.3       4 GLP5        0.0000 
     39 CA         -7.0265  -16.9375  -23.4240 C.3       2 GLC5        0.0000 
     40 CA         -7.2090  -18.7610  -23.3880 C.3       4 GLP5        0.0000 
     41 CA         -3.5615   -8.4127  -21.6728 C.3       2 GLC5        0.0000 
     42 CA         -5.6570   -8.6300  -21.6460 C.3       4 GLP5        0.0000 
     43 CA          0.9952   -5.4802  -25.3443 C.3       2 GLC5        0.0000 
     44 CA          1.8780   -4.2780  -26.6550 C.3       4 GLP5        0.0000 
     45 CA         -3.1342  -13.2328  -22.9435 C.3       2 GLC5        0.0000 
     46 CA         -4.6060  -14.3030  -24.2530 C.3       6 GLL5        0.0000 
     47 CA         -4.5064  -12.6341  -27.1706 C.3       2 GLC5        0.0000 
     48 CA         -5.7380  -12.0150  -25.3550 C.3       6 GLL5        0.0000 
     49 CA         -4.7090  -12.6800  -29.0910 C.3       4 GLP5        0.0000 
     50 CA         -4.9854  -12.2730  -23.1321 C.3       2 GLC5        0.0000 
     51 CA         -3.7950  -13.3640  -24.8930 C.3       6 GLL5        0.0000 
     52 CA         -5.1150  -11.0770  -21.5870 C.3       4 GLP5        0.0000 
@<TRIPOS>BOND
@<TRIPOS>SUBSTRUCTURE
     1 ALC1       13 GROUP        1 X    ALC  0     ROOT ALC X 1
     2 GLC5        1 GROUP        1 X    GLC  0     **** GLC X 6
     3 ALP1       15 GROUP        1 Y    ALP  0     ROOT ALP Y 8
     4 GLP5        3 GROUP        1 Y    GLP  0     **** GLP Y 13
     5 ALL1       14 GROUP        1 Z    ALL  0     ROOT ALL Z 15
     6 GLL5        2 GROUP        1 Z    GLL  0     **** GLL Z 20
@<TRIPOS>SET

