#    Name: 3o0i_P54_1_ligand
#    Modification time : Tue Mar 25 03:05:29 2014

@<TRIPOS>MOLECULE
3o0i_P54_1_ligand
   42    44     1     0     0
SMALL
NO_CHARGES


@<TRIPOS>ATOM
      1 C1         -0.0380  -10.7530  -24.5030 C.2       1 P54237      0.0000 
      2 C2         -0.8770  -10.1130  -23.5940 C.2       1 P54237      0.0000 
      3 C3          1.3120  -10.8500  -24.1780 C.2       1 P54237      0.0000 
      4 N4         -0.4230   -9.5960  -22.4380 N.pl3     1 P54237      0.0000 
      5 N5          1.7330  -10.3320  -23.0000 N.2       1 P54237      0.0000 
      6 C6          0.8860   -9.7210  -22.1520 C.2       1 P54237      0.0000 
      7 N7         -0.7910  -11.1530  -25.5560 N.2       1 P54237      0.0000 
      8 C8         -2.0310  -10.7290  -25.2330 C.2       1 P54237      0.0000 
      9 N9         -2.1460  -10.0940  -24.0560 N.2       1 P54237      0.0000 
     10 S10        -3.4170  -11.0160  -26.2630 S.3       1 P54237      0.0000 
     11 N11         2.1970  -11.4570  -25.0100 N.pl3     1 P54237      0.0000 
     12 C12        -1.3150   -8.9140  -21.4840 C.3       1 P54237      0.0000 
     13 C13        -1.6170   -7.4770  -21.9150 C.3       1 P54237      0.0000 
     14 C14        -0.3640   -6.6320  -22.1480 C.3       1 P54237      0.0000 
     15 C15        -0.2350   -6.3020  -23.6190 C.1       1 P54237      0.0000 
     16 C16         0.4600   -7.0630  -24.4480 C.1       1 P54237      0.0000 
     17 C17        -4.3570  -12.2030  -25.4570 C.ar      1 P54237      0.0000 
     18 C18        -5.7380  -12.0150  -25.3550 C.ar      1 P54237      0.0000 
     19 C19        -6.5390  -12.9570  -24.7090 C.ar      1 P54237      0.0000 
     20 C20        -5.9750  -14.1000  -24.1570 C.ar      1 P54237      0.0000 
     21 C21        -3.7950  -13.3640  -24.8930 C.ar      1 P54237      0.0000 
     22 C22        -4.6060  -14.3030  -24.2530 C.ar      1 P54237      0.0000 
     23 C23        -2.3240  -13.6980  -24.9430 C.3       1 P54237      0.0000 
     24 C24        -6.8440  -15.1140  -23.4600 C.3       1 P54237      0.0000 
     25 H           1.2547   -9.3325  -21.2458 H         1 P54237      0.0000 
     26 H           3.1539  -11.4436  -24.7200 H         1 P54237      0.0000 
     27 H           1.8136  -11.8638  -25.8392 H         1 P54237      0.0000 
     28 H          -0.8589   -8.8843  -20.4846 H         1 P54237      0.0000 
     29 H          -2.2682   -9.4536  -21.3954 H         1 P54237      0.0000 
     30 H          -2.2349   -6.9951  -21.1426 H         1 P54237      0.0000 
     31 H          -2.2106   -7.4995  -22.8411 H         1 P54237      0.0000 
     32 H           0.5073   -7.1906  -21.8197 H         1 P54237      0.0000 
     33 H          -0.4418   -5.7149  -21.5718 H         1 P54237      0.0000 
     34 H          -6.1685  -11.1708  -25.7618 H         1 P54237      0.0000 
     35 H          -7.5558  -12.8013  -24.6423 H         1 P54237      0.0000 
     36 H          -4.1810  -15.1516  -23.8503 H         1 P54237      0.0000 
     37 H          -1.7683  -12.9951  -24.4990 H         1 P54237      0.0000 
     38 H          -2.1238  -14.5634  -24.4837 H         1 P54237      0.0000 
     39 H          -1.9940  -13.7820  -25.8832 H         1 P54237      0.0000 
     40 H          -6.3096  -15.8839  -23.1112 H         1 P54237      0.0000 
     41 H          -7.3274  -14.7156  -22.6805 H         1 P54237      0.0000 
     42 H          -7.5377  -15.4924  -24.0728 H         1 P54237      0.0000 
@<TRIPOS>BOND
     1    2    1 1    
     2    3    1 2    
     3    7    1 1    
     4    4    2 1    
     5    9    2 2    
     6    5    3 1    
     7   11    3 1    
     8    6    4 1    
     9   12    4 1    
    10    6    5 2    
    11   25    6 1    
    12    8    7 2    
    13    9    8 1    
    14   10    8 1    
    15   17   10 1    
    16   26   11 1    
    17   27   11 1    
    18   13   12 1    
    19   28   12 1    
    20   29   12 1    
    21   14   13 1    
    22   30   13 1    
    23   31   13 1    
    24   15   14 1    
    25   32   14 1    
    26   33   14 1    
    27   16   15 3    
    28   18   17 ar   
    29   21   17 ar   
    30   19   18 ar   
    31   34   18 1    
    32   20   19 ar   
    33   35   19 1    
    34   22   20 ar   
    35   24   20 1    
    36   22   21 ar   
    37   23   21 1    
    38   36   22 1    
    39   37   23 1    
    40   38   23 1    
    41   39   23 1    
    42   40   24 1    
    43   41   24 1    
    44   42   24 1    
@<TRIPOS>SUBSTRUCTURE
     1 P54237      1 GROUP   
@<TRIPOS>SET

