#    Name: 3m9v_TYD_1_INTS_M
#    Modification time : Mon Mar 24 22:52:57 2014

@<TRIPOS>MOLECULE
3m9v_TYD_1_INTS_M
   38     0     9     0     0
SMALL
NO_CHARGES


@<TRIPOS>ATOM
      1 N          17.3990   23.0945  -15.9400 N.am      2 SEC2        0.0000 
      2 N          18.6010   22.4800  -15.7350 N.am      8 SEL2        0.0000 
      3 N          16.1970   23.7090  -16.1450 N.am      5 SEP2        0.0000 
      4 N          22.0720   20.2405  -17.9165 N.am      2 SEC2        0.0000 
      5 N          21.7090   21.1690  -16.5640 N.am      8 SEL2        0.0000 
      6 N          22.4350   19.3120  -19.2690 N.am      5 SEP2        0.0000 
      7 N          22.5110   21.0655  -13.3580 N.am      2 SEC2        0.0000 
      8 N          22.8910   21.9410  -14.4480 N.am      8 SEL2        0.0000 
      9 N          22.1310   20.1900  -12.2680 N.am      5 SEP2        0.0000 
     10 O          21.3330   29.4755  -17.9545 O.2       1 ALC1        0.0000 
     11 O          20.1900   28.5420  -17.7940 O.2       7 ALL1        0.0000 
     12 O          22.4760   30.4090  -18.1150 O.2       4 ALP1        0.0000 
     13 CA         18.5770   27.2175  -13.5060 C.3       3 GLC5        0.0000 
     14 CA         18.7050   28.7420  -14.8930 C.3       9 GLL5        0.0000 
     15 CA         18.4490   25.6930  -12.1190 C.3       6 GLP5        0.0000 
     16 N          17.8100   30.6625   -8.4905 N.am      2 SEC2        0.0000 
     17 N          18.7430   30.0620   -9.6290 N.am      8 SEL2        0.0000 
     18 N          16.8770   31.2630   -7.3520 N.am      5 SEP2        0.0000 
     19 N          18.8040   30.1455   -8.2685 N.am      2 SEC2        0.0000 
     20 N          18.8650   30.2290   -6.9080 N.am      5 SEP2        0.0000 
     21 CA         20.1905   30.8360  -12.8170 C.3       3 GLC5        0.0000 
     22 CA         19.8350   28.9260  -12.7760 C.3       9 GLL5        0.0000 
     23 CA         20.5460   32.7460  -12.8580 C.3       6 GLP5        0.0000 
     24 CA         19.3163   26.0568  -14.0633 C.3       3 GLC5        0.0000 
     25 CA         19.7630   27.0430  -16.1310 C.3       9 GLL5        0.0000 
     26 CA         20.4475   30.2990  -17.4838 C.3       3 GLC5        0.0000 
     27 CA         20.5590   28.2980  -16.4350 C.3       9 GLL5        0.0000 
     28 CA         20.6720   31.7560  -18.9440 C.3       6 GLP5        0.0000 
     29 CA         19.4595   30.8950  -14.5747 C.3       3 GLC5        0.0000 
     30 CA         19.6230   32.7260  -13.8970 C.3       6 GLP5        0.0000 
     31 CA         20.3220   31.0835  -11.3205 C.3       3 GLC5        0.0000 
     32 CA         19.8980   29.2500  -11.4280 C.3       9 GLL5        0.0000 
     33 CA         20.0980   33.0240  -11.5810 C.3       6 GLP5        0.0000 
     34 CA         19.6020   27.9990   -9.4440 C.3       3 GLC5        0.0000 
     35 CA         18.6580   26.8550   -7.8280 C.3       6 GLP5        0.0000 
     36 CA         19.1578   27.3905  -12.1105 C.3       3 GLC5        0.0000 
     37 CA         17.9952   28.3191  -16.5794 C.3       3 GLC5        0.0000 
     38 CA         16.2620   28.2710  -17.3910 C.3       6 GLP5        0.0000 
@<TRIPOS>BOND
@<TRIPOS>SUBSTRUCTURE
     1 ALC1       10 GROUP        1 X    ALC  0     ROOT ALC X 1
     2 SEC2        1 GROUP        1 X    SEC  0     **** SEC X 2
     3 GLC5       13 GROUP        1 X    GLC  0     **** GLC X 6
     4 ALP1       12 GROUP        1 Y    ALP  0     ROOT ALP Y 8
     5 SEP2        3 GROUP        1 Y    SEP  0     **** SEP Y 9
     6 GLP5       15 GROUP        1 Y    GLP  0     **** GLP Y 13
     7 ALL1       11 GROUP        1 Z    ALL  0     ROOT ALL Z 15
     8 SEL2        2 GROUP        1 Z    SEL  0     **** SEL Z 16
     9 GLL5       14 GROUP        1 Z    GLL  0     **** GLL Z 20
@<TRIPOS>SET

