#    Name: 3m9v_TYD_1_ligand
#    Modification time : Mon Mar 24 22:52:57 2014

@<TRIPOS>MOLECULE
3m9v_TYD_1_ligand
   38    39     1     0     0
SMALL
NO_CHARGES


@<TRIPOS>ATOM
      1 PA         19.7770   23.2830  -16.2620 P.3       1 TYD901      0.0000 
      2 O1A        20.2690   23.0960  -17.6850 O.co2     1 TYD901      0.0000 
      3 O2A        18.6010   22.4800  -15.7350 O.co2     1 TYD901      0.0000 
      4 O3A        21.0150   23.1290  -15.2510 O.3       1 TYD901      0.0000 
      5 PB         22.3030   22.3310  -15.7890 P.3       1 TYD901      0.0000 
      6 O1B        21.7090   21.1690  -16.5640 O.co2     1 TYD901      0.0000 
      7 O2B        22.8910   21.9410  -14.4480 O.co2     1 TYD901      0.0000 
      8 O3B        23.0400   23.3910  -16.5870 O.co2     1 TYD901      0.0000 
      9 O5'        19.5460   24.8420  -15.9190 O.3       1 TYD901      0.0000 
     10 C5'        20.6040   25.7980  -15.8840 C.3       1 TYD901      0.0000 
     11 C4'        19.7630   27.0430  -16.1310 C.3       1 TYD901      0.0000 
     12 O4'        18.9530   27.3380  -15.0000 O.3       1 TYD901      0.0000 
     13 C3'        20.5590   28.2980  -16.4350 C.3       1 TYD901      0.0000 
     14 O3'        20.1900   28.5420  -17.7940 O.3       1 TYD901      0.0000 
     15 C2'        19.8870   29.3860  -15.6120 C.3       1 TYD901      0.0000 
     16 C1'        18.7050   28.7420  -14.8930 C.3       1 TYD901      0.0000 
     17 N1         18.7040   29.1050  -13.4690 N.am      1 TYD901      0.0000 
     18 C2         17.6060   29.5910  -12.8930 C.2       1 TYD901      0.0000 
     19 O2         16.5710   29.7520  -13.5830 O.2       1 TYD901      0.0000 
     20 N3         17.6320   29.9210  -11.5830 N.am      1 TYD901      0.0000 
     21 C4         18.7500   29.7510  -10.8390 C.2       1 TYD901      0.0000 
     22 O4         18.7430   30.0620   -9.6290 O.2       1 TYD901      0.0000 
     23 C5         19.8980   29.2500  -11.4280 C.2       1 TYD901      0.0000 
     24 C5M        21.1940   29.0360  -10.6920 C.3       1 TYD901      0.0000 
     25 C6         19.8350   28.9260  -12.7760 C.2       1 TYD901      0.0000 
     26 H          21.2796   25.6846  -16.6814 H         1 TYD901      0.0000 
     27 H          21.0493   25.8755  -14.9348 H         1 TYD901      0.0000 
     28 H          19.1137   26.8511  -16.9971 H         1 TYD901      0.0000 
     29 H          21.5201   28.1921  -16.2503 H         1 TYD901      0.0000 
     30 H          19.5312   30.1647  -16.2615 H         1 TYD901      0.0000 
     31 H          20.5800   29.7734  -14.8878 H         1 TYD901      0.0000 
     32 H          17.8164   29.0183  -15.3750 H         1 TYD901      0.0000 
     33 H          16.7704   30.3164  -11.1332 H         1 TYD901      0.0000 
     34 H          20.6887   28.5408  -13.2333 H         1 TYD901      0.0000 
     35 H          21.9035   28.6633  -11.2900 H         1 TYD901      0.0000 
     36 H          21.5501   29.8893  -10.3112 H         1 TYD901      0.0000 
     37 H          21.0873   28.3970   -9.9302 H         1 TYD901      0.0000 
     38 H          20.8542   29.2117  -18.1262 H         1 TYD901      0.0000 
@<TRIPOS>BOND
     1    2    1 ar   
     2    3    1 ar   
     3    4    1 1    
     4    9    1 1    
     5    5    4 1    
     6    6    5 ar   
     7    7    5 ar   
     8    8    5 ar   
     9   10    9 1    
    10   11   10 1    
    11   26   10 1    
    12   27   10 1    
    13   12   11 1    
    14   13   11 1    
    15   28   11 1    
    16   16   12 1    
    17   14   13 1    
    18   15   13 1    
    19   29   13 1    
    20   38   14 1    
    21   16   15 1    
    22   30   15 1    
    23   31   15 1    
    24   17   16 1    
    25   32   16 1    
    26   18   17 1    
    27   25   17 1    
    28   19   18 2    
    29   20   18 1    
    30   21   20 1    
    31   33   20 1    
    32   22   21 2    
    33   23   21 1    
    34   24   23 1    
    35   25   23 2    
    36   35   24 1    
    37   36   24 1    
    38   37   24 1    
    39   34   25 1    
@<TRIPOS>SUBSTRUCTURE
     1 TYD901      1 GROUP   
@<TRIPOS>SET

