#    Name: 4af3_VX6_1_INTS_M
#    Modification time : Tue Mar 25 05:32:08 2014

@<TRIPOS>MOLECULE
4af3_VX6_1_INTS_M
   68     0     6     0     0
SMALL
NO_CHARGES


@<TRIPOS>ATOM
      1 CA         23.8065  -19.2065  -13.2375 C.3       2 GLC5        0.0000 
      2 CA         24.4510  -20.1530  -14.8120 C.3       6 GLL5        0.0000 
      3 CA         23.1620  -18.2600  -11.6630 C.3       4 GLP5        0.0000 
      4 CA         20.2530  -23.0585  -12.8215 C.3       2 GLC5        0.0000 
      5 CA         21.0530  -21.3320  -12.2770 C.3       6 GLL5        0.0000 
      6 CA         19.4530  -24.7850  -13.3660 C.3       4 GLP5        0.0000 
      7 CA         22.9060  -20.3730  -11.3290 C.3       2 GLC5        0.0000 
      8 CA         22.6500  -22.4860  -10.9950 C.3       6 GLL5        0.0000 
      9 O          20.1105  -19.4615  -13.1960 O.2       1 ALC1        0.0000 
     10 O          19.8000  -20.8790  -12.5020 O.2       5 ALL1        0.0000 
     11 O          20.4210  -18.0440  -13.8900 O.2       3 ALP1        0.0000 
     12 CA         17.1605  -20.6190  -13.2795 C.3       2 GLC5        0.0000 
     13 CA         18.7090  -21.2910  -11.8100 C.3       6 GLL5        0.0000 
     14 CA         15.6120  -19.9470  -14.7490 C.3       4 GLP5        0.0000 
     15 CA         18.5065  -19.1550  -12.0060 C.3       2 GLC5        0.0000 
     16 CA         18.3040  -17.0190  -12.2020 C.3       4 GLP5        0.0000 
     17 CA         17.0045  -24.8075   -9.8900 C.3       2 GLC5        0.0000 
     18 CA         16.4520  -23.0090   -9.5610 C.3       6 GLL5        0.0000 
     19 CA         17.5570  -26.6060  -10.2190 C.3       4 GLP5        0.0000 
     20 CA         15.8750  -23.3435  -11.3555 C.3       2 GLC5        0.0000 
     21 CA         15.2980  -23.6780  -13.1500 C.3       4 GLP5        0.0000 
     22 CA         15.3305  -21.2830   -9.1070 C.3       2 GLC5        0.0000 
     23 CA         14.2090  -19.5570   -8.6530 C.3       4 GLP5        0.0000 
     24 CA         14.3870  -23.3815   -8.9135 C.3       2 GLC5        0.0000 
     25 CA         12.3220  -23.7540   -8.2660 C.3       4 GLP5        0.0000 
     26 CA         23.2015  -25.5065   -9.1060 C.3       2 GLC5        0.0000 
     27 CA         23.1370  -23.4460   -9.5850 C.3       6 GLL5        0.0000 
     28 CA         23.2660  -27.5670   -8.6270 C.3       4 GLP5        0.0000 
     29 CA         23.0290  -24.1005   -7.6175 C.3       2 GLC5        0.0000 
     30 CA         22.9210  -24.7550   -5.6500 C.3       4 GLP5        0.0000 
     31 CA         23.1155  -20.4785   -7.4700 C.3       2 GLC5        0.0000 
     32 CA         21.6380  -22.1030   -7.8120 C.3       6 GLL5        0.0000 
     33 CA         24.5930  -18.8540   -7.1280 C.3       4 GLP5        0.0000 
     34 CA         18.9045  -25.9925   -7.8755 C.3       2 GLC5        0.0000 
     35 CA         19.7240  -24.1110   -7.6340 C.3       6 GLL5        0.0000 
     36 CA         18.0850  -27.8740   -8.1170 C.3       4 GLP5        0.0000 
     37 CA         21.0815  -25.1305  -10.3810 C.3       2 GLC5        0.0000 
     38 CA         20.8230  -24.2630   -8.4670 C.3       6 GLL5        0.0000 
     39 CA         21.3400  -25.9980  -12.2950 C.3       4 GLP5        0.0000 
     40 CA         22.0445  -25.9150   -8.5470 C.3       2 GLC5        0.0000 
     41 CA         19.1900  -25.4345   -9.3430 C.3       2 GLC5        0.0000 
     42 CA         13.6605  -23.3625   -6.8875 C.3       2 GLC5        0.0000 
     43 CA         14.9990  -22.9710   -5.5090 C.3       6 GLL5        0.0000 
     44 CA         13.2120  -22.9090   -4.5315 C.3       2 GLC5        0.0000 
     45 CA         11.4250  -22.8470   -3.5540 C.3       4 GLP5        0.0000 
     46 CA         15.0735  -25.7945   -5.2745 C.3       2 GLC5        0.0000 
     47 CA         15.3580  -24.1280   -4.6040 C.3       6 GLL5        0.0000 
     48 CA         14.7890  -27.4610   -5.9450 C.3       4 GLP5        0.0000 
     49 CA         13.9730  -24.1350   -3.1675 C.3       2 GLC5        0.0000 
     50 CA         12.5880  -24.1420   -1.7310 C.3       4 GLP5        0.0000 
     51 CA         22.1938  -22.9548  -13.7802 C.3       2 GLC5        0.0000 
     52 CA         22.0410  -21.0120  -13.2100 C.3       6 GLL5        0.0000 
     53 CA         21.6940  -24.6760  -14.4650 C.3       4 GLP5        0.0000 
     54 CA         22.5176  -19.7714  -12.1746 C.3       2 GLC5        0.0000 
     55 CA         22.1167  -24.4820  -11.2925 C.3       2 GLC5        0.0000 
     56 CA         19.0360  -23.2770  -12.3577 C.3       2 GLC5        0.0000 
     57 CA         18.5290  -22.2470  -10.8890 C.3       6 GLL5        0.0000 
     58 CA         16.9585  -22.7235  -12.2498 C.3       2 GLC5        0.0000 
     59 CA         18.3425  -20.3270   -9.8592 C.3       2 GLC5        0.0000 
     60 CA         18.0660  -18.8850   -8.3690 C.3       4 GLP5        0.0000 
     61 CA         20.8223  -20.4255   -7.9547 C.3       2 GLC5        0.0000 
     62 CA         20.5530  -18.8260   -8.5160 C.3       4 GLP5        0.0000 
     63 CA         15.8397  -20.9305   -5.3987 C.3       2 GLC5        0.0000 
     64 CA         16.4240  -23.0950   -4.9500 C.3       6 GLL5        0.0000 
     65 CA         15.9680  -18.8280   -5.5680 C.3       4 GLP5        0.0000 
     66 CA         20.5386  -24.6256   -6.4092 C.3       2 GLC5        0.0000 
     67 CA         20.5450  -21.9470   -6.9750 C.3       6 GLL5        0.0000 
     68 CA         20.7920  -26.0610   -5.3210 C.3       4 GLP5        0.0000 
@<TRIPOS>BOND
@<TRIPOS>SUBSTRUCTURE
     1 ALC1        9 GROUP        1 X    ALC  0     ROOT ALC X 1
     2 GLC5        1 GROUP        1 X    GLC  0     **** GLC X 6
     3 ALP1       11 GROUP        1 Y    ALP  0     ROOT ALP Y 8
     4 GLP5        3 GROUP        1 Y    GLP  0     **** GLP Y 13
     5 ALL1       10 GROUP        1 Z    ALL  0     ROOT ALL Z 15
     6 GLL5        2 GROUP        1 Z    GLL  0     **** GLL Z 20
@<TRIPOS>SET

