#    Name: 4af3_VX6_1_ligand
#    Modification time : Tue Mar 25 05:32:08 2014

@<TRIPOS>MOLECULE
4af3_VX6_1_ligand
   62    66     1     0     0
SMALL
NO_CHARGES


@<TRIPOS>ATOM
      1 N1         26.8280  -20.5750  -15.1820 N.4       1 VX6500      0.0000 
      2 C2         25.4860  -20.5210  -15.8370 C.3       1 VX6500      0.0000 
      3 C3         24.4510  -20.1530  -14.8120 C.3       1 VX6500      0.0000 
      4 N4         24.3950  -21.2370  -13.8010 N.3       1 VX6500      0.0000 
      5 C5         25.5770  -22.1270  -13.6900 C.3       1 VX6500      0.0000 
      6 C6         26.8130  -21.3150  -13.8930 C.3       1 VX6500      0.0000 
      7 C7         27.4520  -19.2360  -14.9940 C.3       1 VX6500      0.0000 
      8 C8         23.3460  -21.4550  -12.9810 C.ar      1 VX6500      0.0000 
      9 C9         22.0410  -21.0120  -13.2100 C.ar      1 VX6500      0.0000 
     10 C10        21.0530  -21.3320  -12.2770 C.ar      1 VX6500      0.0000 
     11 N11        21.3890  -22.0610  -11.1880 N.ar      1 VX6500      0.0000 
     12 C12        22.6500  -22.4860  -10.9950 C.ar      1 VX6500      0.0000 
     13 N13        23.5980  -22.1820  -11.8830 N.ar      1 VX6500      0.0000 
     14 N14        19.8000  -20.8790  -12.5020 N.pl3     1 VX6500      0.0000 
     15 C15        18.7090  -21.2910  -11.8100 C.2       1 VX6500      0.0000 
     16 C17        18.5290  -22.2470  -10.8890 C.2       1 VX6500      0.0000 
     17 C18        17.2410  -22.1620  -10.5690 C.2       1 VX6500      0.0000 
     18 N19        16.6830  -21.1950  -11.2730 N.2       1 VX6500      0.0000 
     19 N20        17.5380  -20.6930  -11.9950 N.pl3     1 VX6500      0.0000 
     20 C21        16.4520  -23.0090   -9.5610 C.3       1 VX6500      0.0000 
     21 S23        23.1370  -23.4460   -9.5850 S.3       1 VX6500      0.0000 
     22 C24        21.7750  -23.2610   -8.5580 C.ar      1 VX6500      0.0000 
     23 C25        21.6380  -22.1030   -7.8120 C.ar      1 VX6500      0.0000 
     24 C26        20.5450  -21.9470   -6.9750 C.ar      1 VX6500      0.0000 
     25 C27        19.5730  -22.9410   -6.8680 C.ar      1 VX6500      0.0000 
     26 C28        19.7240  -24.1110   -7.6340 C.ar      1 VX6500      0.0000 
     27 C29        20.8230  -24.2630   -8.4670 C.ar      1 VX6500      0.0000 
     28 N30        18.5490  -22.6830   -6.0290 N.am      1 VX6500      0.0000 
     29 C31        17.5190  -23.5400   -5.9130 C.2       1 VX6500      0.0000 
     30 O32        17.4040  -24.6060   -6.5110 O.2       1 VX6500      0.0000 
     31 C33        16.4240  -23.0950   -4.9500 C.3       1 VX6500      0.0000 
     32 C34        14.9990  -22.9710   -5.5090 C.3       1 VX6500      0.0000 
     33 C35        15.3580  -24.1280   -4.6040 C.3       1 VX6500      0.0000 
     34 H          27.5087  -21.1505  -15.8708 H         1 VX6500      0.0000 
     35 H          25.2445  -21.4923  -16.2647 H         1 VX6500      0.0000 
     36 H          25.4922  -19.7763  -16.6307 H         1 VX6500      0.0000 
     37 H          23.4861  -20.0426  -15.2969 H         1 VX6500      0.0000 
     38 H          24.7273  -19.2149  -14.3407 H         1 VX6500      0.0000 
     39 H          25.5256  -22.9096  -14.4460 H         1 VX6500      0.0000 
     40 H          25.6022  -22.5907  -12.7046 H         1 VX6500      0.0000 
     41 H          26.9174  -20.5969  -13.0554 H         1 VX6500      0.0000 
     42 H          27.6975  -21.9806  -13.8407 H         1 VX6500      0.0000 
     43 H          21.8160  -20.4681  -14.0388 H         1 VX6500      0.0000 
     44 H          19.6581  -20.1519  -13.2715 H         1 VX6500      0.0000 
     45 H          19.1776  -22.8459  -10.5466 H         1 VX6500      0.0000 
     46 H          17.4271  -19.9371  -12.6510 H         1 VX6500      0.0000 
     47 H          22.3462  -21.3592   -7.8786 H         1 VX6500      0.0000 
     48 H          20.4447  -21.0793   -6.4180 H         1 VX6500      0.0000 
     49 H          19.0134  -24.8506   -7.5705 H         1 VX6500      0.0000 
     50 H          20.9308  -25.1269   -9.0209 H         1 VX6500      0.0000 
     51 H          18.5576  -21.8019   -5.4602 H         1 VX6500      0.0000 
     52 H          16.4885  -22.5017   -4.2179 H         1 VX6500      0.0000 
     53 H          15.0215  -23.2793   -6.4030 H         1 VX6500      0.0000 
     54 H          14.5506  -22.3199   -4.9896 H         1 VX6500      0.0000 
     55 H          15.0387  -23.9314   -3.7330 H         1 VX6500      0.0000 
     56 H          15.5097  -24.8908   -5.1464 H         1 VX6500      0.0000 
     57 H          28.3471  -19.3020  -14.5531 H         1 VX6500      0.0000 
     58 H          27.5884  -18.7642  -15.8651 H         1 VX6500      0.0000 
     59 H          26.8873  -18.6400  -14.4231 H         1 VX6500      0.0000 
     60 H          16.4658  -23.9798   -9.8004 H         1 VX6500      0.0000 
     61 H          16.8253  -22.9297   -8.6367 H         1 VX6500      0.0000 
     62 H          15.4922  -22.7323   -9.5142 H         1 VX6500      0.0000 
@<TRIPOS>BOND
     1    2    1 1    
     2    6    1 1    
     3    7    1 1    
     4   34    1 1    
     5    3    2 1    
     6   35    2 1    
     7   36    2 1    
     8    4    3 1    
     9   37    3 1    
    10   38    3 1    
    11    5    4 1    
    12    8    4 1    
    13    6    5 1    
    14   39    5 1    
    15   40    5 1    
    16   41    6 1    
    17   42    6 1    
    18   57    7 1    
    19   58    7 1    
    20   59    7 1    
    21    9    8 ar   
    22   13    8 ar   
    23   10    9 ar   
    24   43    9 1    
    25   11   10 ar   
    26   14   10 1    
    27   12   11 ar   
    28   13   12 ar   
    29   21   12 1    
    30   15   14 1    
    31   44   14 1    
    32   16   15 2    
    33   19   15 1    
    34   17   16 1    
    35   45   16 1    
    36   18   17 2    
    37   20   17 1    
    38   19   18 1    
    39   46   19 1    
    40   60   20 1    
    41   61   20 1    
    42   62   20 1    
    43   22   21 1    
    44   23   22 ar   
    45   27   22 ar   
    46   24   23 ar   
    47   47   23 1    
    48   25   24 ar   
    49   48   24 1    
    50   26   25 ar   
    51   28   25 1    
    52   27   26 ar   
    53   49   26 1    
    54   50   27 1    
    55   29   28 am   
    56   51   28 1    
    57   30   29 2    
    58   31   29 1    
    59   32   31 1    
    60   33   31 1    
    61   52   31 1    
    62   33   32 1    
    63   53   32 1    
    64   54   32 1    
    65   55   33 1    
    66   56   33 1    
@<TRIPOS>SUBSTRUCTURE
     1 VX6500      1 GROUP   
@<TRIPOS>SET

