#    Name: 2hwr_DRD_1_INTS_M
#    Modification time : Tue Mar 25 17:08:49 2014

@<TRIPOS>MOLECULE
2hwr_DRD_1_INTS_M
  109     0     6     0     0
SMALL
NO_CHARGES


@<TRIPOS>ATOM
      1 CA         33.7725   -7.5175   49.5450 C.3       2 GLC5        0.0000 
      2 CA         34.4270   -7.3060   47.6070 C.3       6 GLL5        0.0000 
      3 CA         33.1180   -7.7290   51.4830 C.3       4 GLP5        0.0000 
      4 CA         34.1375  -10.3845   46.9810 C.3       2 GLC5        0.0000 
      5 CA         34.2360   -8.1990   46.5490 C.3       6 GLL5        0.0000 
      6 CA         34.0390  -12.5700   47.4130 C.3       4 GLP5        0.0000 
      7 CA         35.5755   -8.7255   44.8655 C.3       2 GLC5        0.0000 
      8 CA         33.8130   -7.7490   45.3040 C.3       6 GLL5        0.0000 
      9 CA         37.3380   -9.7020   44.4270 C.3       4 GLP5        0.0000 
     10 CA         33.5345   -8.5275   43.4460 C.3       2 GLC5        0.0000 
     11 CA         33.2560   -9.3060   41.5880 C.3       4 GLP5        0.0000 
     12 CA         33.6680   -7.2530   42.1535 C.3       2 GLC5        0.0000 
     13 CA         34.0800   -5.2000   42.7190 C.3       6 GLL5        0.0000 
     14 CA         37.1560   -6.3400   43.5430 C.3       2 GLC5        0.0000 
     15 CA         35.4440   -5.0220   42.9970 C.3       6 GLL5        0.0000 
     16 CA         38.8680   -7.6580   44.0890 C.3       4 GLP5        0.0000 
     17 CA         33.8725   -2.7905   42.4400 C.3       2 GLC5        0.0000 
     18 CA         33.5720   -4.7620   41.4920 C.3       6 GLL5        0.0000 
     19 CA         34.1730   -0.8190   43.3880 C.3       4 GLP5        0.0000 
     20 CA         34.9025   -6.0970   39.6105 C.3       2 GLC5        0.0000 
     21 CA         34.4070   -4.1600   40.5530 C.3       6 GLL5        0.0000 
     22 CA         35.3980   -8.0340   38.6680 C.3       4 GLP5        0.0000 
     23 CA         37.0655   -1.3040   37.4050 C.3       2 GLC5        0.0000 
     24 CA         36.0740   -2.8540   38.4610 C.3       6 GLL5        0.0000 
     25 CA         38.0570    0.2460   36.3490 C.3       4 GLP5        0.0000 
     26 CA         36.9230   -5.5460   38.5105 C.3       2 GLC5        0.0000 
     27 CA         35.9660   -4.0050   37.4420 C.3       6 GLL5        0.0000 
     28 CA         37.8800   -7.0870   39.5790 C.3       4 GLP5        0.0000 
     29 CA         38.2510   -5.9505   43.2145 C.3       2 GLC5        0.0000 
     30 CA         37.6340   -4.2430   42.3400 C.3       6 GLL5        0.0000 
     31 CA         38.2710   -4.0215   44.2385 C.3       2 GLC5        0.0000 
     32 CA         38.9080   -3.8000   46.1370 C.3       4 GLP5        0.0000 
     33 CA         38.6890   -5.3075   38.9605 C.3       2 GLC5        0.0000 
     34 CA         39.4980   -3.5280   38.3420 C.3       6 GLL5        0.0000 
     35 CA         41.4710   -1.0130   37.8115 C.3       2 GLC5        0.0000 
     36 CA         40.9230   -3.0840   37.9350 C.3       6 GLL5        0.0000 
     37 CA         42.0190    1.0580   37.6880 C.3       4 GLP5        0.0000 
     38 CA         39.9855   -2.8675   35.1535 C.3       2 GLC5        0.0000 
     39 CA         40.0650   -4.7670   35.2420 C.3       6 GLL5        0.0000 
     40 CA         39.9060   -0.9680   35.0650 C.3       4 GLP5        0.0000 
     41 CA         42.0260   -4.7635   34.4680 C.3       2 GLC5        0.0000 
     42 CA         43.9870   -4.7600   33.6940 C.3       4 GLP5        0.0000 
     43 CA         36.8710   -9.2490   36.7670 C.3       2 GLC5        0.0000 
     44 CA         36.8340  -10.2750   35.0100 C.3       6 GLL5        0.0000 
     45 CA         36.9080   -8.2230   38.5240 C.3       4 GLP5        0.0000 
     46 CA         35.2615  -10.4640   35.6965 C.3       2 GLC5        0.0000 
     47 CA         33.6890  -10.6530   36.3830 C.3       4 GLP5        0.0000 
     48 CA         35.5685   -8.7295   34.0710 C.3       2 GLC5        0.0000 
     49 CA         34.3030   -7.1840   33.1320 C.3       4 GLP5        0.0000 
     50 CA         35.3085  -11.2035   33.8205 C.3       2 GLC5        0.0000 
     51 CA         33.7830  -12.1320   32.6310 C.3       4 GLP5        0.0000 
     52 CA         39.8770  -12.2935   35.8885 C.3       2 GLC5        0.0000 
     53 CA         39.1250  -11.2070   34.8220 C.3       6 GLL5        0.0000 
     54 CA         40.6290  -13.3800   36.9550 C.3       4 GLP5        0.0000 
     55 CA         40.8235  -12.4250   34.0455 C.3       2 GLC5        0.0000 
     56 CA         42.5220  -13.6430   33.2690 C.3       4 GLP5        0.0000 
     57 N          39.2290  -10.7575   30.8745 N.am      1 SEC2        0.0000 
     58 N          38.5860  -11.2390   32.1910 N.am      5 SEL2        0.0000 
     59 N          39.8720  -10.2760   29.5580 N.am      3 SEP2        0.0000 
     60 N          40.1125  -10.5065   32.3395 N.am      1 SEC2        0.0000 
     61 N          41.6390   -9.7740   32.4880 N.am      3 SEP2        0.0000 
     62 N          35.9205   -8.9630   32.6270 N.am      1 SEC2        0.0000 
     63 N          37.3830   -9.3520   32.1330 N.am      5 SEL2        0.0000 
     64 N          34.4580   -8.5740   33.1210 N.am      3 SEP2        0.0000 
     65 N          37.3790   -8.8025   30.8360 N.am      1 SEC2        0.0000 
     66 N          37.3750   -8.2530   29.5390 N.am      3 SEP2        0.0000 
     67 CA         34.2370   -3.8520   46.2313 C.3       2 GLC5        0.0000 
     68 CA         33.7670   -5.5020   46.1750 C.3       6 GLL5        0.0000 
     69 CA         34.4960   -1.9800   45.6600 C.3       4 GLP5        0.0000 
     70 CA         35.6895   -6.6845   48.8513 C.3       2 GLC5        0.0000 
     71 CA         34.1890   -5.9460   47.4300 C.3       6 GLL5        0.0000 
     72 CA         37.0710   -6.7430   50.1840 C.3       4 GLP5        0.0000 
     73 CA         36.2963   -8.0757   46.7545 C.3       2 GLC5        0.0000 
     74 CA         38.2610   -8.3990   46.4310 C.3       4 GLP5        0.0000 
     75 CA         36.0673   -5.6100   47.2574 C.3       2 GLC5        0.0000 
     76 CA         37.9320   -4.7050   47.3100 C.3       4 GLP5        0.0000 
     77 CA         34.6290   -3.5455   44.2590 C.3       2 GLC5        0.0000 
     78 CA         32.9818   -4.8035   39.2133 C.3       2 GLC5        0.0000 
     79 CA         31.9740   -5.1460   37.4040 C.3       4 GLP5        0.0000 
     80 CA         35.4060   -2.4668   41.8905 C.3       2 GLC5        0.0000 
     81 CA         35.7230   -0.8710   43.1010 C.3       4 GLP5        0.0000 
     82 CA         37.0343   -5.3720   39.9502 C.3       2 GLC5        0.0000 
     83 CA         35.7710   -3.9650   40.8070 C.3       6 GLL5        0.0000 
     84 CA         33.9177   -3.5759   37.0106 C.3       2 GLC5        0.0000 
     85 CA         35.4310   -3.5480   36.0750 C.3       6 GLL5        0.0000 
     86 CA         32.1100   -3.6630   37.0080 C.3       4 GLP5        0.0000 
     87 CA         37.4188   -5.7067   40.8863 C.3       2 GLC5        0.0000 
     88 CA         36.2810   -4.4100   42.0470 C.3       6 GLL5        0.0000 
     89 CA         38.0512   -5.2512   40.1810 C.3       2 GLC5        0.0000 
     90 CA         38.4710   -3.6350   41.4020 C.3       6 GLL5        0.0000 
     91 CA         38.7092   -1.5137   41.3560 C.3       2 GLC5        0.0000 
     92 CA         37.9740   -3.1960   40.1640 C.3       6 GLL5        0.0000 
     93 CA         39.1960    0.3880   41.9290 C.3       4 GLP5        0.0000 
     94 CA         42.5183   -3.0023   36.0390 C.3       2 GLC5        0.0000 
     95 CA         43.7330   -2.3870   34.5500 C.3       4 GLP5        0.0000 
     96 CA         40.4266   -2.3483   36.3474 C.3       2 GLC5        0.0000 
     97 CA         41.6840   -4.1510   37.1210 C.3       6 GLL5        0.0000 
     98 CA         41.8261   -4.6837   39.1554 C.3       2 GLC5        0.0000 
     99 CA         42.7050   -5.6390   40.6810 C.3       4 GLP5        0.0000 
    100 CA         42.9865   -8.2060   37.7763 C.3       2 GLC5        0.0000 
    101 CA         41.2750   -7.2240   37.4900 C.3       6 GLL5        0.0000 
    102 CA         44.8520   -8.5130   38.0640 C.3       4 GLP5        0.0000 
    103 CA         41.6510   -7.6245   39.2632 C.3       2 GLC5        0.0000 
    104 CA         42.1810   -7.3500   41.0380 C.3       4 GLP5        0.0000 
    105 CA         39.4299   -7.3879   38.4140 C.3       2 GLC5        0.0000 
    106 CA         40.9670   -8.5740   37.4870 C.3       6 GLL5        0.0000 
    107 CA         38.3930   -8.2730   37.2845 C.3       2 GLC5        0.0000 
    108 CA         40.0900   -9.0760   36.5290 C.3       6 GLL5        0.0000 
    109 CA         36.5710   -2.3806   42.2741 C.3       2 GLC5        0.0000 
@<TRIPOS>BOND
@<TRIPOS>SUBSTRUCTURE
     1 SEC2       57 GROUP        1 X    SEC  0     ROOT SEC X 2
     2 GLC5        1 GROUP        1 X    GLC  0     **** GLC X 6
     3 SEP2       59 GROUP        1 Y    SEP  0     ROOT SEP Y 9
     4 GLP5        3 GROUP        1 Y    GLP  0     **** GLP Y 13
     5 SEL2       58 GROUP        1 Z    SEL  0     ROOT SEL Z 16
     6 GLL5        2 GROUP        1 Z    GLL  0     **** GLL Z 20
@<TRIPOS>SET

