#    Name: 2hwr_DRD_1_ligand
#    Modification time : Tue Mar 25 17:08:49 2014

@<TRIPOS>MOLECULE
2hwr_DRD_1_ligand
   75    79     1     0     0
SMALL
NO_CHARGES


@<TRIPOS>ATOM
      1 CAV        33.7670   -5.5020   46.1750 C.ar      1 DRD101      0.0000 
      2 CAY        34.1890   -5.9460   47.4300 C.ar      1 DRD101      0.0000 
      3 CAX        34.4270   -7.3060   47.6070 C.ar      1 DRD101      0.0000 
      4 CAW        34.2360   -8.1990   46.5490 C.ar      1 DRD101      0.0000 
      5 CAZ        33.8130   -7.7490   45.3040 C.ar      1 DRD101      0.0000 
      6 CBA        33.5850   -6.3880   45.1040 C.ar      1 DRD101      0.0000 
      7 CBB        33.1100   -5.8560   43.7290 C.2       1 DRD101      0.0000 
      8 OBO        31.9170   -5.9300   43.4410 O.2       1 DRD101      0.0000 
      9 CBC        34.0800   -5.2000   42.7190 C.ar      1 DRD101      0.0000 
     10 CBH        35.4440   -5.0220   42.9970 C.ar      1 DRD101      0.0000 
     11 CBD        33.5720   -4.7620   41.4920 C.ar      1 DRD101      0.0000 
     12 CBG        34.4070   -4.1600   40.5530 C.ar      1 DRD101      0.0000 
     13 CBF        35.7710   -3.9650   40.8070 C.ar      1 DRD101      0.0000 
     14 CBK        36.6060   -3.3490   39.8360 C.ar      1 DRD101      0.0000 
     15 CBL        36.0740   -2.8540   38.4610 C.3       1 DRD101      0.0000 
     16 CBM        35.9660   -4.0050   37.4420 C.3       1 DRD101      0.0000 
     17 CBN        35.4310   -3.5480   36.0750 C.3       1 DRD101      0.0000 
     18 CBE        36.2810   -4.4100   42.0470 C.ar      1 DRD101      0.0000 
     19 CBI        37.6340   -4.2430   42.3400 C.ar      1 DRD101      0.0000 
     20 CBJ        38.4710   -3.6350   41.4020 C.ar      1 DRD101      0.0000 
     21 CAE        37.9740   -3.1960   40.1640 C.ar      1 DRD101      0.0000 
     22 OAD        38.8520   -2.6030   39.2830 O.3       1 DRD101      0.0000 
     23 CAC        39.4980   -3.5280   38.3420 C.3       1 DRD101      0.0000 
     24 CAB        40.9230   -3.0840   37.9350 C.3       1 DRD101      0.0000 
     25 CAA        41.6840   -4.1510   37.1210 C.3       1 DRD101      0.0000 
     26 NAT        40.8250   -5.0770   36.3090 N.pl3     1 DRD101      0.0000 
     27 CAU        40.0650   -4.7670   35.2420 C.2       1 DRD101      0.0000 
     28 CAM        39.4470   -5.8660   34.7880 C.2       1 DRD101      0.0000 
     29 CAN        39.8260   -6.8880   35.5640 C.ar      1 DRD101      0.0000 
     30 CAO        40.7100   -6.3830   36.5320 C.ar      1 DRD101      0.0000 
     31 CAR        41.2750   -7.2240   37.4900 C.ar      1 DRD101      0.0000 
     32 CAQ        40.9670   -8.5740   37.4870 C.ar      1 DRD101      0.0000 
     33 CAP        40.0900   -9.0760   36.5290 C.ar      1 DRD101      0.0000 
     34 CAS        39.5060   -8.2520   35.5580 C.ar      1 DRD101      0.0000 
     35 OAF        38.6460   -8.7160   34.5860 O.3       1 DRD101      0.0000 
     36 CAG        38.1900  -10.1060   34.3230 C.3       1 DRD101      0.0000 
     37 CAL        36.8340  -10.2750   35.0100 C.3       1 DRD101      0.0000 
     38 CAK        39.1250  -11.2070   34.8220 C.3       1 DRD101      0.0000 
     39 CAH        38.0360  -10.2480   32.7520 C.2       1 DRD101      0.0000 
     40 OAJ        38.5860  -11.2390   32.1910 O.co2     1 DRD101      0.0000 
     41 OAI        37.3830   -9.3520   32.1330 O.co2     1 DRD101      0.0000 
     42 H          33.5830   -4.4917   46.0293 H         1 DRD101      0.0000 
     43 H          34.3187   -5.2897   48.1950 H         1 DRD101      0.0000 
     44 H          34.7451   -7.6580   48.5201 H         1 DRD101      0.0000 
     45 H          34.4125   -9.2061   46.6978 H         1 DRD101      0.0000 
     46 H          33.6688   -8.4122   44.5357 H         1 DRD101      0.0000 
     47 H          35.8308   -5.3371   43.8906 H         1 DRD101      0.0000 
     48 H          32.5705   -4.8866   41.2824 H         1 DRD101      0.0000 
     49 H          34.0140   -3.8486   39.6463 H         1 DRD101      0.0000 
     50 H          36.7530   -2.0955   38.0761 H         1 DRD101      0.0000 
     51 H          35.0915   -2.4089   38.6061 H         1 DRD101      0.0000 
     52 H          35.3003   -4.7753   37.8466 H         1 DRD101      0.0000 
     53 H          36.9567   -4.4524   37.3062 H         1 DRD101      0.0000 
     54 H          38.0117   -4.5633   43.2354 H         1 DRD101      0.0000 
     55 H          39.4721   -3.5045   41.6189 H         1 DRD101      0.0000 
     56 H          38.9018   -3.6243   37.4185 H         1 DRD101      0.0000 
     57 H          39.5752   -4.5383   38.7791 H         1 DRD101      0.0000 
     58 H          41.4934   -2.8540   38.8415 H         1 DRD101      0.0000 
     59 H          40.8505   -2.1671   37.3400 H         1 DRD101      0.0000 
     60 H          42.3044   -4.7422   37.8270 H         1 DRD101      0.0000 
     61 H          42.3998   -3.6265   36.4536 H         1 DRD101      0.0000 
     62 H          39.9790   -3.8722   34.8581 H         1 DRD101      0.0000 
     63 H          38.8413   -5.9107   34.0402 H         1 DRD101      0.0000 
     64 H          41.9168   -6.8394   38.1935 H         1 DRD101      0.0000 
     65 H          41.3802   -9.2028   38.1842 H         1 DRD101      0.0000 
     66 H          39.8600  -10.0893   36.5312 H         1 DRD101      0.0000 
     67 H          36.0198   -2.8553   35.6584 H         1 DRD101      0.0000 
     68 H          35.3689   -4.3077   35.4276 H         1 DRD101      0.0000 
     69 H          34.5166   -3.1498   36.1483 H         1 DRD101      0.0000 
     70 H          36.8970  -10.1287   35.9972 H         1 DRD101      0.0000 
     71 H          36.1572   -9.6272   34.6603 H         1 DRD101      0.0000 
     72 H          36.4600  -11.1922   34.8729 H         1 DRD101      0.0000 
     73 H          40.0284  -11.1477   34.3974 H         1 DRD101      0.0000 
     74 H          39.2623  -11.1576   35.8113 H         1 DRD101      0.0000 
     75 H          38.7660  -12.1184   34.6211 H         1 DRD101      0.0000 
@<TRIPOS>BOND
     1    2    1 ar   
     2    6    1 ar   
     3   42    1 1    
     4    3    2 ar   
     5   43    2 1    
     6    4    3 ar   
     7   44    3 1    
     8    5    4 ar   
     9   45    4 1    
    10    6    5 ar   
    11   46    5 1    
    12    7    6 1    
    13    8    7 2    
    14    9    7 1    
    15   10    9 ar   
    16   11    9 ar   
    17   18   10 ar   
    18   47   10 1    
    19   12   11 ar   
    20   48   11 1    
    21   13   12 ar   
    22   49   12 1    
    23   14   13 ar   
    24   18   13 ar   
    25   15   14 1    
    26   21   14 ar   
    27   16   15 1    
    28   50   15 1    
    29   51   15 1    
    30   17   16 1    
    31   52   16 1    
    32   53   16 1    
    33   67   17 1    
    34   68   17 1    
    35   69   17 1    
    36   19   18 ar   
    37   20   19 ar   
    38   54   19 1    
    39   21   20 ar   
    40   55   20 1    
    41   22   21 1    
    42   23   22 1    
    43   24   23 1    
    44   56   23 1    
    45   57   23 1    
    46   25   24 1    
    47   58   24 1    
    48   59   24 1    
    49   26   25 1    
    50   60   25 1    
    51   61   25 1    
    52   27   26 1    
    53   30   26 1    
    54   28   27 2    
    55   62   27 1    
    56   29   28 1    
    57   63   28 1    
    58   30   29 ar   
    59   34   29 ar   
    60   31   30 ar   
    61   32   31 ar   
    62   64   31 1    
    63   33   32 ar   
    64   65   32 1    
    65   34   33 ar   
    66   66   33 1    
    67   35   34 1    
    68   36   35 1    
    69   37   36 1    
    70   38   36 1    
    71   39   36 1    
    72   70   37 1    
    73   71   37 1    
    74   72   37 1    
    75   73   38 1    
    76   74   38 1    
    77   75   38 1    
    78   40   39 ar   
    79   41   39 ar   
@<TRIPOS>SUBSTRUCTURE
     1 DRD101      1 GROUP   
@<TRIPOS>SET

