#    Name: 4ey2_0RM_1_INTS_M
#    Modification time : Mon Mar 24 18:44:18 2014

@<TRIPOS>MOLECULE
4ey2_0RM_1_INTS_M
   80     0    15     0     0
SMALL
NO_CHARGES


@<TRIPOS>ATOM
      1 N          -5.3310   10.4650   23.5695 N.am      2 SEC2        0.0000 
      2 N          -5.1970    9.5750   24.8020 N.am     12 SEL2        0.0000 
      3 N          -5.4650   11.3550   22.3370 N.am      7 SEP2        0.0000 
      4 O          -4.1060    8.4550   28.0000 O.2       1 ALC1        0.0000 
      5 O          -4.1110    8.6830   26.5830 O.2      11 ALL1        0.0000 
      6 O          -4.1010    8.2270   29.4170 O.2       6 ALP1        0.0000 
      7 CA         -4.1330    7.5535   24.2510 C.3       5 GLC5        0.0000 
      8 CA         -2.9800    8.2200   25.8290 C.3      15 GLL5        0.0000 
      9 CA         -5.2860    6.8870   22.6730 C.3      10 GLP5        0.0000 
     10 CA         -2.4910   11.3415   25.8445 C.3       5 GLC5        0.0000 
     11 CA         -1.8080    9.2720   25.9130 C.3      15 GLL5        0.0000 
     12 CA         -3.1740   13.4110   25.7760 C.3      10 GLP5        0.0000 
     13 CA          0.6085   12.8960   27.2525 C.3       5 GLC5        0.0000 
     14 CA          0.9340   10.8720   26.8130 C.3      15 GLL5        0.0000 
     15 CA          0.2830   14.9200   27.6920 C.3      10 GLP5        0.0000 
     16 CA          1.9000   11.0380   25.3520 C.3       5 GLC5        0.0000 
     17 CA          2.8660   11.2040   23.8910 C.3      10 GLP5        0.0000 
     18 CA          2.8685    7.8880   28.7020 C.3       5 GLC5        0.0000 
     19 CA          1.1150    9.2010   28.6630 C.3      15 GLL5        0.0000 
     20 CA          4.6220    6.5750   28.7410 C.3      10 GLP5        0.0000 
     21 CA          1.9720    8.9030   30.1760 C.3       5 GLC5        0.0000 
     22 CA          2.8290    8.6050   31.6890 C.3      10 GLP5        0.0000 
     23 CA          0.2600   10.3270   29.9270 C.3       5 GLC5        0.0000 
     24 CA         -0.5950   11.4530   31.1910 C.3      10 GLP5        0.0000 
     25 CA          1.6395    9.8050   25.0995 C.3       5 GLC5        0.0000 
     26 CA          0.4130    8.4060   26.3080 C.3      15 GLL5        0.0000 
     27 NZ          3.3015    7.6775   24.5405 N.4       3 LYC4        0.0000 
     28 NZ          1.9600    8.3900   24.4920 N.4      13 LYL4        0.0000 
     29 NZ          4.6430    6.9650   24.5890 N.4       8 LYP4        0.0000 
     30 Zn          1.1675    8.9635   23.9990 Zn        4 ZIC7        0.0000 
     31 Zn          1.9600    8.3900   24.4920 Zn       14 ZIL7        0.0000 
     32 Zn          0.3750    9.5370   23.5060 Zn        9 ZIP7        0.0000 
     33 N           3.3015    7.6775   24.5405 N.am      2 SEC2        0.0000 
     34 N           1.9600    8.3900   24.4920 N.am     12 SEL2        0.0000 
     35 N           4.6430    6.9650   24.5890 N.am      7 SEP2        0.0000 
     36 NZ          3.5935    7.2125   25.4875 N.4       3 LYC4        0.0000 
     37 NZ          2.5440    7.4600   26.3860 N.4      13 LYL4        0.0000 
     38 N           3.5935    7.2125   25.4875 N.am      2 SEC2        0.0000 
     39 N           2.5440    7.4600   26.3860 N.am     12 SEL2        0.0000 
     40 N           2.4310    6.6380   27.6350 N.am      2 SEC2        0.0000 
     41 N           2.3180    5.8160   28.8840 N.am      7 SEP2        0.0000 
     42 Zn         -1.9190    5.9865   24.2745 Zn        4 ZIC7        0.0000 
     43 Zn         -1.7150    6.2390   25.4790 Zn       14 ZIL7        0.0000 
     44 Zn         -2.1230    5.7340   23.0700 Zn        9 ZIP7        0.0000 
     45 N          -2.8140    5.9280   28.5165 N.am      2 SEC2        0.0000 
     46 N          -3.2260    6.2360   27.1080 N.am     12 SEL2        0.0000 
     47 N          -2.4020    5.6200   29.9250 N.am      7 SEP2        0.0000 
     48 CA         -5.2960   13.4745   28.7490 C.3       5 GLC5        0.0000 
     49 CA         -4.5840   11.8430   29.2690 C.3      15 GLL5        0.0000 
     50 CA         -6.0080   15.1060   28.2290 C.3      10 GLP5        0.0000 
     51 CA         -4.1160   12.9245   30.6305 C.3       5 GLC5        0.0000 
     52 CA         -3.6480   14.0060   31.9920 C.3      10 GLP5        0.0000 
     53 CA         -4.5470   12.4970   27.3600 C.3       5 GLC5        0.0000 
     54 CA         -4.5100   13.1510   25.4510 C.3      10 GLP5        0.0000 
     55 CA         -3.4670   10.9215   30.7910 C.3       5 GLC5        0.0000 
     56 CA         -2.3500   10.0000   32.3130 C.3      10 GLP5        0.0000 
     57 CA         -6.6205   12.9730   28.5165 C.3       5 GLC5        0.0000 
     58 CA         -7.2330   10.8400   28.8040 C.3      15 GLL5        0.0000 
     59 N          -7.4695    8.6505   24.2205 N.am      2 SEC2        0.0000 
     60 N          -7.6160    8.0910   25.6550 N.am     12 SEL2        0.0000 
     61 N          -7.3230    9.2100   22.7860 N.am      7 SEP2        0.0000 
     62 CA         -7.7245    7.1570   23.7215 C.3       5 GLC5        0.0000 
     63 CA         -8.7980    7.2960   25.4660 C.3      15 GLL5        0.0000 
     64 CA         -6.6510    7.0180   21.9770 C.3      10 GLP5        0.0000 
     65 CA         -8.5175    9.2305   24.7125 C.3       5 GLC5        0.0000 
     66 CA         -8.2370   11.1650   23.9590 C.3      10 GLP5        0.0000 
     67 CA        -10.0160    8.2955   24.0415 C.3       5 GLC5        0.0000 
     68 CA        -11.2340    9.2950   22.6170 C.3      10 GLP5        0.0000 
     69 CA         -0.5622   10.5322   29.3445 C.3       5 GLC5        0.0000 
     70 CA         -1.4260    9.6640   27.6340 C.3      15 GLL5        0.0000 
     71 CA          0.2310    7.2520   28.1361 C.3       5 GLC5        0.0000 
     72 CA         -0.1150    5.6110   29.1120 C.3      10 GLP5        0.0000 
     73 CA         -6.1470    8.9330   29.0505 C.3       5 GLC5        0.0000 
     74 CA         -6.3300    9.6170   26.8890 C.3      15 GLL5        0.0000 
     75 CA         -6.0500    7.8060   30.6770 C.3      10 GLP5        0.0000 
     76 CA         -6.9415    9.1578   29.6807 C.3       5 GLC5        0.0000 
     77 CA         -8.0104   10.2227   25.5606 C.3       5 GLC5        0.0000 
     78 CA         -8.6290    9.2730   27.5280 C.3      15 GLL5        0.0000 
     79 CA         -7.0690    8.4610   28.8965 C.3       5 GLC5        0.0000 
     80 CA         -7.5470    8.9590   26.7040 C.3      15 GLL5        0.0000 
@<TRIPOS>BOND
@<TRIPOS>SUBSTRUCTURE
     1 ALC1        4 GROUP        1 X    ALC  0     ROOT ALC X 1
     2 SEC2        1 GROUP        1 X    SEC  0     **** SEC X 2
     3 LYC4       27 GROUP        1 X    LYC  0     **** LYC X 4
     4 ZIC7       30 GROUP        1 X    ZIC  0     **** ZIC X 5
     5 GLC5        7 GROUP        1 X    GLC  0     **** GLC X 6
     6 ALP1        6 GROUP        1 Y    ALP  0     ROOT ALP Y 8
     7 SEP2        3 GROUP        1 Y    SEP  0     **** SEP Y 9
     8 LYP4       29 GROUP        1 Y    LYP  0     **** LYP Y 11
     9 ZIP7       32 GROUP        1 Y    ZIP  0     **** ZIP Y 12
    10 GLP5        9 GROUP        1 Y    GLP  0     **** GLP Y 13
    11 ALL1        5 GROUP        1 Z    ALL  0     ROOT ALL Z 15
    12 SEL2        2 GROUP        1 Z    SEL  0     **** SEL Z 16
    13 LYL4       28 GROUP        1 Z    LYL  0     **** LYL Z 18
    14 ZIL7       31 GROUP        1 Z    ZIL  0     **** ZIL Z 19
    15 GLL5        8 GROUP        1 Z    GLL  0     **** GLL Z 20
@<TRIPOS>SET

