#    Name: 4ey2_0RM_1_ligand
#    Modification time : Mon Mar 24 18:44:18 2014

@<TRIPOS>MOLECULE
4ey2_0RM_1_ligand
   46    47     1     0     0
SMALL
NO_CHARGES


@<TRIPOS>ATOM
      1 O16        -5.1970    9.5750   24.8020 O.2       1 0RM301      0.0000 
      2 C15        -5.1490    9.2850   25.9830 C.2       1 0RM301      0.0000 
      3 N14        -4.1110    8.6830   26.5830 N.am      1 0RM301      0.0000 
      4 C9         -2.9800    8.2200   25.8290 C.3       1 0RM301      0.0000 
      5 C5         -1.8080    9.2720   25.9130 C.3       1 0RM301      0.0000 
      6 S1         -1.4260    9.6640   27.6340 S.3       1 0RM301      0.0000 
      7 C2          0.3670    9.5590   27.3620 C.3       1 0RM301      0.0000 
      8 C10         0.9340   10.8720   26.8130 C.3       1 0RM301      0.0000 
      9 C6          1.1150    9.2010   28.6630 C.3       1 0RM301      0.0000 
     10 C3          0.4130    8.4060   26.3080 C.3       1 0RM301      0.0000 
     11 C11         1.7100    8.0830   25.6740 C.2       1 0RM301      0.0000 
     12 O12         1.9600    8.3900   24.4920 O.co2     1 0RM301      0.0000 
     13 O13         2.5440    7.4600   26.3860 O.co2     1 0RM301      0.0000 
     14 N4         -0.5430    8.7630   25.2500 N.4       1 0RM301      0.0000 
     15 C7         -2.6110    6.7830   26.1630 C.2       1 0RM301      0.0000 
     16 O8         -1.7150    6.2390   25.4790 O.co2     1 0RM301      0.0000 
     17 OG         -3.2260    6.2360   27.1080 O.co2     1 0RM301      0.0000 
     18 C17        -6.3300    9.6170   26.8890 C.ar      1 0RM301      0.0000 
     19 C18        -6.1580   10.5030   27.9590 C.ar      1 0RM301      0.0000 
     20 O25        -4.9200   11.0800   28.1070 O.3       1 0RM301      0.0000 
     21 C26        -4.5840   11.8430   29.2690 C.3       1 0RM301      0.0000 
     22 C19        -7.2330   10.8400   28.8040 C.ar      1 0RM301      0.0000 
     23 C20        -8.4330   10.1790   28.5650 C.ar      1 0RM301      0.0000 
     24 C21        -8.6290    9.2730   27.5280 C.ar      1 0RM301      0.0000 
     25 C22        -7.5470    8.9590   26.7040 C.ar      1 0RM301      0.0000 
     26 O23        -7.6160    8.0910   25.6550 O.3       1 0RM301      0.0000 
     27 C24        -8.7980    7.2960   25.4660 C.3       1 0RM301      0.0000 
     28 H          -4.0860    8.5297   27.6100 H         1 0RM301      0.0000 
     29 H          -3.2825    8.2262   24.7335 H         1 0RM301      0.0000 
     30 H          -2.1130   10.2072   25.5194 H         1 0RM301      0.0000 
     31 H           0.0112    7.5066   26.8080 H         1 0RM301      0.0000 
     32 H          -7.1307   11.5168   29.5316 H         1 0RM301      0.0000 
     33 H          -9.2456   10.3771   29.2106 H         1 0RM301      0.0000 
     34 H          -9.5394    8.8476   27.3717 H         1 0RM301      0.0000 
     35 H           1.9217   10.8175   26.6663 H         1 0RM301      0.0000 
     36 H           0.5206   11.1172   25.9361 H         1 0RM301      0.0000 
     37 H           0.7721   11.6362   27.4373 H         1 0RM301      0.0000 
     38 H           2.1030    9.1436   28.5196 H         1 0RM301      0.0000 
     39 H           0.9619    9.8822   29.3789 H         1 0RM301      0.0000 
     40 H           0.8203    8.3187   29.0301 H         1 0RM301      0.0000 
     41 H          -3.6487   12.1942   29.2251 H         1 0RM301      0.0000 
     42 H          -5.1882   12.6317   29.3829 H         1 0RM301      0.0000 
     43 H          -4.6533   11.2976   30.1043 H         1 0RM301      0.0000 
     44 H          -8.7211    6.7004   24.6664 H         1 0RM301      0.0000 
     45 H          -8.9794    6.7072   26.2537 H         1 0RM301      0.0000 
     46 H          -9.6100    7.8640   25.3314 H         1 0RM301      0.0000 
@<TRIPOS>BOND
     1    2    1 2    
     2    3    2 am   
     3   18    2 1    
     4    4    3 1    
     5   28    3 1    
     6    5    4 1    
     7   15    4 1    
     8   29    4 1    
     9    6    5 1    
    10   14    5 1    
    11   30    5 1    
    12    7    6 1    
    13    8    7 1    
    14    9    7 1    
    15   10    7 1    
    16   35    8 1    
    17   36    8 1    
    18   37    8 1    
    19   38    9 1    
    20   39    9 1    
    21   40    9 1    
    22   11   10 1    
    23   14   10 1    
    24   31   10 1    
    25   12   11 ar   
    26   13   11 ar   
    27   16   15 ar   
    28   17   15 ar   
    29   19   18 ar   
    30   25   18 ar   
    31   20   19 1    
    32   22   19 ar   
    33   21   20 1    
    34   41   21 1    
    35   42   21 1    
    36   43   21 1    
    37   23   22 ar   
    38   32   22 1    
    39   24   23 ar   
    40   33   23 1    
    41   25   24 ar   
    42   34   24 1    
    43   26   25 1    
    44   27   26 1    
    45   44   27 1    
    46   45   27 1    
    47   46   27 1    
@<TRIPOS>SUBSTRUCTURE
     1 0RM301      1 GROUP   
@<TRIPOS>SET

