#    Name: 1nb0_ADP_1_INTS_M
#    Modification time : Mon Mar 24 17:54:20 2014

@<TRIPOS>MOLECULE
1nb0_ADP_1_INTS_M
   76     0    12     0     0
SMALL
NO_CHARGES


@<TRIPOS>ATOM
      1 Zn         25.4105   12.4465   16.6575 Zn        3 ZIC7        0.0000 
      2 Zn         25.7220   12.2360   17.6030 Zn       11 ZIL7        0.0000 
      3 Zn         25.0990   12.6570   15.7120 Zn        7 ZIP7        0.0000 
      4 N          26.4690   10.9795   17.5920 N.am      2 SEC2        0.0000 
      5 N          25.7220   12.2360   17.6030 N.am     10 SEL2        0.0000 
      6 N          27.2160    9.7230   17.5810 N.am      6 SEP2        0.0000 
      7 N          23.5855   11.0255   20.2980 N.am      2 SEC2        0.0000 
      8 N          24.5390   10.9320   19.4270 N.am     10 SEL2        0.0000 
      9 N          22.6320   11.1190   21.1690 N.am      6 SEP2        0.0000 
     10 N          27.0645   11.8845   20.2305 N.am      2 SEC2        0.0000 
     11 N          26.1060   12.8310   19.8900 N.am     10 SEL2        0.0000 
     12 N          28.0230   10.9380   20.5710 N.am      6 SEP2        0.0000 
     13 N          21.7530   16.0430   17.1840 N.am      2 SEC2        0.0000 
     14 N          22.3450   15.1180   18.1430 N.am     10 SEL2        0.0000 
     15 N          21.1610   16.9680   16.2250 N.am      6 SEP2        0.0000 
     16 Zn         24.2330   13.0910   16.0515 Zn        3 ZIC7        0.0000 
     17 Zn         23.3670   13.5250   16.3910 Zn       11 ZIL7        0.0000 
     18 N          23.6490   15.2300   16.2175 N.am      2 SEC2        0.0000 
     19 N          23.3670   13.5250   16.3910 N.am     10 SEL2        0.0000 
     20 N          23.9310   16.9350   16.0440 N.am      6 SEP2        0.0000 
     21 N          22.6550   12.9575   15.2275 N.am      2 SEC2        0.0000 
     22 N          21.9430   12.3900   14.0640 N.am      6 SEP2        0.0000 
     23 CA         22.2440   11.4170   15.5360 C.3       4 GLC5        0.0000 
     24 CA         21.6340   11.3860   17.6740 C.3      12 GLL5        0.0000 
     25 CA         22.8540   11.4480   13.3980 C.3       8 GLP5        0.0000 
     26 CA         22.5250    9.7605   16.4245 C.3       4 GLC5        0.0000 
     27 CA         23.4160    8.1350   15.1750 C.3       8 GLP5        0.0000 
     28 CA         19.4560   12.1540   19.1880 C.3       4 GLC5        0.0000 
     29 CA         20.6020   10.5980   18.4460 C.3      12 GLL5        0.0000 
     30 CA         18.3100   13.7100   19.9300 C.3       8 GLP5        0.0000 
     31 CA         21.5715    7.2675   18.4305 C.3       4 GLC5        0.0000 
     32 CA         20.6800    9.0830   18.1370 C.3      12 GLL5        0.0000 
     33 CA         22.4630    5.4520   18.7240 C.3       8 GLP5        0.0000 
     34 CA         21.5325    8.0520   16.6140 C.3       4 GLC5        0.0000 
     35 CA         22.3850    7.0210   15.0910 C.3       8 GLP5        0.0000 
     36 CA         19.7235    7.2320   17.3650 C.3       4 GLC5        0.0000 
     37 CA         18.7670    5.3810   16.5930 C.3       8 GLP5        0.0000 
     38 CA         18.5530    7.4320   17.2290 C.3       4 GLC5        0.0000 
     39 CA         19.2600    8.6280   18.4470 C.3      12 GLL5        0.0000 
     40 CA         17.8460    6.2360   16.0110 C.3       8 GLP5        0.0000 
     41 N          18.1935    7.4040   20.4630 N.am      2 SEC2        0.0000 
     42 N          19.1260    8.2980   19.8270 N.am     10 SEL2        0.0000 
     43 N          17.2610    6.5100   21.0990 N.am      6 SEP2        0.0000 
     44 CA         18.3545   11.7845   19.0735 C.3       4 GLC5        0.0000 
     45 CA         18.3990    9.8590   18.2170 C.3      12 GLL5        0.0000 
     46 CA         18.6785   11.4330   16.7550 C.3       4 GLC5        0.0000 
     47 CA         18.9580   13.0070   15.2930 C.3       8 GLP5        0.0000 
     48 CA         17.2225    9.1975   19.9265 C.3       4 GLC5        0.0000 
     49 CA         16.0460    8.5360   21.6360 C.3       8 GLP5        0.0000 
     50 CA         17.5130    8.1870   17.4495 C.3       4 GLC5        0.0000 
     51 CA         16.6270    6.5150   16.6820 C.3       8 GLP5        0.0000 
     52 CA         16.7490    8.2825   12.1070 C.3       4 GLC5        0.0000 
     53 CA         16.7940    9.7130   13.5720 C.3      12 GLL5        0.0000 
     54 CA         16.7040    6.8520   10.6420 C.3       8 GLP5        0.0000 
     55 O          15.7070    9.8560   11.3870 O.2       1 ALC1        0.0000 
     56 O          15.7830   10.0320   12.7760 O.2       9 ALL1        0.0000 
     57 O          15.6310    9.6800    9.9980 O.2       5 ALP1        0.0000 
     58 N          18.1470    9.0195   11.5495 N.am      2 SEC2        0.0000 
     59 N          18.0310    9.3770   13.0060 N.am     10 SEL2        0.0000 
     60 N          18.2630    8.6620   10.0930 N.am      6 SEP2        0.0000 
     61 CA         19.0490   11.1190   14.5495 C.3       4 GLC5        0.0000 
     62 CA         19.1400    9.2310   13.8060 C.3      12 GLL5        0.0000 
     63 CA         20.9970   10.3395   13.6020 C.3       4 GLC5        0.0000 
     64 CA         20.7625    8.1260   14.4485 C.3       4 GLC5        0.0000 
     65 CA         19.7480    9.5600   11.8630 C.3       4 GLC5        0.0000 
     66 CA         20.3560    9.8890    9.9200 C.3       8 GLP5        0.0000 
     67 CA         18.5070    7.5845   12.4200 C.3       4 GLC5        0.0000 
     68 CA         17.8740    5.9380   11.0340 C.3       8 GLP5        0.0000 
     69 CA         18.4210   11.3440   15.5080 C.3       4 GLC5        0.0000 
     70 CA         17.8840    9.6810   15.7230 C.3      12 GLL5        0.0000 
     71 CA         20.0380   11.9995   16.6765 C.3       4 GLC5        0.0000 
     72 CA         21.6215    9.9832   19.9473 C.3       4 GLC5        0.0000 
     73 CA         22.3440    9.9290   21.7960 C.3       8 GLP5        0.0000 
     74 CA         17.1885   11.4685   14.4500 C.3       4 GLC5        0.0000 
     75 CA         16.7420    9.8670   14.9560 C.3      12 GLL5        0.0000 
     76 CA         17.6090   13.1470   14.6360 C.3       8 GLP5        0.0000 
@<TRIPOS>BOND
@<TRIPOS>SUBSTRUCTURE
     1 ALC1       55 GROUP        1 X    ALC  0     ROOT ALC X 1
     2 SEC2        4 GROUP        1 X    SEC  0     **** SEC X 2
     3 ZIC7        1 GROUP        1 X    ZIC  0     **** ZIC X 5
     4 GLC5       23 GROUP        1 X    GLC  0     **** GLC X 6
     5 ALP1       57 GROUP        1 Y    ALP  0     ROOT ALP Y 8
     6 SEP2        6 GROUP        1 Y    SEP  0     **** SEP Y 9
     7 ZIP7        3 GROUP        1 Y    ZIP  0     **** ZIP Y 12
     8 GLP5       25 GROUP        1 Y    GLP  0     **** GLP Y 13
     9 ALL1       56 GROUP        1 Z    ALL  0     ROOT ALL Z 15
    10 SEL2        5 GROUP        1 Z    SEL  0     **** SEL Z 16
    11 ZIL7        2 GROUP        1 Z    ZIL  0     **** ZIL Z 19
    12 GLL5       24 GROUP        1 Z    GLL  0     **** GLL Z 20
@<TRIPOS>SET

