#    Name: 1nb0_ADP_1_ligand
#    Modification time : Mon Mar 24 17:54:20 2014

@<TRIPOS>MOLECULE
1nb0_ADP_1_ligand
   39    41     1     0     0
SMALL
NO_CHARGES


@<TRIPOS>ATOM
      1 PB         25.0800   12.2600   18.9320 P.3       1 ADP301      0.0000 
      2 O1B        25.7220   12.2360   17.6030 O.co2     1 ADP301      0.0000 
      3 O2B        24.5390   10.9320   19.4270 O.co2     1 ADP301      0.0000 
      4 O3B        26.1060   12.8310   19.8900 O.co2     1 ADP301      0.0000 
      5 PA         22.7920   13.7010   17.8040 P.3       1 ADP301      0.0000 
      6 O1A        22.3450   15.1180   18.1430 O.co2     1 ADP301      0.0000 
      7 O2A        23.3670   13.5250   16.3910 O.co2     1 ADP301      0.0000 
      8 O3A        23.8500   13.2900   18.9070 O.3       1 ADP301      0.0000 
      9 O5'        21.5590   12.7770   18.0130 O.3       1 ADP301      0.0000 
     10 C5'        21.6340   11.3860   17.6740 C.3       1 ADP301      0.0000 
     11 C4'        20.6020   10.5980   18.4460 C.3       1 ADP301      0.0000 
     12 O4'        19.3090   10.9370   18.0250 O.3       1 ADP301      0.0000 
     13 C3'        20.6800    9.0830   18.1370 C.3       1 ADP301      0.0000 
     14 O3'        21.5920    8.3780   18.9690 O.3       1 ADP301      0.0000 
     15 C2'        19.2600    8.6280   18.4470 C.3       1 ADP301      0.0000 
     16 O2'        19.1260    8.2980   19.8270 O.3       1 ADP301      0.0000 
     17 C1'        18.3990    9.8590   18.2170 C.3       1 ADP301      0.0000 
     18 N9         17.5320    9.8760   17.0290 N.pl3     1 ADP301      0.0000 
     19 C8         16.1880   10.1830   17.0560 C.2       1 ADP301      0.0000 
     20 N7         15.7100   10.1790   15.8090 N.2       1 ADP301      0.0000 
     21 C5         16.7420    9.8670   14.9560 C.ar      1 ADP301      0.0000 
     22 C6         16.7940    9.7130   13.5720 C.ar      1 ADP301      0.0000 
     23 N6         15.7830   10.0320   12.7760 N.pl3     1 ADP301      0.0000 
     24 N1         18.0310    9.3770   13.0060 N.ar      1 ADP301      0.0000 
     25 C2         19.1400    9.2310   13.8060 C.ar      1 ADP301      0.0000 
     26 N3         19.0860    9.3500   15.1700 N.ar      1 ADP301      0.0000 
     27 C4         17.8840    9.6810   15.7230 C.ar      1 ADP301      0.0000 
     28 H          22.6263   10.9715   17.9056 H         1 ADP301      0.0000 
     29 H          21.4553   11.2264   16.6003 H         1 ADP301      0.0000 
     30 H          20.7288   10.7228   19.4893 H         1 ADP301      0.0000 
     31 H          20.8398    8.9652   17.1013 H         1 ADP301      0.0000 
     32 H          18.9685    7.8764   17.7941 H         1 ADP301      0.0000 
     33 H          17.8186   10.0523   19.1086 H         1 ADP301      0.0000 
     34 H          15.6907   10.3686   17.8659 H         1 ADP301      0.0000 
     35 H          14.9485   10.3459   13.2289 H         1 ADP301      0.0000 
     36 H          15.9464    9.9298   11.7947 H         1 ADP301      0.0000 
     37 H          20.0648    9.0198   13.3511 H         1 ADP301      0.0000 
     38 H          21.0188    7.9022   19.6362 H         1 ADP301      0.0000 
     39 H          18.5133    8.9941   20.2011 H         1 ADP301      0.0000 
@<TRIPOS>BOND
     1    2    1 ar   
     2    3    1 ar   
     3    4    1 ar   
     4    8    1 1    
     5    6    5 ar   
     6    7    5 ar   
     7    8    5 1    
     8    9    5 1    
     9   10    9 1    
    10   11   10 1    
    11   28   10 1    
    12   29   10 1    
    13   12   11 1    
    14   13   11 1    
    15   30   11 1    
    16   17   12 1    
    17   14   13 1    
    18   15   13 1    
    19   31   13 1    
    20   38   14 1    
    21   16   15 1    
    22   17   15 1    
    23   32   15 1    
    24   39   16 1    
    25   18   17 1    
    26   33   17 1    
    27   19   18 1    
    28   27   18 1    
    29   20   19 2    
    30   34   19 1    
    31   21   20 1    
    32   22   21 ar   
    33   27   21 ar   
    34   23   22 1    
    35   24   22 ar   
    36   35   23 1    
    37   36   23 1    
    38   25   24 ar   
    39   26   25 ar   
    40   37   25 1    
    41   27   26 ar   
@<TRIPOS>SUBSTRUCTURE
     1 ADP301      1 GROUP   
@<TRIPOS>SET

