#    Name: 4dgm_AGI_1_INTS_M
#    Modification time : Mon Apr  7 22:45:25 2014

@<TRIPOS>MOLECULE
4dgm_AGI_1_INTS_M
   65     0     9     0     0
SMALL
NO_CHARGES


@<TRIPOS>ATOM
      1 CA         20.8745    7.9460   15.7955 C.3       3 GLC5        0.0000 
      2 CA         22.4350    8.7470   16.2250 C.3       9 GLL5        0.0000 
      3 CA         19.3140    7.1450   15.3660 C.3       6 GLP5        0.0000 
      4 N          25.6670    6.4260   13.5090 N.am      2 SEC2        0.0000 
      5 N          24.3540    7.1430   13.6440 N.am      8 SEL2        0.0000 
      6 N          26.9800    5.7090   13.3740 N.am      5 SEP2        0.0000 
      7 N          23.2640    6.0780   13.3410 N.am      2 SEC2        0.0000 
      8 N          22.1740    5.0130   13.0380 N.am      5 SEP2        0.0000 
      9 CA         25.2170    6.6100   18.3690 C.3       3 GLC5        0.0000 
     10 CA         23.5850    6.7990   17.1760 C.3       9 GLL5        0.0000 
     11 CA         26.8490    6.4210   19.5620 C.3       6 GLP5        0.0000 
     12 CA         21.8245   10.6410   19.5110 C.3       3 GLC5        0.0000 
     13 CA         21.1960    9.1870   18.8090 C.3       9 GLL5        0.0000 
     14 CA         22.4530   12.0950   20.2130 C.3       6 GLP5        0.0000 
     15 CA         20.2550    8.1660   17.0875 C.3       3 GLC5        0.0000 
     16 N          18.8320   11.4460   20.3215 N.am      2 SEC2        0.0000 
     17 N          19.8050   10.1800   20.3150 N.am      8 SEL2        0.0000 
     18 N          17.8590   12.7120   20.3280 N.am      5 SEP2        0.0000 
     19 CA         21.2960    5.9285   18.8695 C.3       3 GLC5        0.0000 
     20 CA         21.7160    7.1530   20.6940 C.3       9 GLL5        0.0000 
     21 CA         20.8760    4.7040   17.0450 C.3       6 GLP5        0.0000 
     22 O          22.7870    4.9765   24.6545 O.2       1 ALC1        0.0000 
     23 O          21.6790    5.0730   23.7160 O.2       7 ALL1        0.0000 
     24 O          23.8950    4.8800   25.5930 O.2       4 ALP1        0.0000 
     25 CA         21.3135    9.6495   14.8050 C.3       3 GLC5        0.0000 
     26 CA         19.9050   10.6880   14.0030 C.3       6 GLP5        0.0000 
     27 CA         22.8620   10.7850   15.4620 C.3       3 GLC5        0.0000 
     28 CA         23.0020   12.9590   15.3170 C.3       6 GLP5        0.0000 
     29 CA         21.8152    6.9677   14.9055 C.3       3 GLC5        0.0000 
     30 CA         23.0090    8.4750   14.9890 C.3       9 GLL5        0.0000 
     31 CA         20.2110    6.0190   14.8880 C.3       6 GLP5        0.0000 
     32 CA         25.8265    7.2207   15.1658 C.3       3 GLC5        0.0000 
     33 CA         23.8300    7.3580   14.8570 C.3       9 GLL5        0.0000 
     34 CA         27.6600    7.4970   14.9320 C.3       6 GLP5        0.0000 
     35 CA         23.6685    5.5702   14.0303 C.3       3 GLC5        0.0000 
     36 CA         24.1560    6.5310   15.9420 C.3       9 GLL5        0.0000 
     37 CA         23.3440    4.1960   12.6610 C.3       6 GLP5        0.0000 
     38 CA         22.3732    5.6845   16.8020 C.3       3 GLC5        0.0000 
     39 CA         23.9773    8.1045   19.3055 C.3       3 GLC5        0.0000 
     40 CA         22.7540    7.9170   17.2850 C.3       9 GLL5        0.0000 
     41 CA         25.5290    8.1800   20.6790 C.3       6 GLP5        0.0000 
     42 CA         21.6508    6.3665   17.4885 C.3       3 GLC5        0.0000 
     43 CA         22.0970    8.1410   18.5790 C.3       9 GLL5        0.0000 
     44 CA         23.4329    9.6883   18.3715 C.3       3 GLC5        0.0000 
     45 CA         24.5200   11.1400   19.0760 C.3       6 GLP5        0.0000 
     46 CA         19.7853    7.6500   18.6930 C.3       3 GLC5        0.0000 
     47 CA         17.9240    6.6360   18.6920 C.3       6 GLP5        0.0000 
     48 CA         22.7265    7.9837   22.4330 C.3       3 GLC5        0.0000 
     49 CA         20.8620    8.1760   21.0560 C.3       9 GLL5        0.0000 
     50 CA         24.1640    8.3030   23.9910 C.3       6 GLP5        0.0000 
     51 CA         19.9090    6.7508   20.5355 C.3       3 GLC5        0.0000 
     52 CA         18.5290    5.8370   20.1960 C.3       6 GLP5        0.0000 
     53 CA         23.6930    7.4040   20.9062 C.3       3 GLC5        0.0000 
     54 CA         22.9353    7.1988   23.0970 C.3       3 GLC5        0.0000 
     55 CA         21.9980    6.1030   21.5730 C.3       9 GLL5        0.0000 
     56 CA         20.1178    5.9657   21.1995 C.3       3 GLC5        0.0000 
     57 CA         21.4150    6.0860   22.8330 C.3       9 GLL5        0.0000 
     58 CA         22.2905    7.9600   23.3765 C.3       3 GLC5        0.0000 
     59 CA         20.5550    7.0980   23.1980 C.3       9 GLL5        0.0000 
     60 CA         18.5360    7.3385   22.9320 C.3       3 GLC5        0.0000 
     61 CA         16.6550    7.0600   23.1020 C.3       6 GLP5        0.0000 
     62 CA         19.4730    6.7270   21.4790 C.3       3 GLC5        0.0000 
     63 CA         20.2790    8.1360   22.3260 C.3       9 GLL5        0.0000 
     64 CA         21.7880    9.6236   21.5452 C.3       3 GLC5        0.0000 
     65 CA         22.7920   11.3470   21.4900 C.3       6 GLP5        0.0000 
@<TRIPOS>BOND
@<TRIPOS>SUBSTRUCTURE
     1 ALC1       22 GROUP        1 X    ALC  0     ROOT ALC X 1
     2 SEC2        4 GROUP        1 X    SEC  0     **** SEC X 2
     3 GLC5        1 GROUP        1 X    GLC  0     **** GLC X 6
     4 ALP1       24 GROUP        1 Y    ALP  0     ROOT ALP Y 8
     5 SEP2        6 GROUP        1 Y    SEP  0     **** SEP Y 9
     6 GLP5        3 GROUP        1 Y    GLP  0     **** GLP Y 13
     7 ALL1       23 GROUP        1 Z    ALL  0     ROOT ALL Z 15
     8 SEL2        5 GROUP        1 Z    SEL  0     **** SEL Z 16
     9 GLL5        2 GROUP        1 Z    GLL  0     **** GLL Z 20
@<TRIPOS>SET

