#    Name: 4dgm_AGI_1_ligand
#    Modification time : Mon Apr  7 22:45:25 2014

@<TRIPOS>MOLECULE
4dgm_AGI_1_ligand
   30    32     1     0     0
SMALL
NO_CHARGES


@<TRIPOS>ATOM
      1 CAG        22.4350    8.7470   16.2250 C.ar      1 AGI406      0.0000 
      2 CAE        23.0090    8.4750   14.9890 C.ar      1 AGI406      0.0000 
      3 CAM        23.8300    7.3580   14.8570 C.ar      1 AGI406      0.0000 
      4 OAB        24.3540    7.1430   13.6440 O.3       1 AGI406      0.0000 
      5 CAF        24.1560    6.5310   15.9420 C.ar      1 AGI406      0.0000 
      6 CAH        23.5850    6.7990   17.1760 C.ar      1 AGI406      0.0000 
      7 CAP        22.7540    7.9170   17.2850 C.ar      1 AGI406      0.0000 
      8 CAQ        22.0970    8.1410   18.5790 C.2       1 AGI406      0.0000 
      9 OAL        22.3050    7.1490   19.4640 O.3       1 AGI406      0.0000 
     10 CAJ        21.1960    9.1870   18.8090 C.2       1 AGI406      0.0000 
     11 CAR        20.5660    9.2340   20.0440 C.2       1 AGI406      0.0000 
     12 OAA        19.8050   10.1800   20.3150 O.2       1 AGI406      0.0000 
     13 CAT        20.8620    8.1760   21.0560 C.ar      1 AGI406      0.0000 
     14 CAS        21.7160    7.1530   20.6940 C.ar      1 AGI406      0.0000 
     15 CAK        21.9980    6.1030   21.5730 C.ar      1 AGI406      0.0000 
     16 CAN        21.4150    6.0860   22.8330 C.ar      1 AGI406      0.0000 
     17 OAC        21.6790    5.0730   23.7160 O.3       1 AGI406      0.0000 
     18 CAI        20.5550    7.0980   23.1980 C.ar      1 AGI406      0.0000 
     19 CAO        20.2790    8.1360   22.3260 C.ar      1 AGI406      0.0000 
     20 OAD        19.4350    9.0870   22.7710 O.3       1 AGI406      0.0000 
     21 H          21.8013    9.5314   16.3436 H         1 AGI406      0.0000 
     22 H          22.8322    9.0842   14.1888 H         1 AGI406      0.0000 
     23 H          24.7991    5.7525   15.8177 H         1 AGI406      0.0000 
     24 H          23.7616    6.2051   17.9786 H         1 AGI406      0.0000 
     25 H          21.0147    9.8809   18.0965 H         1 AGI406      0.0000 
     26 H          22.6326    5.3514   21.2846 H         1 AGI406      0.0000 
     27 H          20.1096    7.0843   24.1330 H         1 AGI406      0.0000 
     28 H          23.5987    6.7834   13.0959 H         1 AGI406      0.0000 
     29 H          22.4952    5.3687   24.2124 H         1 AGI406      0.0000 
     30 H          19.2907    9.6918   21.9878 H         1 AGI406      0.0000 
@<TRIPOS>BOND
     1    2    1 ar   
     2    7    1 ar   
     3   21    1 1    
     4    3    2 ar   
     5   22    2 1    
     6    4    3 1    
     7    5    3 ar   
     8   28    4 1    
     9    6    5 ar   
    10   23    5 1    
    11    7    6 ar   
    12   24    6 1    
    13    8    7 1    
    14    9    8 1    
    15   10    8 2    
    16   14    9 1    
    17   11   10 1    
    18   25   10 1    
    19   12   11 2    
    20   13   11 1    
    21   14   13 ar   
    22   19   13 ar   
    23   15   14 ar   
    24   16   15 ar   
    25   26   15 1    
    26   17   16 1    
    27   18   16 ar   
    28   29   17 1    
    29   19   18 ar   
    30   27   18 1    
    31   20   19 1    
    32   30   20 1    
@<TRIPOS>SUBSTRUCTURE
     1 AGI406      1 GROUP   
@<TRIPOS>SET

