#    Name: 2I66_2_CAVITY_N1_ALL.mol2
#    Modification time : Mon Mar 10 18:29:33 2014

@<TRIPOS>MOLECULE
2I66_2_CAVITY_N1_ALL.mol2
   94     0     7     0     0
SMALL
NO_CHARGES


@<TRIPOS>ATOM
      1 DU         20.0671    5.9463  -19.8266 H         7 CUB7        0.0000 
      2 DU         18.1336    5.9096  -20.6986 H         7 CUB7        0.0000 
      3 OG         17.4766    5.1158  -21.7886 O.2       1 SER1        0.0000 
      4 DU         18.7530    4.3586  -22.0066 H         7 CUB7        0.0000 
      5 DU         20.0294    3.6015  -22.2247 H         7 CUB7        0.0000 
      6 DU         21.3058    2.8444  -22.4427 H         7 CUB7        0.0000 
      7 OG         18.0959    3.5648  -23.0966 O.2       1 SER1        0.0000 
      8 DU         19.3723    2.8077  -23.3147 H         7 CUB7        0.0000 
      9 O          20.6487    2.0506  -23.5327 O.2       2 ALA2        0.0000 
     10 O          21.9251    1.2935  -23.7508 O.2       2 ALA2        0.0000 
     11 OG         17.4388    2.7710  -24.1866 O.2       1 SER1        0.0000 
     12 O          18.7152    2.0139  -24.4047 O.2       2 ALA2        0.0000 
     13 O          19.9916    1.2568  -24.6227 O.2       2 ALA2        0.0000 
     14 CA         18.0581    1.2201  -25.4947 C.3       6 GLY6        0.0000 
     15 CA         19.3345    0.4629  -25.7127 C.3       6 GLY6        0.0000 
     16 CA         21.1590    7.7632  -19.7438 C.3       6 GLY6        0.0000 
     17 CA         17.9491    8.4836  -20.3977 C.3       6 GLY6        0.0000 
     18 CA         19.2255    7.7265  -20.6157 C.3       6 GLY6        0.0000 
     19 DU         20.5019    6.9693  -20.8338 H         7 CUB7        0.0000 
     20 CA         17.2920    7.6897  -21.4877 C.3       6 GLY6        0.0000 
     21 CA         18.5684    6.9326  -21.7057 C.3       6 GLY6        0.0000 
     22 DU         19.8448    6.1755  -21.9238 H         7 CUB7        0.0000 
     23 CA         16.6349    6.8959  -22.5776 C.3       6 GLY6        0.0000 
     24 OG         17.9113    6.1388  -22.7957 O.2       1 SER1        0.0000 
     25 DU         19.1877    5.3817  -23.0138 H         7 CUB7        0.0000 
     26 DU         21.7406    3.8675  -23.4499 H         7 CUB7        0.0000 
     27 OG         18.5307    4.5879  -24.1038 O.2       1 SER1        0.0000 
     28 DU         19.8071    3.8307  -24.3218 H         7 CUB7        0.0000 
     29 CZ         21.0835    3.0736  -24.5399 C.ar      5 PHE5        0.0000 
     30 OG         19.1500    3.0369  -25.4118 O.2       1 SER1        0.0000 
     31 CZ         20.4264    2.2798  -25.6299 C.ar      5 PHE5        0.0000 
     32 O          18.4929    2.2431  -26.5018 O.2       2 ALA2        0.0000 
     33 O          19.7693    1.4860  -26.7199 O.2       2 ALA2        0.0000 
     34 O          18.9375    1.7847  -22.3075 O.2       2 ALA2        0.0000 
     35 O          20.2139    1.0275  -22.5256 O.2       2 ALA2        0.0000 
     36 O          17.0040    1.7480  -23.1795 O.2       2 ALA2        0.0000 
     37 CA         18.2804    0.9908  -23.3975 C.3       6 GLY6        0.0000 
     38 O          19.5569    0.2337  -23.6156 O.2       2 ALA2        0.0000 
     39 CA         18.8998   -0.5601  -24.7056 C.3       6 GLY6        0.0000 
     40 CA         21.5937    8.7862  -20.7509 C.3       6 GLY6        0.0000 
     41 DU         22.8701    8.0291  -20.9690 H         7 CUB7        0.0000 
     42 O          20.9367    7.9924  -21.8409 O.2       2 ALA2        0.0000 
     43 DU         22.2131    7.2353  -22.0590 H         7 CUB7        0.0000 
     44 CA         20.2796    7.1986  -22.9309 C.3       6 GLY6        0.0000 
     45 DU         21.5560    6.4414  -23.1490 H         7 CUB7        0.0000 
     46 DU         22.8324    5.6843  -23.3670 H         7 CUB7        0.0000 
     47 CA         18.3461    7.1619  -23.8029 C.3       6 GLY6        0.0000 
     48 DU         19.6225    6.4047  -24.0209 H         7 CUB7        0.0000 
     49 DU         20.8989    5.6476  -24.2390 H         7 CUB7        0.0000 
     50 CZ         22.1753    4.8905  -24.4570 C.ar      5 PHE5        0.0000 
     51 CZ         23.4517    4.1334  -24.6751 C.ar      5 PHE5        0.0000 
     52 OG         17.6890    6.3680  -24.8929 O.2       1 SER1        0.0000 
     53 OG         18.9654    5.6109  -25.1109 O.2       1 SER1        0.0000 
     54 CZ         20.2418    4.8538  -25.3290 C.ar      5 PHE5        0.0000 
     55 CZ         21.5182    4.0967  -25.5470 C.ar      5 PHE5        0.0000 
     56 OG         18.3083    4.8171  -26.2009 O.2       1 SER1        0.0000 
     57 CZ         19.5848    4.0600  -26.4190 C.ar      5 PHE5        0.0000 
     58 CA         17.6513    4.0233  -27.2909 C.3       6 GLY6        0.0000 
     59 CZ         18.9277    3.2661  -27.5090 C.ar      5 PHE5        0.0000 
     60 O          22.0285    9.8092  -21.7581 O.2       2 ALA2        0.0000 
     61 O          22.6478    8.2583  -23.0661 O.2       2 ALA2        0.0000 
     62 OD1        23.9243    7.5012  -23.2842 O.3       3 ASP3        0.0000 
     63 O          20.7144    8.2216  -23.9381 O.2       2 ALA2        0.0000 
     64 DU         21.9908    7.4645  -24.1561 H         7 CUB7        0.0000 
     65 OD1        23.2672    6.7074  -24.3742 O.3       3 ASP3        0.0000 
     66 CZ         20.0573    7.4278  -25.0281 C.ar      5 PHE5        0.0000 
     67 CZ         21.3337    6.6707  -25.2461 C.ar      5 PHE5        0.0000 
     68 CZ         22.6101    5.9135  -25.4642 C.ar      5 PHE5        0.0000 
     69 CZ         18.1238    7.3911  -25.9000 C.ar      5 PHE5        0.0000 
     70 DU         19.4002    6.6340  -26.1181 H         7 CUB7        0.0000 
     71 CZ         20.6766    5.8768  -26.3361 C.ar      5 PHE5        0.0000 
     72 CA         17.4667    6.5972  -26.9900 C.3       6 GLY6        0.0000 
     73 CA         18.7431    5.8401  -27.2081 C.3       6 GLY6        0.0000 
     74 CA         18.0860    5.0463  -28.2981 C.3       6 GLY6        0.0000 
     75 CZ         19.3624    4.2892  -28.5161 C.ar      5 PHE5        0.0000 
     76 NZ         17.4290    4.2525  -29.3881 N.2       4 LYS4        0.0000 
     77 O          17.8457   -0.0322  -22.3904 O.2       2 ALA2        0.0000 
     78 O          23.0826    9.2813  -24.0733 O.2       2 ALA2        0.0000 
     79 NZ         22.4255    8.4875  -25.1633 N.2       4 LYS4        0.0000 
     80 CZ         20.4920    8.4508  -26.0352 C.ar      5 PHE5        0.0000 
     81 NZ         21.7685    7.6937  -26.2533 N.2       4 LYS4        0.0000 
     82 CA         23.0449    6.9366  -26.4714 C.3       6 GLY6        0.0000 
     83 NZ         19.8350    7.6570  -27.1252 N.2       4 LYS4        0.0000 
     84 CZ         21.1114    6.8999  -27.3433 C.ar      5 PHE5        0.0000 
     85 CA         17.9015    7.6203  -27.9972 C.3       6 GLY6        0.0000 
     86 NZ         19.1779    6.8632  -28.2152 N.2       4 LYS4        0.0000 
     87 NZ         17.2444    6.8265  -29.0872 N.2       4 LYS4        0.0000 
     88 CZ         18.5208    6.0694  -29.3052 C.ar      5 PHE5        0.0000 
     89 CZ         19.7972    5.3122  -29.5233 C.ar      5 PHE5        0.0000 
     90 NZ         17.8637    5.2755  -30.3952 N.2       4 LYS4        0.0000 
     91 N          19.1401    4.5184  -30.6133 N.2       2 ALA2        0.0000 
     92 NZ         18.9556    7.0924  -30.3124 N.2       4 LYS4        0.0000 
     93 NZ         18.2985    6.2986  -31.4024 N.2       4 LYS4        0.0000 
     94 O          19.5749    5.5415  -31.6204 O.2       2 ALA2        0.0000 
@<TRIPOS>BOND
@<TRIPOS>SUBSTRUCTURE
     1 SER1        3 GROUP   
     2 ALA2        9 GROUP   
     3 ASP3       62 GROUP   
     4 LYS4       76 GROUP   
     5 PHE5       29 GROUP   
     6 GLY6       14 GROUP   
     7 CUB7        1 GROUP   
@<TRIPOS>SET

