#    Name: 2i66_G2R_2_INTS_M
#    Modification time : Tue Mar 25 17:30:42 2014

@<TRIPOS>MOLECULE
2i66_G2R_2_INTS_M
   57     0     9     0     0
SMALL
NO_CHARGES


@<TRIPOS>ATOM
      1 O          15.1605    6.6030  -18.5830 O.2       1 ALC1        0.0000 
      2 O          15.2850    5.6470  -19.5280 O.2       7 ALL1        0.0000 
      3 O          15.0360    7.5590  -17.6380 O.2       4 ALP1        0.0000 
      4 O          16.2815    6.7010  -18.2715 O.2       1 ALC1        0.0000 
      5 O          17.5270    5.8430  -18.9050 O.2       7 ALL1        0.0000 
      6 CA         20.4490   -1.3750  -24.7025 C.3       3 GLC5        0.0000 
      7 CA         19.1870   -0.0890  -23.7240 C.3       9 GLL5        0.0000 
      8 CA         21.7110   -2.6610  -25.6810 C.3       6 GLP5        0.0000 
      9 CA         17.6680   -0.5190  -24.8520 C.3       3 GLC5        0.0000 
     10 CA         16.1490   -0.9490  -25.9800 C.3       6 GLP5        0.0000 
     11 N          21.8375   -0.0250  -26.6680 N.am      2 SEC2        0.0000 
     12 N          21.7660    0.6890  -25.2470 N.am      8 SEL2        0.0000 
     13 N          21.9090   -0.7390  -28.0890 N.am      5 SEP2        0.0000 
     14 N          21.9005   -0.5255  -24.3215 N.am      2 SEC2        0.0000 
     15 N          22.0350   -1.7400  -23.3960 N.am      5 SEP2        0.0000 
     16 N          17.9280   -0.1510  -27.9920 N.am      2 SEC2        0.0000 
     17 N          17.5490    1.2440  -27.5150 N.am      8 SEL2        0.0000 
     18 N          18.3070   -1.5460  -28.4690 N.am      5 SEP2        0.0000 
     19 N          16.1965    1.5960  -27.9660 N.am      2 SEC2        0.0000 
     20 N          14.8440    1.9480  -28.4170 N.am      5 SEP2        0.0000 
     21 N          16.3995    2.0345  -25.4035 N.am      2 SEC2        0.0000 
     22 N          17.7030    2.1540  -25.1010 N.am      8 SEL2        0.0000 
     23 N          15.0960    1.9150  -25.7060 N.am      5 SEP2        0.0000 
     24 CA         20.6980    3.4530  -28.3090 C.3       3 GLC5        0.0000 
     25 CA         19.0590    3.8130  -28.3570 C.3       9 GLL5        0.0000 
     26 CA         22.3370    3.0930  -28.2610 C.3       6 GLP5        0.0000 
     27 CA         16.8400    2.4170  -29.9575 C.3       3 GLC5        0.0000 
     28 CA         18.0880    4.1680  -29.5020 C.3       9 GLL5        0.0000 
     29 CA         15.5920    0.6660  -30.4130 C.3       6 GLP5        0.0000 
     30 CA         15.6845    7.3845  -29.2915 C.3       3 GLC5        0.0000 
     31 CA         17.3550    6.3990  -29.4440 C.3       9 GLL5        0.0000 
     32 CA         14.0140    8.3700  -29.1390 C.3       6 GLP5        0.0000 
     33 CA         16.0220    5.9300  -28.2505 C.3       3 GLC5        0.0000 
     34 CA         14.6890    5.4610  -27.0570 C.3       6 GLP5        0.0000 
     35 O          16.6015    6.6590  -31.6215 O.2       1 ALC1        0.0000 
     36 O          17.9110    6.9310  -31.6840 O.2       7 ALL1        0.0000 
     37 O          15.2920    6.3870  -31.5590 O.2       4 ALP1        0.0000 
     38 N          18.8385    3.4805  -32.6840 N.am      2 SEC2        0.0000 
     39 N          18.0660    4.4710  -31.9180 N.am      8 SEL2        0.0000 
     40 N          19.6110    2.4900  -33.4500 N.am      5 SEP2        0.0000 
     41 O          16.7130    4.3390  -31.7880 O.2       1 ALC1        0.0000 
     42 O          18.0660    4.4710  -31.9180 O.2       7 ALL1        0.0000 
     43 O          15.3600    4.2070  -31.6580 O.2       4 ALP1        0.0000 
     44 O          16.6790    5.4290  -31.7385 O.2       1 ALC1        0.0000 
     45 CA         15.4705    0.3395  -19.3565 C.3       3 GLC5        0.0000 
     46 CA         16.9170    0.9030  -21.1420 C.3       9 GLL5        0.0000 
     47 CA         14.2250    0.5230  -17.5590 C.3       6 GLP5        0.0000 
     48 CA         16.9667    4.1562  -27.6178 C.3       3 GLC5        0.0000 
     49 CA         15.3600    4.3220  -26.3060 C.3       6 GLP5        0.0000 
     50 CA         17.7542    8.1852  -29.9585 C.3       3 GLC5        0.0000 
     51 CA         18.4580    6.3600  -30.4900 C.3       9 GLL5        0.0000 
     52 CA         17.6020    9.9910  -29.9500 C.3       6 GLP5        0.0000 
     53 CA         20.3210    5.1687  -30.3263 C.3       3 GLC5        0.0000 
     54 CA         22.2090    4.8950  -30.3550 C.3       6 GLP5        0.0000 
     55 CA         16.3079   -0.3277  -23.2700 C.3       3 GLC5        0.0000 
     56 CA         17.7670   -1.2520  -21.7560 C.3       9 GLL5        0.0000 
     57 CA         15.1800   -0.4080  -24.9410 C.3       6 GLP5        0.0000 
@<TRIPOS>BOND
@<TRIPOS>SUBSTRUCTURE
     1 ALC1        1 GROUP        1 X    ALC  0     ROOT ALC X 1
     2 SEC2       11 GROUP        1 X    SEC  0     **** SEC X 2
     3 GLC5        6 GROUP        1 X    GLC  0     **** GLC X 6
     4 ALP1        3 GROUP        1 Y    ALP  0     ROOT ALP Y 8
     5 SEP2       13 GROUP        1 Y    SEP  0     **** SEP Y 9
     6 GLP5        8 GROUP        1 Y    GLP  0     **** GLP Y 13
     7 ALL1        2 GROUP        1 Z    ALL  0     ROOT ALL Z 15
     8 SEL2       12 GROUP        1 Z    SEL  0     **** SEL Z 16
     9 GLL5        7 GROUP        1 Z    GLL  0     **** GLL Z 20
@<TRIPOS>SET

