#    Name: 2i66_G2R_2_ligand
#    Modification time : Tue Mar 25 17:30:42 2014

@<TRIPOS>MOLECULE
2i66_G2R_2_ligand
   57    60     1     0     0
SMALL
NO_CHARGES


@<TRIPOS>ATOM
      1 O6         13.1140    5.3550  -20.1730 O.2       1 G2R302      0.0000 
      2 C6         14.2540    4.8940  -20.0930 C.2       1 G2R302      0.0000 
      3 N1         15.2850    5.6470  -19.5280 N.am      1 G2R302      0.0000 
      4 C2         16.5680    5.1060  -19.4510 C.2       1 G2R302      0.0000 
      5 N2         17.5270    5.8430  -18.9050 N.pl3     1 G2R302      0.0000 
      6 N3         16.8080    3.8600  -19.9210 N.2       1 G2R302      0.0000 
      7 C4         15.8240    3.1110  -20.4780 C.2       1 G2R302      0.0000 
      8 C5         14.5330    3.6210  -20.5710 C.2       1 G2R302      0.0000 
      9 N7         13.7670    2.7040  -21.1500 N.2       1 G2R302      0.0000 
     10 C8         14.5310    1.6530  -21.4120 C.2       1 G2R302      0.0000 
     11 N9         15.7800    1.8840  -21.0130 N.pl3     1 G2R302      0.0000 
     12 C1'        16.9170    0.9030  -21.1420 C.3       1 G2R302      0.0000 
     13 O4'        17.5820    1.0270  -22.3940 O.3       1 G2R302      0.0000 
     14 C2'        16.5150   -0.5910  -21.1660 C.3       1 G2R302      0.0000 
     15 O2'        16.2980   -1.0760  -19.8350 O.3       1 G2R302      0.0000 
     16 C3'        17.7670   -1.2520  -21.7560 C.3       1 G2R302      0.0000 
     17 O3'        17.4200   -2.1740  -22.7860 O.3       1 G2R302      0.0000 
     18 C4'        18.5440   -0.0500  -22.3320 C.3       1 G2R302      0.0000 
     19 C5'        19.1870   -0.0890  -23.7240 C.3       1 G2R302      0.0000 
     20 O5'        19.6670    1.2420  -23.9530 O.3       1 G2R302      0.0000 
     21 PA         20.6860    1.6870  -25.1020 P.3       1 G2R302      0.0000 
     22 O1A        21.7660    0.6890  -25.2470 O.co2     1 G2R302      0.0000 
     23 O2A        21.0320    3.1090  -24.8240 O.co2     1 G2R302      0.0000 
     24 O3A        19.7930    1.5630  -26.4370 O.3       1 G2R302      0.0000 
     25 PB         18.2530    2.0580  -26.4850 P.3       1 G2R302      0.0000 
     26 O2B        17.5490    1.2440  -27.5150 O.co2     1 G2R302      0.0000 
     27 O1B        17.7030    2.1540  -25.1010 O.co2     1 G2R302      0.0000 
     28 O5X        18.4050    3.5670  -27.0750 O.3       1 G2R302      0.0000 
     29 C5X        19.0590    3.8130  -28.3570 C.3       1 G2R302      0.0000 
     30 C4X        18.0880    4.1680  -29.5020 C.3       1 G2R302      0.0000 
     31 O4X        17.0570    5.0430  -29.0460 O.3       1 G2R302      0.0000 
     32 C1X        17.3550    6.3990  -29.4440 C.3       1 G2R302      0.0000 
     33 C2X        18.4580    6.3600  -30.4900 C.3       1 G2R302      0.0000 
     34 O2X        17.9110    6.9310  -31.6840 O.3       1 G2R302      0.0000 
     35 C3X        18.7280    4.8820  -30.7080 C.3       1 G2R302      0.0000 
     36 O3X        18.0660    4.4710  -31.9180 O.3       1 G2R302      0.0000 
     37 H          15.0999    6.5887  -19.1733 H         1 G2R302      0.0000 
     38 H          18.4340    5.4240  -18.8630 H         1 G2R302      0.0000 
     39 H          17.2560    6.7508  -18.5849 H         1 G2R302      0.0000 
     40 H          14.2229    0.8212  -21.8393 H         1 G2R302      0.0000 
     41 H          17.6266    1.0238  -20.3410 H         1 G2R302      0.0000 
     42 H          15.7212   -0.7174  -21.8215 H         1 G2R302      0.0000 
     43 H          18.3311   -1.6613  -20.9687 H         1 G2R302      0.0000 
     44 H          19.3071    0.2494  -21.6025 H         1 G2R302      0.0000 
     45 H          18.4303   -0.3763  -24.4338 H         1 G2R302      0.0000 
     46 H          19.9850   -0.8113  -23.7034 H         1 G2R302      0.0000 
     47 H          19.6406    2.9245  -28.6776 H         1 G2R302      0.0000 
     48 H          19.7901    4.6429  -28.2716 H         1 G2R302      0.0000 
     49 H          17.6407    3.2445  -29.8759 H         1 G2R302      0.0000 
     50 H          17.7036    6.9936  -28.6007 H         1 G2R302      0.0000 
     51 H          16.4845    6.8854  -29.8822 H         1 G2R302      0.0000 
     52 H          19.2992    6.8377  -30.1316 H         1 G2R302      0.0000 
     53 H          19.7561    4.7064  -30.7085 H         1 G2R302      0.0000 
     54 H          17.1789   -1.4546  -19.5508 H         1 G2R302      0.0000 
     55 H          17.1226   -2.9990  -22.3053 H         1 G2R302      0.0000 
     56 H          16.9395    6.6948  -31.6622 H         1 G2R302      0.0000 
     57 H          17.0947    4.4365  -31.6826 H         1 G2R302      0.0000 
@<TRIPOS>BOND
     1    2    1 2    
     2    3    2 am   
     3    8    2 1    
     4    4    3 1    
     5   37    3 1    
     6    5    4 1    
     7    6    4 2    
     8   38    5 1    
     9   39    5 1    
    10    7    6 1    
    11    8    7 2    
    12   11    7 1    
    13    9    8 1    
    14   10    9 2    
    15   11   10 1    
    16   40   10 1    
    17   12   11 1    
    18   13   12 1    
    19   14   12 1    
    20   41   12 1    
    21   18   13 1    
    22   15   14 1    
    23   16   14 1    
    24   42   14 1    
    25   54   15 1    
    26   17   16 1    
    27   18   16 1    
    28   43   16 1    
    29   55   17 1    
    30   19   18 1    
    31   44   18 1    
    32   20   19 1    
    33   45   19 1    
    34   46   19 1    
    35   21   20 1    
    36   22   21 ar   
    37   23   21 ar   
    38   24   21 1    
    39   25   24 1    
    40   26   25 ar   
    41   27   25 ar   
    42   28   25 1    
    43   29   28 1    
    44   30   29 1    
    45   47   29 1    
    46   48   29 1    
    47   31   30 1    
    48   35   30 1    
    49   49   30 1    
    50   32   31 1    
    51   33   32 1    
    52   50   32 1    
    53   51   32 1    
    54   34   33 1    
    55   35   33 1    
    56   52   33 1    
    57   56   34 1    
    58   36   35 1    
    59   53   35 1    
    60   57   36 1    
@<TRIPOS>SUBSTRUCTURE
     1 G2R302      1 GROUP   
@<TRIPOS>SET

