#    Name: 2gm1_2AZ_4_INTS_M
#    Modification time : Tue Mar 25 14:41:33 2014

@<TRIPOS>MOLECULE
2gm1_2AZ_4_INTS_M
   79     0     9     0     0
SMALL
NO_CHARGES


@<TRIPOS>ATOM
      1 CA          4.0520   36.6140   67.1210 C.3       3 GLC5        0.0000 
      2 CA          4.6670   35.1600   65.8210 C.3       9 GLL5        0.0000 
      3 CA          3.4370   38.0680   68.4210 C.3       6 GLP5        0.0000 
      4 CA          5.6965   39.6700   67.7755 C.3       3 GLC5        0.0000 
      5 CA          6.0660   40.3000   65.7890 C.3       9 GLL5        0.0000 
      6 CA          5.3270   39.0400   69.7620 C.3       6 GLP5        0.0000 
      7 CA          5.6710   33.9675   69.6255 C.3       3 GLC5        0.0000 
      8 CA          7.7190   34.6520   69.1320 C.3       9 GLL5        0.0000 
      9 CA          3.6230   33.2830   70.1190 C.3       6 GLP5        0.0000 
     10 CA          8.3630   38.7580   69.1610 C.3       3 GLC5        0.0000 
     11 CA          7.6710   36.9150   68.2720 C.3       9 GLL5        0.0000 
     12 CA          9.0550   40.6010   70.0500 C.3       6 GLP5        0.0000 
     13 CA          3.6740   39.3620   66.6825 C.3       3 GLC5        0.0000 
     14 CA          3.9110   40.6560   64.9440 C.3       9 GLL5        0.0000 
     15 CA          2.5375   40.0975   63.5525 C.3       3 GLC5        0.0000 
     16 CA          1.1640   39.5390   62.1610 C.3       6 GLP5        0.0000 
     17 CA          8.0985   42.3850   65.6950 C.3       3 GLC5        0.0000 
     18 CA          6.5770   42.6550   67.0160 C.3       9 GLL5        0.0000 
     19 CA          9.6200   42.1150   64.3740 C.3       6 GLP5        0.0000 
     20 CA          7.9795   43.0100   67.7510 C.3       3 GLC5        0.0000 
     21 CA          9.3820   43.3650   68.4860 C.3       6 GLP5        0.0000 
     22 CA          5.9840   43.2930   68.8385 C.3       3 GLC5        0.0000 
     23 CA          5.3910   43.9310   70.6610 C.3       6 GLP5        0.0000 
     24 CA          9.3400   39.1075   64.9855 C.3       3 GLC5        0.0000 
     25 CA          8.4180   37.4360   65.9280 C.3       9 GLL5        0.0000 
     26 CA         10.2620   40.7790   64.0430 C.3       6 GLP5        0.0000 
     27 CA          9.9180   37.8575   67.1915 C.3       3 GLC5        0.0000 
     28 CA         11.4180   38.2790   68.4550 C.3       6 GLP5        0.0000 
     29 CA          8.9495   32.3560   67.7445 C.3       3 GLC5        0.0000 
     30 CA          8.2100   34.2100   67.8840 C.3       9 GLL5        0.0000 
     31 CA          9.6890   30.5020   67.6050 C.3       6 GLP5        0.0000 
     32 CA          8.9535   39.8125   62.5610 C.3       3 GLC5        0.0000 
     33 CA          7.6450   38.8460   61.0790 C.3       9 GLL5        0.0000 
     34 OD1         7.8285   40.8445   61.7270 O.co2     2 ASC3        0.0000 
     35 OD1         7.7980   40.2120   60.5980 O.co2     8 ASL3        0.0000 
     36 OD1         7.8590   41.4770   62.8560 O.co2     5 ASP3        0.0000 
     37 O           7.8285   40.8445   61.7270 O.2       1 ALC1        0.0000 
     38 O           7.7980   40.2120   60.5980 O.2       7 ALL1        0.0000 
     39 O           7.8590   41.4770   62.8560 O.2       4 ALP1        0.0000 
     40 CA         12.7840   34.8960   64.7890 C.3       3 GLC5        0.0000 
     41 CA         10.7650   34.7370   63.9940 C.3       9 GLL5        0.0000 
     42 CA         14.8030   35.0550   65.5840 C.3       6 GLP5        0.0000 
     43 CA         10.6360   31.5040   66.2305 C.3       3 GLC5        0.0000 
     44 CA         11.5830   32.5060   64.8560 C.3       9 GLL5        0.0000 
     45 CA         13.0155   31.2410   64.9625 C.3       3 GLC5        0.0000 
     46 CA         14.4480   29.9760   65.0690 C.3       6 GLP5        0.0000 
     47 CA         13.0570   33.3990   65.8665 C.3       3 GLC5        0.0000 
     48 CA         14.5310   34.2920   66.8770 C.3       6 GLP5        0.0000 
     49 CA          5.1190   32.9808   65.8640 C.3       3 GLC5        0.0000 
     50 CA          4.7990   34.1970   64.6830 C.3       9 GLL5        0.0000 
     51 CA          5.5050   31.2830   66.4760 C.3       6 GLP5        0.0000 
     52 CA          7.7470   41.5165   65.1562 C.3       3 GLC5        0.0000 
     53 CA          4.1550   41.0230   67.5475 C.3       3 GLC5        0.0000 
     54 CA          5.6820   41.5360   66.0880 C.3       9 GLL5        0.0000 
     55 CA          3.2890   40.3900   69.2750 C.3       6 GLP5        0.0000 
     56 CA          3.1492   42.7695   65.9965 C.3       3 GLC5        0.0000 
     57 CA          4.3600   41.7760   65.5520 C.3       9 GLL5        0.0000 
     58 CA          2.1630   44.3230   66.7450 C.3       6 GLP5        0.0000 
     59 CA          6.6715   35.6633   70.9648 C.3       3 GLC5        0.0000 
     60 CA          5.7560   35.9880   72.6960 C.3       6 GLP5        0.0000 
     61 CA          6.4450   37.7550   69.2827 C.3       3 GLC5        0.0000 
     62 CA          7.4550   36.0250   69.3350 C.3       9 GLL5        0.0000 
     63 CA          2.8543   35.2089   65.1551 C.3       3 GLC5        0.0000 
     64 CA          0.9210   35.6130   65.4000 C.3       6 GLP5        0.0000 
     65 CA          4.0617   38.0238   61.6557 C.3       3 GLC5        0.0000 
     66 CA          5.7140   37.1940   61.7860 C.3       9 GLL5        0.0000 
     67 CA          2.1180   38.3440   62.0490 C.3       6 GLP5        0.0000 
     68 CA         10.7950   35.2075   61.8633 C.3       3 GLC5        0.0000 
     69 CA          8.6770   34.9440   62.7740 C.3       9 GLL5        0.0000 
     70 CA         12.3260   35.1830   60.7010 C.3       6 GLP5        0.0000 
     71 CA         11.4902   34.6115   62.3935 C.3       3 GLC5        0.0000 
     72 CA         11.4148   32.1843   62.6600 C.3       3 GLC5        0.0000 
     73 CA         10.5440   33.3430   64.1780 C.3       9 GLL5        0.0000 
     74 CA         11.7660   31.4440   60.8030 C.3       6 GLP5        0.0000 
     75 CA          9.6430   31.9733   61.9647 C.3       3 GLC5        0.0000 
     76 CA          9.3540   32.7640   63.6840 C.3       9 GLL5        0.0000 
     77 CA         10.3930   30.7880   60.6040 C.3       6 GLP5        0.0000 
     78 CA          9.5927   35.7751   68.6348 C.3       3 GLC5        0.0000 
     79 CA         11.2450   35.9850   69.1880 C.3       6 GLP5        0.0000 
@<TRIPOS>BOND
@<TRIPOS>SUBSTRUCTURE
     1 ALC1       37 GROUP        1 X    ALC  0     ROOT ALC X 1
     2 ASC3       34 GROUP        1 X    ASC  0     **** ASC X 3
     3 GLC5        1 GROUP        1 X    GLC  0     **** GLC X 6
     4 ALP1       39 GROUP        1 Y    ALP  0     ROOT ALP Y 8
     5 ASP3       36 GROUP        1 Y    ASP  0     **** ASP Y 10
     6 GLP5        3 GROUP        1 Y    GLP  0     **** GLP Y 13
     7 ALL1       38 GROUP        1 Z    ALL  0     ROOT ALL Z 15
     8 ASL3       35 GROUP        1 Z    ASL  0     **** ASL Z 17
     9 GLL5        2 GROUP        1 Z    GLL  0     **** GLL Z 20
@<TRIPOS>SET

