#    Name: 2gm1_2AZ_4_ligand
#    Modification time : Tue Mar 25 14:41:33 2014

@<TRIPOS>MOLECULE
2gm1_2AZ_4_ligand
   67    71     1     0     0
SMALL
NO_CHARGES


@<TRIPOS>ATOM
      1 C1          4.6670   35.1600   65.8210 C.3       1 2AZ371      0.0000 
      2 C9          6.2470   36.3400   64.1710 C.3       1 2AZ371      0.0000 
      3 C11         6.1990   37.7480   64.8540 C.2       1 2AZ371      0.0000 
      4 C14         6.0660   40.3000   65.7890 C.2       1 2AZ371      0.0000 
      5 C15         5.6820   41.5360   66.0880 C.2       1 2AZ371      0.0000 
      6 C16         4.3600   41.7760   65.5520 C.2       1 2AZ371      0.0000 
      7 C21         7.2560   39.5070   66.1010 C.2       1 2AZ371      0.0000 
      8 C27         8.4330   35.1200   66.8420 C.ar      1 2AZ371      0.0000 
      9 C31         7.7190   34.6520   69.1320 C.ar      1 2AZ371      0.0000 
     10 C33         7.4550   36.0250   69.3350 C.ar      1 2AZ371      0.0000 
     11 C35         7.6710   36.9150   68.2720 C.ar      1 2AZ371      0.0000 
     12 C4          4.8850   35.6650   64.4540 C.3       1 2AZ371      0.0000 
     13 C6          4.7990   34.1970   64.6830 C.3       1 2AZ371      0.0000 
     14 N12         5.0830   38.5230   64.6760 N.2       1 2AZ371      0.0000 
     15 N13         5.0040   39.7000   65.0820 N.pl3     1 2AZ371      0.0000 
     16 C18         3.9110   40.6560   64.9440 C.2       1 2AZ371      0.0000 
     17 CL2         6.5770   42.6550   67.0160 Cl        1 2AZ371      0.0000 
     18 N22         7.2460   38.2240   65.6280 N.am      1 2AZ371      0.0000 
     19 C23         8.4180   37.4360   65.9280 C.3       1 2AZ371      0.0000 
     20 C26         8.1550   36.4740   67.0320 C.ar      1 2AZ371      0.0000 
     21 C29         8.2100   34.2100   67.8840 C.ar      1 2AZ371      0.0000 
     22 O37         8.1860   39.9770   66.7440 O.2       1 2AZ371      0.0000 
     23 N38         6.6340   36.4250   62.6890 N.am      1 2AZ371      0.0000 
     24 C39         5.7140   37.1940   61.7860 C.3       1 2AZ371      0.0000 
     25 C42         6.2970   38.2130   60.7390 C.3       1 2AZ371      0.0000 
     26 C45         7.6450   38.8460   61.0790 C.3       1 2AZ371      0.0000 
     27 N48         7.7980   40.2120   60.5980 N.4       1 2AZ371      0.0000 
     28 C51         7.7090   35.7810   62.0370 C.2       1 2AZ371      0.0000 
     29 O52         7.8600   35.9130   60.8240 O.2       1 2AZ371      0.0000 
     30 C53         8.6770   34.9440   62.7740 C.ar      1 2AZ371      0.0000 
     31 C54         9.8510   35.5200   63.2770 C.ar      1 2AZ371      0.0000 
     32 C56        10.7650   34.7370   63.9940 C.ar      1 2AZ371      0.0000 
     33 C58        10.5440   33.3430   64.1780 C.ar      1 2AZ371      0.0000 
     34 C59         9.3540   32.7640   63.6840 C.ar      1 2AZ371      0.0000 
     35 C61         8.4320   33.5530   62.9670 C.ar      1 2AZ371      0.0000 
     36 C63        11.5830   32.5060   64.8560 C.3       1 2AZ371      0.0000 
     37 H           3.7417   35.2389   66.0405 H         1 2AZ371      0.0000 
     38 H           5.4940   35.1763   66.2968 H         1 2AZ371      0.0000 
     39 H           7.0115   35.7685   64.7120 H         1 2AZ371      0.0000 
     40 H           3.9176   42.6167   65.6422 H         1 2AZ371      0.0000 
     41 H           8.7992   34.7893   65.9442 H         1 2AZ371      0.0000 
     42 H           7.5556   33.9834   69.8836 H         1 2AZ371      0.0000 
     43 H           7.1171   36.3555   70.2306 H         1 2AZ371      0.0000 
     44 H           7.4681   37.9213   68.4067 H         1 2AZ371      0.0000 
     45 H           4.0345   35.9706   64.1101 H         1 2AZ371      0.0000 
     46 H           3.9282   33.9027   64.4391 H         1 2AZ371      0.0000 
     47 H           5.6804   33.8400   64.6954 H         1 2AZ371      0.0000 
     48 H           3.1139   40.4721   64.5222 H         1 2AZ371      0.0000 
     49 H           9.2609   38.0888   66.2178 H         1 2AZ371      0.0000 
     50 H           8.7461   36.8731   65.0358 H         1 2AZ371      0.0000 
     51 H           8.4041   33.2111   67.7434 H         1 2AZ371      0.0000 
     52 H           4.9667   37.7660   62.4119 H         1 2AZ371      0.0000 
     53 H           5.0667   36.4707   61.2069 H         1 2AZ371      0.0000 
     54 H           5.5418   39.0129   60.5941 H         1 2AZ371      0.0000 
     55 H           6.3740   37.6857   59.7658 H         1 2AZ371      0.0000 
     56 H           8.4408   38.1935   60.6602 H         1 2AZ371      0.0000 
     57 H           7.7699   38.8045   62.1822 H         1 2AZ371      0.0000 
     58 H          10.0412   36.5150   63.1202 H         1 2AZ371      0.0000 
     59 H          11.6078   35.1648   64.3956 H         1 2AZ371      0.0000 
     60 H           9.1630   31.7741   63.8470 H         1 2AZ371      0.0000 
     61 H           7.5847   33.1340   62.5822 H         1 2AZ371      0.0000 
     62 H           8.7522   40.4284   60.3915 H         1 2AZ371      0.0000 
     63 H           7.2736   40.3722   59.7618 H         1 2AZ371      0.0000 
     64 H           7.4853   40.8806   61.2727 H         1 2AZ371      0.0000 
     65 H          12.4535   32.5241   64.3642 H         1 2AZ371      0.0000 
     66 H          11.7656   32.8226   65.7868 H         1 2AZ371      0.0000 
     67 H          11.3034   31.5481   64.9218 H         1 2AZ371      0.0000 
@<TRIPOS>BOND
     1   12    1 1    
     2   13    1 1    
     3   37    1 1    
     4   38    1 1    
     5    3    2 1    
     6   12    2 1    
     7   23    2 1    
     8   39    2 1    
     9   14    3 2    
    10   18    3 1    
    11    5    4 2    
    12    7    4 1    
    13   15    4 1    
    14    6    5 1    
    15   17    5 1    
    16   16    6 2    
    17   40    6 1    
    18   18    7 am   
    19   22    7 2    
    20   20    8 ar   
    21   21    8 ar   
    22   41    8 1    
    23   10    9 ar   
    24   21    9 ar   
    25   42    9 1    
    26   11   10 ar   
    27   43   10 1    
    28   20   11 ar   
    29   44   11 1    
    30   13   12 1    
    31   45   12 1    
    32   46   13 1    
    33   47   13 1    
    34   15   14 1    
    35   16   15 1    
    36   48   16 1    
    37   19   18 1    
    38   20   19 1    
    39   49   19 1    
    40   50   19 1    
    41   51   21 1    
    42   24   23 1    
    43   28   23 am   
    44   25   24 1    
    45   52   24 1    
    46   53   24 1    
    47   26   25 1    
    48   54   25 1    
    49   55   25 1    
    50   27   26 1    
    51   56   26 1    
    52   57   26 1    
    53   62   27 1    
    54   63   27 1    
    55   64   27 1    
    56   29   28 2    
    57   30   28 1    
    58   31   30 ar   
    59   35   30 ar   
    60   32   31 ar   
    61   58   31 1    
    62   33   32 ar   
    63   59   32 1    
    64   34   33 ar   
    65   36   33 1    
    66   35   34 ar   
    67   60   34 1    
    68   61   35 1    
    69   65   36 1    
    70   66   36 1    
    71   67   36 1    
@<TRIPOS>SUBSTRUCTURE
     1 2AZ371      1 GROUP   
@<TRIPOS>SET

