#    Name: 2pbw_DOQ_1_INTS_M
#    Modification time : Mon Mar 24 18:40:40 2014

@<TRIPOS>MOLECULE
2pbw_DOQ_1_INTS_M
   67     0    12     0     0
SMALL
NO_CHARGES


@<TRIPOS>ATOM
      1 N          -5.5275  -29.8810   81.4270 N.am      1 SEC2        0.0000 
      2 N          -6.1740  -31.0290   81.8850 N.am      9 SEL2        0.0000 
      3 N          -4.8810  -28.7330   80.9690 N.am      5 SEP2        0.0000 
      4 CA         -5.8515  -36.0665   82.0085 C.3       4 GLC5        0.0000 
      5 CA         -6.9150  -34.2480   82.0140 C.3      12 GLL5        0.0000 
      6 CA         -4.7880  -37.8850   82.0030 C.3       8 GLP5        0.0000 
      7 CA         -8.7465  -34.6655   82.0590 C.3       4 GLC5        0.0000 
      8 CA        -10.5780  -35.0830   82.1040 C.3       8 GLP5        0.0000 
      9 CA         -0.6055  -33.3920   78.7775 C.3       4 GLC5        0.0000 
     10 CA         -0.5810  -35.5670   78.7530 C.3      12 GLL5        0.0000 
     11 CA         -0.6300  -31.2170   78.8020 C.3       8 GLP5        0.0000 
     12 CA         -1.5985  -32.7455   78.1850 C.3       4 GLC5        0.0000 
     13 CA         -2.5670  -34.2740   77.5680 C.3      12 GLL5        0.0000 
     14 CA         -1.3200  -32.3750   77.0390 C.3       4 GLC5        0.0000 
     15 CA         -1.5600  -34.1610   76.4250 C.3      12 GLL5        0.0000 
     16 CA         -1.0800  -30.5890   77.6530 C.3       8 GLP5        0.0000 
     17 OD1        -1.8240  -35.1500   74.4685 O.co2     2 ASC3        0.0000 
     18 OD1        -2.4070  -34.0110   75.2300 O.co2    10 ASL3        0.0000 
     19 OD1        -1.2410  -36.2890   73.7070 O.co2     6 ASP3        0.0000 
     20 OD1        -2.7470  -35.2335   73.8705 O.co2     2 ASC3        0.0000 
     21 OD1        -3.0870  -36.4560   72.5110 O.co2     6 ASP3        0.0000 
     22 CA         -4.2440  -33.8050   73.5285 C.3       4 GLC5        0.0000 
     23 CA         -3.7380  -34.5460   75.5630 C.3      12 GLL5        0.0000 
     24 CA         -4.7500  -33.0640   71.4940 C.3       8 GLP5        0.0000 
     25 CA         -5.5610  -34.8685   74.6290 C.3       4 GLC5        0.0000 
     26 CA         -7.3840  -35.1910   73.6950 C.3       8 GLP5        0.0000 
     27 NZ         -5.7775  -31.5685   75.7035 N.4       3 LYC4        0.0000 
     28 NZ         -4.4040  -32.3070   75.1300 N.4      11 LYL4        0.0000 
     29 NZ         -7.2540  -30.3760   75.0370 N.4       7 LYP4        0.0000 
     30 N          -3.9400  -31.6965   73.6505 N.am      1 SEC2        0.0000 
     31 N          -4.4040  -32.3070   75.1300 N.am      9 SEL2        0.0000 
     32 N          -3.4760  -31.0860   72.1710 N.am      5 SEP2        0.0000 
     33 N          -5.3885  -31.5335   74.6235 N.am      1 SEC2        0.0000 
     34 N          -6.3730  -30.7600   74.1170 N.am      5 SEP2        0.0000 
     35 N          -5.7775  -31.5685   75.7035 N.am      1 SEC2        0.0000 
     36 N          -7.1510  -30.8300   76.2770 N.am      5 SEP2        0.0000 
     37 NZ         -6.5180  -32.2475   76.1790 N.4       3 LYC4        0.0000 
     38 NZ         -5.8850  -33.6650   76.0810 N.4      11 LYL4        0.0000 
     39 N          -6.5180  -32.2475   76.1790 N.am      1 SEC2        0.0000 
     40 N          -5.8850  -33.6650   76.0810 N.am      9 SEL2        0.0000 
     41 N          -6.7605  -34.7245   76.0655 N.am      1 SEC2        0.0000 
     42 N          -7.6360  -35.7840   76.0500 N.am      5 SEP2        0.0000 
     43 N          -6.6625  -33.7285   75.0110 N.am      1 SEC2        0.0000 
     44 N          -7.4400  -33.7920   73.9410 N.am      5 SEP2        0.0000 
     45 CA         -5.5940  -35.6245   77.7030 C.3       4 GLC5        0.0000 
     46 CA         -3.6030  -35.2050   76.9370 C.3      12 GLL5        0.0000 
     47 CA         -7.5850  -36.0440   78.4690 C.3       8 GLP5        0.0000 
     48 CA         -2.4620  -37.5375   74.8880 C.3       4 GLC5        0.0000 
     49 CA         -3.0160  -36.6140   76.8170 C.3      12 GLL5        0.0000 
     50 CA         -1.9080  -38.4610   72.9590 C.3       8 GLP5        0.0000 
     51 N          -6.3780  -37.7830   75.6325 N.am      1 SEC2        0.0000 
     52 N          -5.2580  -37.3140   76.4550 N.am      9 SEL2        0.0000 
     53 N          -7.4980  -38.2520   74.8100 N.am      5 SEP2        0.0000 
     54 N          -6.0590  -38.1515   77.0395 N.am      1 SEC2        0.0000 
     55 N          -6.8600  -38.9890   77.6240 N.am      5 SEP2        0.0000 
     56 N          -4.4185  -39.3265   74.9855 N.am      1 SEC2        0.0000 
     57 N          -3.6200  -38.6610   75.7740 N.am      9 SEL2        0.0000 
     58 N          -5.2170  -39.9920   74.1970 N.am      5 SEP2        0.0000 
     59 CA         -6.9813  -34.9180   80.0930 C.3       4 GLC5        0.0000 
     60 CA         -5.8400  -33.3360   81.4200 C.3      12 GLL5        0.0000 
     61 CA         -3.6314  -32.3780   80.3070 C.3       4 GLC5        0.0000 
     62 CA         -4.5030  -34.0760   81.3500 C.3      12 GLL5        0.0000 
     63 CA         -2.7590  -30.8240   79.8540 C.3       8 GLP5        0.0000 
     64 CA         -1.8718  -33.0935   79.6707 C.3       4 GLC5        0.0000 
     65 CA         -2.6110  -34.8100   80.0470 C.3      12 GLL5        0.0000 
     66 CA         -1.4630  -31.3370   79.9050 C.3       8 GLP5        0.0000 
     67 CA         -4.0891  -36.1743   81.1989 C.3       4 GLC5        0.0000 
@<TRIPOS>BOND
@<TRIPOS>SUBSTRUCTURE
     1 SEC2        1 GROUP        1 X    SEC  0     ROOT SEC X 2
     2 ASC3       17 GROUP        1 X    ASC  0     **** ASC X 3
     3 LYC4       27 GROUP        1 X    LYC  0     **** LYC X 4
     4 GLC5        4 GROUP        1 X    GLC  0     **** GLC X 6
     5 SEP2        3 GROUP        1 Y    SEP  0     ROOT SEP Y 9
     6 ASP3       19 GROUP        1 Y    ASP  0     **** ASP Y 10
     7 LYP4       29 GROUP        1 Y    LYP  0     **** LYP Y 11
     8 GLP5        6 GROUP        1 Y    GLP  0     **** GLP Y 13
     9 SEL2        2 GROUP        1 Z    SEL  0     ROOT SEL Z 16
    10 ASL3       18 GROUP        1 Z    ASL  0     **** ASL Z 17
    11 LYL4       28 GROUP        1 Z    LYL  0     **** LYL Z 18
    12 GLL5        5 GROUP        1 Z    GLL  0     **** GLL Z 20
@<TRIPOS>SET

