#    Name: 2pbw_DOQ_1_ligand
#    Modification time : Mon Mar 24 18:40:40 2014

@<TRIPOS>MOLECULE
2pbw_DOQ_1_ligand
   39    39     1     0     0
SMALL
NO_CHARGES


@<TRIPOS>ATOM
      1 OAD        -6.1740  -31.0290   81.8850 O.co2     1 DOQ401      0.0000 
      2 CAQ        -5.6640  -32.0940   82.2960 C.2       1 DOQ401      0.0000 
      3 OAG        -5.0050  -32.2330   83.3500 O.co2     1 DOQ401      0.0000 
      4 CAS        -5.8400  -33.3360   81.4200 C.3       1 DOQ401      0.0000 
      5 CAB        -6.9150  -34.2480   82.0140 C.3       1 DOQ401      0.0000 
      6 CAK        -4.5030  -34.0760   81.3500 C.2       1 DOQ401      0.0000 
      7 CAI        -3.8360  -34.1580   80.1350 C.2       1 DOQ401      0.0000 
      8 CAJ        -2.6110  -34.8100   80.0470 C.2       1 DOQ401      0.0000 
      9 CAP        -1.9500  -34.8900   78.8260 C.2       1 DOQ401      0.0000 
     10 CAA        -0.5810  -35.5670   78.7530 C.3       1 DOQ401      0.0000 
     11 CAT        -2.5670  -34.2740   77.5680 C.3       1 DOQ401      0.0000 
     12 CAL        -1.5600  -34.1610   76.4250 C.3       1 DOQ401      0.0000 
     13 N          -2.4070  -34.0110   75.2300 N.4       1 DOQ401      0.0000 
     14 CA         -3.7380  -34.5460   75.5630 C.3       1 DOQ401      0.0000 
     15 C          -4.7620  -33.4080   75.5990 C.2       1 DOQ401      0.0000 
     16 OXT        -4.4040  -32.3070   75.1300 O.co2     1 DOQ401      0.0000 
     17 O          -5.8850  -33.6650   76.0810 O.co2     1 DOQ401      0.0000 
     18 CB         -3.6030  -35.2050   76.9370 C.3       1 DOQ401      0.0000 
     19 CG         -3.0160  -36.6140   76.8170 C.3       1 DOQ401      0.0000 
     20 CD         -4.0540  -37.6130   76.3010 C.2       1 DOQ401      0.0000 
     21 OE2        -5.2580  -37.3140   76.4550 O.co2     1 DOQ401      0.0000 
     22 OE1        -3.6200  -38.6610   75.7740 O.co2     1 DOQ401      0.0000 
     23 H          -6.1269  -33.0353   80.4387 H         1 DOQ401      0.0000 
     24 H          -4.1659  -34.4749   82.2049 H         1 DOQ401      0.0000 
     25 H          -4.2511  -33.7328   79.2918 H         1 DOQ401      0.0000 
     26 H          -2.1930  -35.2338   80.8861 H         1 DOQ401      0.0000 
     27 H          -3.0012  -33.3437   77.7444 H         1 DOQ401      0.0000 
     28 H          -0.9844  -35.0574   76.3803 H         1 DOQ401      0.0000 
     29 H          -0.9548  -33.2970   76.5803 H         1 DOQ401      0.0000 
     30 H          -4.0337  -35.2784   74.8550 H         1 DOQ401      0.0000 
     31 H          -4.4805  -35.1631   77.4498 H         1 DOQ401      0.0000 
     32 H          -2.6617  -36.9388   77.7966 H         1 DOQ401      0.0000 
     33 H          -2.1681  -36.5913   76.1306 H         1 DOQ401      0.0000 
     34 H          -7.0512  -35.0703   81.4615 H         1 DOQ401      0.0000 
     35 H          -6.6766  -34.5511   82.9367 H         1 DOQ401      0.0000 
     36 H          -7.8001  -33.7869   82.0765 H         1 DOQ401      0.0000 
     37 H          -0.2113  -35.5580   77.8239 H         1 DOQ401      0.0000 
     38 H           0.0896  -35.1130   79.3397 H         1 DOQ401      0.0000 
     39 H          -0.6237  -36.5233   79.0422 H         1 DOQ401      0.0000 
@<TRIPOS>BOND
     1    2    1 ar   
     2    3    2 ar   
     3    4    2 1    
     4    5    4 1    
     5    6    4 1    
     6   23    4 1    
     7   34    5 1    
     8   35    5 1    
     9   36    5 1    
    10    7    6 2    
    11   24    6 1    
    12    8    7 1    
    13   25    7 1    
    14    9    8 2    
    15   26    8 1    
    16   10    9 1    
    17   11    9 1    
    18   37   10 1    
    19   38   10 1    
    20   39   10 1    
    21   12   11 1    
    22   18   11 1    
    23   27   11 1    
    24   13   12 1    
    25   28   12 1    
    26   29   12 1    
    27   14   13 1    
    28   15   14 1    
    29   18   14 1    
    30   30   14 1    
    31   16   15 ar   
    32   17   15 ar   
    33   19   18 1    
    34   31   18 1    
    35   20   19 1    
    36   32   19 1    
    37   33   19 1    
    38   21   20 ar   
    39   22   20 ar   
@<TRIPOS>SUBSTRUCTURE
     1 DOQ401      1 GROUP   
@<TRIPOS>SET

