#    Name: 2j0l_ANP_1_INTS_M
#    Modification time : Tue Mar 25 19:04:47 2014

@<TRIPOS>MOLECULE
2j0l_ANP_1_INTS_M
   61     0    18     0     0
SMALL
NO_CHARGES


@<TRIPOS>ATOM
      1 N          -2.7000   -3.8975    4.9315 N.am      2 SEC2        0.0000 
      2 N          -3.1940   -4.7350    3.7210 N.am     14 SEL2        0.0000 
      3 N          -2.2060   -3.0600    6.1420 N.am      8 SEP2        0.0000 
      4 Zn         -6.2010   -5.5640    4.5600 Zn        5 ZIC7        0.0000 
      5 Zn         -5.5470   -5.7890    3.9540 Zn       17 ZIL7        0.0000 
      6 Zn         -6.8550   -5.3390    5.1660 Zn       11 ZIP7        0.0000 
      7 N          -4.7955   -7.0210    0.8750 N.am      2 SEC2        0.0000 
      8 N          -4.0590   -6.4190    2.0300 N.am     14 SEL2        0.0000 
      9 N          -5.5320   -7.6230   -0.2800 N.am      8 SEP2        0.0000 
     10 Zn         -6.8800   -4.4185    4.4510 Zn        5 ZIC7        0.0000 
     11 Zn         -6.9050   -3.4980    3.7360 Zn       17 ZIL7        0.0000 
     12 N          -7.5810   -3.6580   -0.0730 N.am      2 SEC2        0.0000 
     13 N          -7.4990   -3.3360    1.3050 N.am     14 SEL2        0.0000 
     14 N          -7.6630   -3.9800   -1.4510 N.am      8 SEP2        0.0000 
     15 OD1        -4.9305   -3.9605    3.9015 O.co2     3 ASC3        0.0000 
     16 OD1        -5.0210   -4.0560    1.9150 O.co2    15 ASL3        0.0000 
     17 OD1        -4.8400   -3.8650    5.8880 O.co2     9 ASP3        0.0000 
     18 NZ         -7.0765    0.3580    3.7695 N.4       4 LYC4        0.0000 
     19 NZ         -5.8580   -0.1040    4.2660 N.4      16 LYL4        0.0000 
     20 NZ         -8.2950    0.8200    3.2730 N.4      10 LYP4        0.0000 
     21 N          -7.0765    0.3580    3.7695 N.am      2 SEC2        0.0000 
     22 N          -5.8580   -0.1040    4.2660 N.am     14 SEL2        0.0000 
     23 N          -8.2950    0.8200    3.2730 N.am      8 SEP2        0.0000 
     24 CA         -4.9945   -1.1050   -0.2945 C.3       6 GLC5        0.0000 
     25 CA         -3.6210   -0.2570    1.1250 C.3      18 GLL5        0.0000 
     26 CA         -6.3680   -1.9530   -1.7140 C.3      12 GLP5        0.0000 
     27 O           0.9785    1.6505    0.2305 O.2       1 ALC1        0.0000 
     28 O          -0.3380    2.5640    0.2790 O.2      13 ALL1        0.0000 
     29 O           2.2950    0.7370    0.1820 O.2       7 ALP1        0.0000 
     30 CA         -4.2890    4.0410   -0.2465 C.3       6 GLC5        0.0000 
     31 CA         -2.6230    3.1380    0.6980 C.3      18 GLL5        0.0000 
     32 CA         -5.9550    4.9440   -1.1910 C.3      12 GLP5        0.0000 
     33 O          -5.1330    8.5820    5.0375 O.2       1 ALC1        0.0000 
     34 O          -4.8530    7.1780    4.5310 O.2      13 ALL1        0.0000 
     35 O          -5.4130    9.9860    5.5440 O.2       7 ALP1        0.0000 
     36 N          -2.4660    8.9070    4.0420 N.am      2 SEC2        0.0000 
     37 N          -2.9260    7.5810    3.3120 N.am     14 SEL2        0.0000 
     38 N          -2.0060   10.2330    4.7720 N.am      8 SEP2        0.0000 
     39 CA         -2.3080    7.4585    0.5135 C.3       6 GLC5        0.0000 
     40 CA         -2.0200    7.1970    2.4260 C.3      18 GLL5        0.0000 
     41 CA         -2.5960    7.7200   -1.3990 C.3      12 GLP5        0.0000 
     42 CA         -4.0250    7.8745    1.9195 C.3       6 GLC5        0.0000 
     43 CA         -6.0300    8.5520    1.4130 C.3      12 GLP5        0.0000 
     44 CA         -2.3945    9.0055    1.6115 C.3       6 GLC5        0.0000 
     45 CA         -2.7690   10.8140    0.7970 C.3      12 GLP5        0.0000 
     46 CA         -1.3060    7.9735    4.2835 C.3       6 GLC5        0.0000 
     47 CA         -0.5920    8.7500    6.1410 C.3      12 GLP5        0.0000 
     48 CA         -2.0465    5.9075    4.0995 C.3       6 GLC5        0.0000 
     49 CA         -2.0730    4.6180    5.7730 C.3      12 GLP5        0.0000 
     50 CA         -2.8385    6.4395    0.3670 C.3       6 GLC5        0.0000 
     51 CA         -3.0810    5.1590    2.1330 C.3      18 GLL5        0.0000 
     52 CA         -4.5180    5.0515    0.4710 C.3       6 GLC5        0.0000 
     53 CA          0.5150    1.8428    1.9358 C.3       6 GLC5        0.0000 
     54 CA         -1.3190    2.6350    1.3090 C.3      18 GLL5        0.0000 
     55 CA          2.5440    1.7490    2.3320 C.3      12 GLP5        0.0000 
     56 CA         -0.7495    2.7102    3.2713 C.3       6 GLC5        0.0000 
     57 CA          0.0150    3.4840    5.0030 C.3      12 GLP5        0.0000 
     58 CA         -5.0152    7.3552    2.3800 C.3       6 GLC5        0.0000 
     59 CA         -4.0490    5.5340    3.0490 C.3      18 GLL5        0.0000 
     60 CA         -2.8069    5.1384    4.2565 C.3       6 GLC5        0.0000 
     61 CA         -3.9520    6.7830    3.6450 C.3      18 GLL5        0.0000 
@<TRIPOS>BOND
@<TRIPOS>SUBSTRUCTURE
     1 ALC1       27 GROUP        1 X    ALC  0     ROOT ALC X 1
     2 SEC2        1 GROUP        1 X    SEC  0     **** SEC X 2
     3 ASC3       15 GROUP        1 X    ASC  0     **** ASC X 3
     4 LYC4       18 GROUP        1 X    LYC  0     **** LYC X 4
     5 ZIC7        4 GROUP        1 X    ZIC  0     **** ZIC X 5
     6 GLC5       24 GROUP        1 X    GLC  0     **** GLC X 6
     7 ALP1       29 GROUP        1 Y    ALP  0     ROOT ALP Y 8
     8 SEP2        3 GROUP        1 Y    SEP  0     **** SEP Y 9
     9 ASP3       17 GROUP        1 Y    ASP  0     **** ASP Y 10
    10 LYP4       20 GROUP        1 Y    LYP  0     **** LYP Y 11
    11 ZIP7        6 GROUP        1 Y    ZIP  0     **** ZIP Y 12
    12 GLP5       26 GROUP        1 Y    GLP  0     **** GLP Y 13
    13 ALL1       28 GROUP        1 Z    ALL  0     ROOT ALL Z 15
    14 SEL2        2 GROUP        1 Z    SEL  0     **** SEL Z 16
    15 ASL3       16 GROUP        1 Z    ASL  0     **** ASL Z 17
    16 LYL4       19 GROUP        1 Z    LYL  0     **** LYL Z 18
    17 ZIL7        5 GROUP        1 Z    ZIL  0     **** ZIL Z 19
    18 GLL5       25 GROUP        1 Z    GLL  0     **** GLL Z 20
@<TRIPOS>SET

