#    Name: 2j0l_ANP_1_ligand
#    Modification time : Tue Mar 25 19:04:47 2014

@<TRIPOS>MOLECULE
2j0l_ANP_1_ligand
   43    45     1     0     0
SMALL
NO_CHARGES


@<TRIPOS>ATOM
      1 PG         -4.4720   -5.2830    2.8840 P.3       1 ANP1689     0.0000 
      2 O1G        -3.1940   -4.7350    3.7210 O.co2     1 ANP1689     0.0000 
      3 O2G        -5.5470   -5.7890    3.9540 O.co2     1 ANP1689     0.0000 
      4 O3G        -4.0590   -6.4190    2.0300 O.co2     1 ANP1689     0.0000 
      5 PB         -6.3730   -3.1690    2.2630 P.3       1 ANP1689     0.0000 
      6 O1B        -6.9050   -3.4980    3.7360 O.co2     1 ANP1689     0.0000 
      7 O2B        -7.4990   -3.3360    1.3050 O.co2     1 ANP1689     0.0000 
      8 N3B        -5.0210   -4.0560    1.9150 N.4       1 ANP1689     0.0000 
      9 PA         -5.0090   -0.7980    3.2680 P.3       1 ANP1689     0.0000 
     10 O1A        -3.9270   -1.7470    3.9670 O.co2     1 ANP1689     0.0000 
     11 O2A        -5.8580   -0.1040    4.2660 O.co2     1 ANP1689     0.0000 
     12 O3A        -5.9110   -1.6440    2.2070 O.3       1 ANP1689     0.0000 
     13 O5'        -4.2660    0.2050    2.2980 O.3       1 ANP1689     0.0000 
     14 C5'        -3.6210   -0.2570    1.1250 C.3       1 ANP1689     0.0000 
     15 C4'        -2.6130    0.7680    0.6370 C.3       1 ANP1689     0.0000 
     16 O4'        -3.3620    1.9480    0.2470 O.3       1 ANP1689     0.0000 
     17 C3'        -1.7090    1.2380    1.7700 C.3       1 ANP1689     0.0000 
     18 O3'        -0.5530    0.4070    1.8370 O.3       1 ANP1689     0.0000 
     19 C2'        -1.3190    2.6350    1.3090 C.3       1 ANP1689     0.0000 
     20 O2'        -0.3380    2.5640    0.2790 O.3       1 ANP1689     0.0000 
     21 C1'        -2.6230    3.1380    0.6980 C.3       1 ANP1689     0.0000 
     22 N9         -3.3880    3.9360    1.7140 N.pl3     1 ANP1689     0.0000 
     23 C8         -4.5000    3.5590    2.3390 C.2       1 ANP1689     0.0000 
     24 N7         -4.9090    4.5310    3.1590 N.2       1 ANP1689     0.0000 
     25 C5         -4.0490    5.5340    3.0490 C.ar      1 ANP1689     0.0000 
     26 C6         -3.9520    6.7830    3.6450 C.ar      1 ANP1689     0.0000 
     27 N6         -4.8530    7.1780    4.5310 N.pl3     1 ANP1689     0.0000 
     28 N1         -2.9260    7.5810    3.3120 N.ar      1 ANP1689     0.0000 
     29 C2         -2.0200    7.1970    2.4260 C.ar      1 ANP1689     0.0000 
     30 N3         -2.0860    6.0120    1.8310 N.ar      1 ANP1689     0.0000 
     31 C4         -3.0810    5.1590    2.1330 C.ar      1 ANP1689     0.0000 
     32 H          -4.3371   -0.4383    0.3082 H         1 ANP1689     0.0000 
     33 H          -3.0816   -1.2012    1.2990 H         1 ANP1689     0.0000 
     34 H          -2.0448    0.3944   -0.1510 H         1 ANP1689     0.0000 
     35 H          -2.2607    1.3032    2.6465 H         1 ANP1689     0.0000 
     36 H          -1.0732    3.2207    2.1223 H         1 ANP1689     0.0000 
     37 H          -2.3718    3.7575   -0.1439 H         1 ANP1689     0.0000 
     38 H          -4.9537    2.6981    2.2183 H         1 ANP1689     0.0000 
     39 H          -4.6882    8.0661    4.9602 H         1 ANP1689     0.0000 
     40 H          -5.6166    6.5524    4.6908 H         1 ANP1689     0.0000 
     41 H          -1.2208    7.8515    2.1845 H         1 ANP1689     0.0000 
     42 H          -0.7901   -0.4090    1.3099 H         1 ANP1689     0.0000 
     43 H          -0.0084    1.6201    0.3004 H         1 ANP1689     0.0000 
@<TRIPOS>BOND
     1    2    1 ar   
     2    3    1 ar   
     3    4    1 ar   
     4    8    1 1    
     5    6    5 ar   
     6    7    5 ar   
     7    8    5 1    
     8   12    5 1    
     9   10    9 ar   
    10   11    9 ar   
    11   12    9 1    
    12   13    9 1    
    13   14   13 1    
    14   15   14 1    
    15   32   14 1    
    16   33   14 1    
    17   16   15 1    
    18   17   15 1    
    19   34   15 1    
    20   21   16 1    
    21   18   17 1    
    22   19   17 1    
    23   35   17 1    
    24   42   18 1    
    25   20   19 1    
    26   21   19 1    
    27   36   19 1    
    28   43   20 1    
    29   22   21 1    
    30   37   21 1    
    31   23   22 1    
    32   31   22 1    
    33   24   23 2    
    34   38   23 1    
    35   25   24 1    
    36   26   25 ar   
    37   31   25 ar   
    38   27   26 1    
    39   28   26 ar   
    40   39   27 1    
    41   40   27 1    
    42   29   28 ar   
    43   30   29 ar   
    44   41   29 1    
    45   31   30 ar   
@<TRIPOS>SUBSTRUCTURE
     1 ANP1689     1 GROUP   
@<TRIPOS>SET

