#    Name: 2xht_C0Y_1_INTS_M
#    Modification time : Tue Mar 25 06:01:25 2014

@<TRIPOS>MOLECULE
2xht_C0Y_1_INTS_M
   63     0     9     0     0
SMALL
NO_CHARGES


@<TRIPOS>ATOM
      1 CA          8.9620   -1.6150    9.4090 C.3       3 GLC5        0.0000 
      2 CA          7.0240   -1.1390    9.9970 C.3       9 GLL5        0.0000 
      3 CA         10.9000   -2.0910    8.8210 C.3       6 GLP5        0.0000 
      4 CA          7.0020    0.7825    9.7670 C.3       3 GLC5        0.0000 
      5 CA          6.9800    2.7040    9.5370 C.3       6 GLP5        0.0000 
      6 CA          7.9485    0.8140   11.6400 C.3       3 GLC5        0.0000 
      7 CA          6.8370   -0.6640   12.4250 C.3       9 GLL5        0.0000 
      8 CA          9.0600    2.2920   10.8550 C.3       6 GLP5        0.0000 
      9 CA          8.0435    0.5700   13.7025 C.3       3 GLC5        0.0000 
     10 CA          9.2500    1.8040   14.9800 C.3       6 GLP5        0.0000 
     11 CA          6.9540   -1.1570   14.3570 C.3       3 GLC5        0.0000 
     12 CA          7.0710   -1.6500   16.2890 C.3       6 GLP5        0.0000 
     13 CA          4.7235    0.0655   11.8795 C.3       3 GLC5        0.0000 
     14 CA          4.8420   -1.4330   11.1450 C.3       9 GLL5        0.0000 
     15 CA          4.6050    1.5640   12.6140 C.3       6 GLP5        0.0000 
     16 CA          6.6425   -2.7300   14.4940 C.3       3 GLC5        0.0000 
     17 CA          6.2140   -3.8100   12.6990 C.3       9 GLL5        0.0000 
     18 O           5.1490   -3.9290   14.5245 O.2       1 ALC1        0.0000 
     19 O           5.2800   -3.2770   13.5590 O.2       7 ALL1        0.0000 
     20 O           5.0180   -4.5810   15.4900 O.2       4 ALP1        0.0000 
     21 N          10.7390   -5.5505   11.6845 N.am      2 SEC2        0.0000 
     22 N          10.1770   -5.9220   10.5570 N.am      8 SEL2        0.0000 
     23 N          11.3010   -5.1790   12.8120 N.am      5 SEP2        0.0000 
     24 CA         10.9495   -4.7215    8.0245 C.3       3 GLC5        0.0000 
     25 CA          9.9440   -5.9770    7.7780 C.3       9 GLL5        0.0000 
     26 CA         11.9550   -3.4660    8.2710 C.3       6 GLP5        0.0000 
     27 CA          9.0365   -8.4535    5.7250 C.3       3 GLC5        0.0000 
     28 CA          9.4830   -7.2380    7.0710 C.3       9 GLL5        0.0000 
     29 CA          8.5900   -9.6690    4.3790 C.3       6 GLP5        0.0000 
     30 N           7.5615   -7.4270    5.2305 N.am      2 SEC2        0.0000 
     31 N           8.2110   -7.0430    6.4360 N.am      8 SEL2        0.0000 
     32 N           6.9120   -7.8110    4.0250 N.am      5 SEP2        0.0000 
     33 CA          5.4715   -7.8550    7.3775 C.3       3 GLC5        0.0000 
     34 CA          7.2190   -6.6960    7.4140 C.3       9 GLL5        0.0000 
     35 CA          3.7240   -9.0140    7.3410 C.3       6 GLP5        0.0000 
     36 CA          7.4085   -8.3755    8.2485 C.3       3 GLC5        0.0000 
     37 CA          7.5980  -10.0550    9.0830 C.3       6 GLP5        0.0000 
     38 CA          7.9045   -8.1825    5.8965 C.3       3 GLC5        0.0000 
     39 CA          7.8460   -7.2860    9.1535 C.3       3 GLC5        0.0000 
     40 CA          7.5850   -5.4130    8.1420 C.3       9 GLL5        0.0000 
     41 CA          8.1070   -9.1590   10.1650 C.3       6 GLP5        0.0000 
     42 CA          4.5010   -3.0560   11.0165 C.3       3 GLC5        0.0000 
     43 CA          3.4020   -4.6000   10.8120 C.3       6 GLP5        0.0000 
     44 CA          5.6845    0.2748   12.0750 C.3       3 GLC5        0.0000 
     45 CA          8.6335   -3.5410   12.7670 C.3       3 GLC5        0.0000 
     46 CA          6.7260   -3.0510   11.6090 C.3       9 GLL5        0.0000 
     47 CA         10.0770   -3.7330   14.3420 C.3       6 GLP5        0.0000 
     48 CA          9.4953   -3.1943   10.7895 C.3       3 GLC5        0.0000 
     49 CA          7.6540   -3.6470   10.7750 C.3       9 GLL5        0.0000 
     50 CA         11.1210   -2.0910   10.7050 C.3       6 GLP5        0.0000 
     51 CA          7.9695   -7.2363   10.8362 C.3       3 GLC5        0.0000 
     52 CA          8.0850   -4.9480   10.9730 C.3       9 GLL5        0.0000 
     53 CA          9.2235   -5.2332   12.7873 C.3       3 GLC5        0.0000 
     54 CA          7.5790   -5.6790   12.0420 C.3       9 GLL5        0.0000 
     55 CA         10.6150   -5.1530   14.0670 C.3       6 GLP5        0.0000 
     56 CA          5.9352   -6.8515   12.8050 C.3       3 GLC5        0.0000 
     57 CA          6.6500   -5.1170   12.8980 C.3       9 GLL5        0.0000 
     58 CA          4.7560   -8.3050   13.1400 C.3       6 GLP5        0.0000 
     59 CA          8.2545   -4.0983   13.5703 C.3       3 GLC5        0.0000 
     60 CA          8.9103   -7.8833    8.7947 C.3       3 GLC5        0.0000 
     61 CA         10.4748   -8.2263    7.4322 C.3       3 GLC5        0.0000 
     62 CA         11.2360   -9.8450    7.4400 C.3       6 GLP5        0.0000 
     63 CA          5.1551   -4.5444   11.5099 C.3       3 GLC5        0.0000 
@<TRIPOS>BOND
@<TRIPOS>SUBSTRUCTURE
     1 ALC1       18 GROUP        1 X    ALC  0     ROOT ALC X 1
     2 SEC2       21 GROUP        1 X    SEC  0     **** SEC X 2
     3 GLC5        1 GROUP        1 X    GLC  0     **** GLC X 6
     4 ALP1       20 GROUP        1 Y    ALP  0     ROOT ALP Y 8
     5 SEP2       23 GROUP        1 Y    SEP  0     **** SEP Y 9
     6 GLP5        3 GROUP        1 Y    GLP  0     **** GLP Y 13
     7 ALL1       19 GROUP        1 Z    ALL  0     ROOT ALL Z 15
     8 SEL2       22 GROUP        1 Z    SEL  0     **** SEL Z 16
     9 GLL5        2 GROUP        1 Z    GLL  0     **** GLL Z 20
@<TRIPOS>SET

