#    Name: 2xht_C0Y_1_ligand
#    Modification time : Tue Mar 25 06:01:26 2014

@<TRIPOS>MOLECULE
2xht_C0Y_1_ligand
   40    41     1     0     0
SMALL
NO_CHARGES


@<TRIPOS>ATOM
      1 C1          7.0240   -1.1390    9.9970 C.3       1 C0Y1224     0.0000 
      2 C2          6.3580   -1.5910   11.2970 C.3       1 C0Y1224     0.0000 
      3 C3          6.8370   -0.6640   12.4250 C.3       1 C0Y1224     0.0000 
      4 C4          4.8420   -1.4330   11.1450 C.3       1 C0Y1224     0.0000 
      5 C5          6.7260   -3.0510   11.6090 C.ar      1 C0Y1224     0.0000 
      6 C6          7.6540   -3.6470   10.7750 C.ar      1 C0Y1224     0.0000 
      7 C7          8.0850   -4.9480   10.9730 C.ar      1 C0Y1224     0.0000 
      8 C8          7.5790   -5.6790   12.0420 C.ar      1 C0Y1224     0.0000 
      9 C9          6.6500   -5.1170   12.8980 C.ar      1 C0Y1224     0.0000 
     10 C10         6.2140   -3.8100   12.6990 C.ar      1 C0Y1224     0.0000 
     11 O11         5.2800   -3.2770   13.5590 O.3       1 C0Y1224     0.0000 
     12 C12         9.1280   -5.5350   10.0760 C.2       1 C0Y1224     0.0000 
     13 O13        10.1770   -5.9220   10.5570 O.2       1 C0Y1224     0.0000 
     14 N14         8.9170   -5.5450    8.7360 N.am      1 C0Y1224     0.0000 
     15 C15         9.9440   -5.9770    7.7780 C.3       1 C0Y1224     0.0000 
     16 C16         9.4830   -7.2380    7.0710 C.3       1 C0Y1224     0.0000 
     17 O17         8.2110   -7.0430    6.4360 O.3       1 C0Y1224     0.0000 
     18 C18         7.2190   -6.6960    7.4140 C.3       1 C0Y1224     0.0000 
     19 C19         7.5850   -5.4130    8.1420 C.3       1 C0Y1224     0.0000 
     20 H           8.0409   -3.1019    9.9738 H         1 C0Y1224     0.0000 
     21 H           7.9015   -6.6482   12.1948 H         1 C0Y1224     0.0000 
     22 H           6.2763   -5.6644   13.6877 H         1 C0Y1224     0.0000 
     23 H          10.8842   -6.1874    8.2910 H         1 C0Y1224     0.0000 
     24 H          10.1226   -5.2022    7.0303 H         1 C0Y1224     0.0000 
     25 H           9.4374   -8.0487    7.8169 H         1 C0Y1224     0.0000 
     26 H          10.2570   -7.5190    6.3378 H         1 C0Y1224     0.0000 
     27 H           7.1044   -7.4925    8.1678 H         1 C0Y1224     0.0000 
     28 H           6.2306   -6.5507    6.9473 H         1 C0Y1224     0.0000 
     29 H           7.5599   -4.5883    7.4263 H         1 C0Y1224     0.0000 
     30 H           6.8341   -5.2245    8.9124 H         1 C0Y1224     0.0000 
     31 H           8.0212   -1.1876   10.0542 H         1 C0Y1224     0.0000 
     32 H           6.7469   -1.7058    9.2212 H         1 C0Y1224     0.0000 
     33 H           6.7892   -0.1942    9.7684 H         1 C0Y1224     0.0000 
     34 H           7.8296   -0.7019   12.5406 H         1 C0Y1224     0.0000 
     35 H           6.5988    0.2908   12.2474 H         1 C0Y1224     0.0000 
     36 H           6.4299   -0.9088   13.3050 H         1 C0Y1224     0.0000 
     37 H           4.5841   -0.4845   10.9609 H         1 C0Y1224     0.0000 
     38 H           4.4847   -1.9854   10.3919 H         1 C0Y1224     0.0000 
     39 H           4.3546   -1.7141   11.9717 H         1 C0Y1224     0.0000 
     40 H           5.5744   -3.5637   14.4706 H         1 C0Y1224     0.0000 
@<TRIPOS>BOND
     1    2    1 1    
     2   31    1 1    
     3   32    1 1    
     4   33    1 1    
     5    3    2 1    
     6    4    2 1    
     7    5    2 1    
     8   34    3 1    
     9   35    3 1    
    10   36    3 1    
    11   37    4 1    
    12   38    4 1    
    13   39    4 1    
    14    6    5 ar   
    15   10    5 ar   
    16    7    6 ar   
    17   20    6 1    
    18    8    7 ar   
    19   12    7 1    
    20    9    8 ar   
    21   21    8 1    
    22   10    9 ar   
    23   22    9 1    
    24   11   10 1    
    25   40   11 1    
    26   13   12 2    
    27   14   12 am   
    28   15   14 1    
    29   19   14 1    
    30   16   15 1    
    31   23   15 1    
    32   24   15 1    
    33   17   16 1    
    34   25   16 1    
    35   26   16 1    
    36   18   17 1    
    37   19   18 1    
    38   27   18 1    
    39   28   18 1    
    40   29   19 1    
    41   30   19 1    
@<TRIPOS>SUBSTRUCTURE
     1 C0Y1224     1 GROUP   
@<TRIPOS>SET

