#    Name: 4fcb_0T7_2_INTS_M
#    Modification time : Mon Mar 24 19:18:59 2014

@<TRIPOS>MOLECULE
4fcb_0T7_2_INTS_M
   68     0     6     0     0
SMALL
NO_CHARGES


@<TRIPOS>ATOM
      1 CA         14.6870  -41.8935  -18.5745 C.3       2 GLC5        0.0000 
      2 CA         15.1470  -41.0660  -20.2100 C.3       6 GLL5        0.0000 
      3 CA         14.2270  -42.7210  -16.9390 C.3       4 GLP5        0.0000 
      4 CA         16.8870  -40.6990  -19.4425 C.3       2 GLC5        0.0000 
      5 CA         18.6270  -40.3320  -18.6750 C.3       4 GLP5        0.0000 
      6 CA         12.6625  -37.2040  -17.5680 C.3       2 GLC5        0.0000 
      7 CA         14.5800  -37.8620  -17.2030 C.3       6 GLL5        0.0000 
      8 CA         10.7450  -36.5460  -17.9330 C.3       4 GLP5        0.0000 
      9 N          19.0280  -35.5340  -18.1430 N.am      1 SEC2        0.0000 
     10 N          17.5090  -35.9390  -18.4920 N.am      5 SEL2        0.0000 
     11 N          20.5470  -35.1290  -17.7940 N.am      3 SEP2        0.0000 
     12 CA         16.0405  -34.8690  -15.0885 C.3       2 GLC5        0.0000 
     13 CA         16.9870  -35.9710  -16.1630 C.3       6 GLL5        0.0000 
     14 CA         15.0940  -33.7670  -14.0140 C.3       4 GLP5        0.0000 
     15 CA         17.3425  -37.6750  -15.9380 C.3       2 GLC5        0.0000 
     16 CA         17.6980  -39.3790  -15.7130 C.3       4 GLP5        0.0000 
     17 CA         15.5740  -34.8605  -17.3250 C.3       2 GLC5        0.0000 
     18 CA         14.1610  -33.7500  -18.4870 C.3       4 GLP5        0.0000 
     19 CA         21.6760  -36.1145  -26.2465 C.3       2 GLC5        0.0000 
     20 CA         21.9050  -34.2060  -26.0710 C.3       6 GLL5        0.0000 
     21 CA         21.4470  -38.0230  -26.4220 C.3       4 GLP5        0.0000 
     22 CA         22.6705  -33.4365  -23.0680 C.3       2 GLC5        0.0000 
     23 CA         23.0170  -35.1470  -24.1310 C.3       6 GLL5        0.0000 
     24 CA         22.3240  -31.7260  -22.0050 C.3       4 GLP5        0.0000 
     25 N          21.9240  -35.3765  -22.1310 N.am      1 SEC2        0.0000 
     26 N          21.8920  -35.0060  -23.3960 N.am      5 SEL2        0.0000 
     27 N          21.9560  -35.7470  -20.8660 N.am      3 SEP2        0.0000 
     28 CA         14.2635  -39.9580  -15.7355 C.3       2 GLC5        0.0000 
     29 CA         14.2850  -37.8590  -15.7550 C.3       6 GLL5        0.0000 
     30 CA         14.2420  -42.0570  -15.7160 C.3       4 GLP5        0.0000 
     31 CA         12.3560  -37.2770  -15.2560 C.3       2 GLC5        0.0000 
     32 CA         10.4270  -36.6950  -14.7570 C.3       4 GLP5        0.0000 
     33 CA         14.6375  -37.9655  -13.7555 C.3       2 GLC5        0.0000 
     34 CA         14.9900  -38.0720  -11.7560 C.3       4 GLP5        0.0000 
     35 CA         15.9915  -38.6190  -15.7340 C.3       2 GLC5        0.0000 
     36 CA         16.3495  -40.5700  -21.4760 C.3       2 GLC5        0.0000 
     37 CA         17.9310  -40.5450  -22.2790 C.3       4 GLP5        0.0000 
     38 CA         16.3890  -38.4665  -16.6402 C.3       2 GLC5        0.0000 
     39 CA         15.5800  -37.2460  -17.9320 C.3       6 GLL5        0.0000 
     40 CA         17.6982  -38.5150  -19.3697 C.3       2 GLC5        0.0000 
     41 CA         16.2350  -37.1150  -20.2830 C.3       6 GLL5        0.0000 
     42 CA         18.2235  -37.2937  -23.9207 C.3       2 GLC5        0.0000 
     43 CA         17.0430  -36.8640  -22.5670 C.3       6 GLL5        0.0000 
     44 CA         18.8770  -38.1350  -25.4850 C.3       4 GLP5        0.0000 
     45 CA         17.2793  -33.9650  -20.4138 C.3       2 GLC5        0.0000 
     46 CA         18.2230  -35.7570  -20.7770 C.3       6 GLL5        0.0000 
     47 CA         16.7950  -31.9110  -20.5160 C.3       4 GLP5        0.0000 
     48 CA         20.5535  -36.1977  -24.7841 C.3       2 GLC5        0.0000 
     49 CA         19.5550  -34.3410  -23.1140 C.3       6 GLL5        0.0000 
     50 CA         20.6500  -38.1630  -25.1390 C.3       4 GLP5        0.0000 
     51 CA         21.3905  -32.9793  -23.2171 C.3       2 GLC5        0.0000 
     52 CA         20.7810  -34.4690  -23.9790 C.3       6 GLL5        0.0000 
     53 CA         23.3055  -36.5750  -26.0978 C.3       2 GLC5        0.0000 
     54 CA         23.0680  -34.7520  -25.4960 C.3       6 GLL5        0.0000 
     55 CA         22.9490  -38.3190  -26.3260 C.3       4 GLP5        0.0000 
     56 CA         25.1307  -35.7368  -27.7230 C.3       2 GLC5        0.0000 
     57 CA         24.2560  -34.9100  -26.2430 C.3       6 GLL5        0.0000 
     58 CA         25.4410  -36.2890  -29.5060 C.3       4 GLP5        0.0000 
     59 CA         26.2198  -34.1893  -25.1975 C.3       2 GLC5        0.0000 
     60 CA         27.6190  -33.1940  -24.4550 C.3       4 GLP5        0.0000 
     61 CA         24.1555  -36.9857  -25.6460 C.3       2 GLC5        0.0000 
     62 CA         25.3850  -35.4590  -25.6370 C.3       6 GLL5        0.0000 
     63 CA         26.1852  -34.4805  -24.1893 C.3       2 GLC5        0.0000 
     64 CA         25.3390  -35.8460  -24.2950 C.3       6 GLL5        0.0000 
     65 CA         25.3487  -35.0665  -22.0158 C.3       2 GLC5        0.0000 
     66 CA         25.9460  -34.3660  -20.1080 C.3       4 GLP5        0.0000 
     67 CA         23.2698  -36.8683  -25.0838 C.3       2 GLC5        0.0000 
     68 CA         24.1640  -35.6880  -23.5520 C.3       6 GLL5        0.0000 
@<TRIPOS>BOND
@<TRIPOS>SUBSTRUCTURE
     1 SEC2        9 GROUP        1 X    SEC  0     ROOT SEC X 2
     2 GLC5        1 GROUP        1 X    GLC  0     **** GLC X 6
     3 SEP2       11 GROUP        1 Y    SEP  0     ROOT SEP Y 9
     4 GLP5        3 GROUP        1 Y    GLP  0     **** GLP Y 13
     5 SEL2       10 GROUP        1 Z    SEL  0     ROOT SEL Z 16
     6 GLL5        2 GROUP        1 Z    GLL  0     **** GLL Z 20
@<TRIPOS>SET

