#    Name: 4fcb_0T7_2_ligand
#    Modification time : Mon Mar 24 19:18:59 2014

@<TRIPOS>MOLECULE
4fcb_0T7_2_ligand
   54    58     1     0     0
SMALL
NO_CHARGES


@<TRIPOS>ATOM
      1 C1         15.1470  -41.0660  -20.2100 C.3       1 0T7803      0.0000 
      2 C2         14.3890  -40.1240  -21.1360 C.3       1 0T7803      0.0000 
      3 C3         13.5130  -39.1020  -20.3970 C.3       1 0T7803      0.0000 
      4 C4         14.2160  -38.4240  -19.2610 C.2       1 0T7803      0.0000 
      5 N1         13.7610  -38.5770  -18.0340 N.2       1 0T7803      0.0000 
      6 C5         14.5800  -37.8620  -17.2030 C.2       1 0T7803      0.0000 
      7 C6         15.5800  -37.2460  -17.9320 C.2       1 0T7803      0.0000 
      8 N2         15.3500  -37.6060  -19.2660 N.pl3     1 0T7803      0.0000 
      9 C7         16.2350  -37.1150  -20.2830 C.ar      1 0T7803      0.0000 
     10 C8         16.1210  -37.3930  -21.6500 C.ar      1 0T7803      0.0000 
     11 C9         17.0430  -36.8640  -22.5670 C.ar      1 0T7803      0.0000 
     12 C10        18.0970  -36.0410  -22.1460 C.ar      1 0T7803      0.0000 
     13 C11        18.2230  -35.7570  -20.7770 C.ar      1 0T7803      0.0000 
     14 C12        17.3040  -36.2810  -19.8460 C.ar      1 0T7803      0.0000 
     15 N3         17.5090  -35.9390  -18.4920 N.2       1 0T7803      0.0000 
     16 C13        16.7000  -36.3870  -17.5800 C.2       1 0T7803      0.0000 
     17 C14        16.9870  -35.9710  -16.1630 C.3       1 0T7803      0.0000 
     18 O1         18.9080  -35.6140  -23.1700 O.3       1 0T7803      0.0000 
     19 C15        19.5550  -34.3410  -23.1140 C.3       1 0T7803      0.0000 
     20 C16        20.7810  -34.4690  -23.9790 C.ar      1 0T7803      0.0000 
     21 C17        20.7460  -34.0600  -25.3120 C.ar      1 0T7803      0.0000 
     22 C18        21.9050  -34.2060  -26.0710 C.ar      1 0T7803      0.0000 
     23 C19        23.0680  -34.7520  -25.4960 C.ar      1 0T7803      0.0000 
     24 C20        24.2560  -34.9100  -26.2430 C.ar      1 0T7803      0.0000 
     25 C21        25.3850  -35.4590  -25.6370 C.ar      1 0T7803      0.0000 
     26 C22        25.3390  -35.8460  -24.2950 C.ar      1 0T7803      0.0000 
     27 C23        24.1640  -35.6880  -23.5520 C.ar      1 0T7803      0.0000 
     28 C24        23.0170  -35.1470  -24.1310 C.ar      1 0T7803      0.0000 
     29 N4         21.8920  -35.0060  -23.3960 N.ar      1 0T7803      0.0000 
     30 C25        14.2850  -37.8590  -15.7550 C.3       1 0T7803      0.0000 
     31 H          13.7492  -40.7157  -21.8092 H         1 0T7803      0.0000 
     32 H          15.1090  -39.5803  -21.7673 H         1 0T7803      0.0000 
     33 H          12.6147  -39.6213  -20.0236 H         1 0T7803      0.0000 
     34 H          13.1690  -38.3493  -21.1258 H         1 0T7803      0.0000 
     35 H          15.3546  -37.9908  -21.9880 H         1 0T7803      0.0000 
     36 H          16.9422  -37.0858  -23.5709 H         1 0T7803      0.0000 
     37 H          18.9929  -35.1608  -20.4478 H         1 0T7803      0.0000 
     38 H          19.8652  -34.0912  -22.1080 H         1 0T7803      0.0000 
     39 H          18.9295  -33.5539  -23.5137 H         1 0T7803      0.0000 
     40 H          19.9031  -33.6688  -25.7152 H         1 0T7803      0.0000 
     41 H          21.9175  -33.9154  -27.0566 H         1 0T7803      0.0000 
     42 H          24.2797  -34.6207  -27.2229 H         1 0T7803      0.0000 
     43 H          26.2508  -35.5796  -26.1751 H         1 0T7803      0.0000 
     44 H          26.1739  -36.2497  -23.8499 H         1 0T7803      0.0000 
     45 H          24.1484  -35.9770  -22.5605 H         1 0T7803      0.0000 
     46 H          15.7037  -41.7209  -20.7211 H         1 0T7803      0.0000 
     47 H          15.7645  -40.5697  -19.5998 H         1 0T7803      0.0000 
     48 H          14.5273  -41.5966  -19.6317 H         1 0T7803      0.0000 
     49 H          17.1579  -36.7593  -15.5719 H         1 0T7803      0.0000 
     50 H          17.7924  -35.3811  -16.1050 H         1 0T7803      0.0000 
     51 H          16.2233  -35.4646  -15.7627 H         1 0T7803      0.0000 
     52 H          14.3107  -38.7811  -15.3688 H         1 0T7803      0.0000 
     53 H          14.9441  -37.3082  -15.2429 H         1 0T7803      0.0000 
     54 H          13.3778  -37.4854  -15.5616 H         1 0T7803      0.0000 
@<TRIPOS>BOND
     1    2    1 1    
     2   46    1 1    
     3   47    1 1    
     4   48    1 1    
     5    3    2 1    
     6   31    2 1    
     7   32    2 1    
     8    4    3 1    
     9   33    3 1    
    10   34    3 1    
    11    5    4 2    
    12    8    4 1    
    13    6    5 1    
    14    7    6 2    
    15   30    6 1    
    16    8    7 1    
    17   16    7 1    
    18    9    8 1    
    19   10    9 ar   
    20   14    9 ar   
    21   11   10 ar   
    22   35   10 1    
    23   12   11 ar   
    24   36   11 1    
    25   13   12 ar   
    26   18   12 1    
    27   14   13 ar   
    28   37   13 1    
    29   15   14 1    
    30   16   15 2    
    31   17   16 1    
    32   49   17 1    
    33   50   17 1    
    34   51   17 1    
    35   19   18 1    
    36   20   19 1    
    37   38   19 1    
    38   39   19 1    
    39   21   20 ar   
    40   29   20 ar   
    41   22   21 ar   
    42   40   21 1    
    43   23   22 ar   
    44   41   22 1    
    45   24   23 ar   
    46   28   23 ar   
    47   25   24 ar   
    48   42   24 1    
    49   26   25 ar   
    50   43   25 1    
    51   27   26 ar   
    52   44   26 1    
    53   28   27 ar   
    54   45   27 1    
    55   29   28 ar   
    56   52   30 1    
    57   53   30 1    
    58   54   30 1    
@<TRIPOS>SUBSTRUCTURE
     1 0T7803      1 GROUP   
@<TRIPOS>SET

