#    Name: 3rmf_20Z_1_INTS_M
#    Modification time : Tue Mar 25 11:41:45 2014

@<TRIPOS>MOLECULE
3rmf_20Z_1_INTS_M
   61     0     9     0     0
SMALL
NO_CHARGES


@<TRIPOS>ATOM
      1 N          91.3400   82.6030  -52.1900 N.am      2 SEC2        0.0000 
      2 N          92.3330   81.9310  -51.0810 N.am      8 SEL2        0.0000 
      3 N          90.3470   83.2750  -53.2990 N.am      5 SEP2        0.0000 
      4 O          93.8120   81.8835  -53.7635 O.2       1 ALC1        0.0000 
      5 O          93.8170   81.0600  -52.6350 O.2       7 ALL1        0.0000 
      6 O          93.8070   82.7070  -54.8920 O.2       4 ALP1        0.0000 
      7 O          88.4830   79.5635  -43.9475 O.2       1 ALC1        0.0000 
      8 O          88.3440   80.8850  -43.3450 O.2       7 ALL1        0.0000 
      9 O          88.6220   78.2420  -44.5500 O.2       4 ALP1        0.0000 
     10 CA         97.6530   79.9425  -47.0860 C.3       3 GLC5        0.0000 
     11 CA         97.5860   78.2770  -47.9830 C.3       9 GLL5        0.0000 
     12 CA         97.7200   81.6080  -46.1890 C.3       6 GLP5        0.0000 
     13 CA         99.6665   78.3185  -48.1975 C.3       3 GLC5        0.0000 
     14 CA        101.7470   78.3600  -48.4120 C.3       6 GLP5        0.0000 
     15 CA         87.8660   83.6505  -49.3850 C.3       3 GLC5        0.0000 
     16 CA         89.3060   83.2070  -47.9660 C.3       9 GLL5        0.0000 
     17 CA         86.4260   84.0940  -50.8040 C.3       6 GLP5        0.0000 
     18 CA         88.9085   79.2125  -46.4590 C.3       3 GLC5        0.0000 
     19 CA         89.7210   81.0190  -46.1950 C.3       9 GLL5        0.0000 
     20 CA         88.0960   77.4060  -46.7230 C.3       6 GLP5        0.0000 
     21 CA         90.3735   79.5290  -48.4980 C.3       3 GLC5        0.0000 
     22 CA         90.5810   81.1970  -47.3070 C.3       9 GLL5        0.0000 
     23 CA         90.1660   77.8610  -49.6890 C.3       6 GLP5        0.0000 
     24 CA         97.3355   75.7905  -47.6580 C.3       3 GLC5        0.0000 
     25 CA         97.2920   76.8860  -45.9240 C.3       9 GLL5        0.0000 
     26 CA         97.3790   74.6950  -49.3920 C.3       6 GLP5        0.0000 
     27 N          86.4415   80.0005  -46.2940 N.am      2 SEC2        0.0000 
     28 N          86.4360   80.9060  -45.0360 N.am      8 SEL2        0.0000 
     29 N          86.4470   79.0950  -47.5520 N.am      5 SEP2        0.0000 
     30 CA         93.3650   82.4015  -47.9805 C.3       3 GLC5        0.0000 
     31 CA         93.1570   80.7740  -48.9260 C.3       9 GLL5        0.0000 
     32 CA         93.5730   84.0290  -47.0350 C.3       6 GLP5        0.0000 
     33 CA         95.1345   81.5025  -48.1865 C.3       3 GLC5        0.0000 
     34 CA         97.1120   82.2310  -47.4470 C.3       6 GLP5        0.0000 
     35 CA         94.3945   82.2075  -50.0480 C.3       3 GLC5        0.0000 
     36 CA         95.6320   83.6410  -51.1700 C.3       6 GLP5        0.0000 
     37 CA         92.3680   79.6285  -50.2905 C.3       3 GLC5        0.0000 
     38 CA         91.5790   78.4830  -51.6550 C.3       6 GLP5        0.0000 
     39 CA         94.6700   82.2025  -51.0393 C.3       3 GLC5        0.0000 
     40 CA         94.0050   80.4030  -50.3860 C.3       9 GLL5        0.0000 
     41 CA         92.6435   79.6235  -51.2818 C.3       3 GLC5        0.0000 
     42 CA         93.4110   81.1250  -51.4310 C.3       9 GLL5        0.0000 
     43 CA         96.7207   80.5652  -48.3490 C.3       3 GLC5        0.0000 
     44 CA         95.6260   78.8680  -49.3830 C.3       9 GLL5        0.0000 
     45 CA         94.5080   77.2055  -50.4763 C.3       3 GLC5        0.0000 
     46 CA         93.8120   75.9130  -52.0190 C.3       6 GLP5        0.0000 
     47 CA         97.3443   76.6495  -48.9715 C.3       3 GLC5        0.0000 
     48 CA         97.0330   78.9310  -49.1190 C.3       9 GLL5        0.0000 
     49 CA         96.3946   76.2559  -48.6185 C.3       3 GLC5        0.0000 
     50 CA         96.7540   77.5440  -47.0780 C.3       9 GLL5        0.0000 
     51 CA         87.2092   81.8544  -47.6044 C.3       3 GLC5        0.0000 
     52 CA         85.6520   81.1830  -48.5180 C.3       6 GLP5        0.0000 
     53 CA         91.8926   83.0023  -47.3670 C.3       3 GLC5        0.0000 
     54 CA         90.3810   82.3010  -48.2160 C.3       9 GLL5        0.0000 
     55 CA         98.2320   75.9720  -44.1197 C.3       3 GLC5        0.0000 
     56 CA         99.5970   75.4190  -42.7600 C.3       6 GLP5        0.0000 
     57 CA         96.6506   79.1809  -45.8930 C.3       3 GLC5        0.0000 
     58 CA         96.6360   81.1660  -45.2210 C.3       6 GLP5        0.0000 
     59 CA         94.1645   74.8427  -47.1457 C.3       3 GLC5        0.0000 
     60 CA         94.4900   76.7350  -46.4290 C.3       9 GLL5        0.0000 
     61 CA         93.5610   73.2740  -48.4330 C.3       6 GLP5        0.0000 
@<TRIPOS>BOND
@<TRIPOS>SUBSTRUCTURE
     1 ALC1        4 GROUP        1 X    ALC  0     ROOT ALC X 1
     2 SEC2        1 GROUP        1 X    SEC  0     **** SEC X 2
     3 GLC5       10 GROUP        1 X    GLC  0     **** GLC X 6
     4 ALP1        6 GROUP        1 Y    ALP  0     ROOT ALP Y 8
     5 SEP2        3 GROUP        1 Y    SEP  0     **** SEP Y 9
     6 GLP5       12 GROUP        1 Y    GLP  0     **** GLP Y 13
     7 ALL1        5 GROUP        1 Z    ALL  0     ROOT ALL Z 15
     8 SEL2        2 GROUP        1 Z    SEL  0     **** SEL Z 16
     9 GLL5       11 GROUP        1 Z    GLL  0     **** GLL Z 20
@<TRIPOS>SET

