#    Name: 3rmf_20Z_1_ligand
#    Modification time : Tue Mar 25 11:41:45 2014

@<TRIPOS>MOLECULE
3rmf_20Z_1_ligand
   45    48     1     0     0
SMALL
NO_CHARGES


@<TRIPOS>ATOM
      1 N01        92.3330   81.9310  -51.0810 N.2       1 20Z496      0.0000 
      2 N02        91.1190   82.5390  -49.2630 N.pl3     1 20Z496      0.0000 
      3 N03        93.8170   81.0600  -52.6350 N.pl3     1 20Z496      0.0000 
      4 N04        88.3440   80.8850  -43.3450 N.pl3     1 20Z496      0.0000 
      5 C05        94.0050   80.4030  -50.3860 C.2       1 20Z496      0.0000 
      6 C06        93.4110   81.1250  -51.4310 C.2       1 20Z496      0.0000 
      7 C07        92.0940   81.8390  -49.7920 C.2       1 20Z496      0.0000 
      8 C08        90.3810   82.3010  -48.2160 C.ar      1 20Z496      0.0000 
      9 C09        95.1050   79.5260  -50.4940 C.2       1 20Z496      0.0000 
     10 C10        95.6260   78.8680  -49.3830 C.ar      1 20Z496      0.0000 
     11 C11        97.0330   78.9310  -49.1190 C.ar      1 20Z496      0.0000 
     12 C12        97.5860   78.2770  -47.9830 C.ar      1 20Z496      0.0000 
     13 C13        96.7540   77.5440  -47.0780 C.ar      1 20Z496      0.0000 
     14 C14        95.3230   77.4670  -47.3340 C.ar      1 20Z496      0.0000 
     15 C15        94.7820   78.1280  -48.4840 C.ar      1 20Z496      0.0000 
     16 C16        89.3060   83.2070  -47.9660 C.ar      1 20Z496      0.0000 
     17 C17        88.4520   83.0260  -46.8570 C.ar      1 20Z496      0.0000 
     18 C18        88.6540   81.9350  -45.9700 C.ar      1 20Z496      0.0000 
     19 C19        89.7210   81.0190  -46.1950 C.ar      1 20Z496      0.0000 
     20 C20        90.5810   81.1970  -47.3070 C.ar      1 20Z496      0.0000 
     21 C21        97.2920   76.8860  -45.9240 C.ar      1 20Z496      0.0000 
     22 C22        96.4420   76.1640  -45.0350 C.ar      1 20Z496      0.0000 
     23 C23        95.0460   76.0880  -45.2880 C.ar      1 20Z496      0.0000 
     24 C24        94.4900   76.7350  -46.4290 C.ar      1 20Z496      0.0000 
     25 O25        95.6420   79.3590  -51.5800 O.2       1 20Z496      0.0000 
     26 O26        86.4360   80.9060  -45.0360 O.2       1 20Z496      0.0000 
     27 O27        87.0760   82.9980  -44.1050 O.2       1 20Z496      0.0000 
     28 S28        93.1570   80.7740  -48.9260 S.3       1 20Z496      0.0000 
     29 S29        87.5530   81.7090  -44.5850 S.o2      1 20Z496      0.0000 
     30 H          90.8845   83.4991  -49.8025 H         1 20Z496      0.0000 
     31 H          93.6513   81.8686  -53.1996 H         1 20Z496      0.0000 
     32 H          94.2636   80.2064  -52.9033 H         1 20Z496      0.0000 
     33 H          88.3004   79.8867  -43.3824 H         1 20Z496      0.0000 
     34 H          88.8005   81.4532  -42.6604 H         1 20Z496      0.0000 
     35 H          97.6395   79.4503  -49.7537 H         1 20Z496      0.0000 
     36 H          98.5925   78.3292  -47.8072 H         1 20Z496      0.0000 
     37 H          93.7788   78.0742  -48.6709 H         1 20Z496      0.0000 
     38 H          89.1589   83.9953  -48.6032 H         1 20Z496      0.0000 
     39 H          87.6853   83.6792  -46.6882 H         1 20Z496      0.0000 
     40 H          89.8628   80.2395  -45.5569 H         1 20Z496      0.0000 
     41 H          91.3477   80.5492  -47.4763 H         1 20Z496      0.0000 
     42 H          98.2941   76.9364  -45.7391 H         1 20Z496      0.0000 
     43 H          96.8385   75.7031  -44.2184 H         1 20Z496      0.0000 
     44 H          94.4403   75.5705  -44.6536 H         1 20Z496      0.0000 
     45 H          93.4857   76.6776  -46.6058 H         1 20Z496      0.0000 
@<TRIPOS>BOND
     1    6    1 1    
     2    7    1 2    
     3    7    2 1    
     4    8    2 1    
     5   30    2 1    
     6    6    3 1    
     7   31    3 1    
     8   32    3 1    
     9   29    4 1    
    10   33    4 1    
    11   34    4 1    
    12    6    5 2    
    13    9    5 1    
    14   28    5 1    
    15   28    7 1    
    16   16    8 ar   
    17   20    8 ar   
    18   10    9 1    
    19   25    9 2    
    20   11   10 ar   
    21   15   10 ar   
    22   12   11 ar   
    23   35   11 1    
    24   13   12 ar   
    25   36   12 1    
    26   14   13 ar   
    27   21   13 ar   
    28   15   14 ar   
    29   24   14 ar   
    30   37   15 1    
    31   17   16 ar   
    32   38   16 1    
    33   18   17 ar   
    34   39   17 1    
    35   19   18 ar   
    36   29   18 1    
    37   20   19 ar   
    38   40   19 1    
    39   41   20 1    
    40   22   21 ar   
    41   42   21 1    
    42   23   22 ar   
    43   43   22 1    
    44   24   23 ar   
    45   44   23 1    
    46   45   24 1    
    47   29   26 2    
    48   29   27 2    
@<TRIPOS>SUBSTRUCTURE
     1 20Z496      1 GROUP   
@<TRIPOS>SET

