#    Name: 3cpb_C92_2_INTS_M
#    Modification time : Mon Mar 24 22:09:05 2014

@<TRIPOS>MOLECULE
3cpb_C92_2_INTS_M
   86     0     9     0     0
SMALL
NO_CHARGES


@<TRIPOS>ATOM
      1 CA         31.4030    3.2290    9.4880 C.3       3 GLC5        0.0000 
      2 CA         29.7070    2.4260   10.5930 C.3       9 GLL5        0.0000 
      3 CA         33.0990    4.0320    8.3830 C.3       6 GLP5        0.0000 
      4 CA         27.6420    5.3850    8.6925 C.3       3 GLC5        0.0000 
      5 CA         28.2520    4.2690   10.1280 C.3       9 GLL5        0.0000 
      6 CA         27.0320    6.5010    7.2570 C.3       6 GLP5        0.0000 
      7 CA         29.4945    5.5540   12.4600 C.3       3 GLC5        0.0000 
      8 CA         28.2660    4.0690   11.6510 C.3       9 GLL5        0.0000 
      9 CA         30.7230    7.0390   13.2690 C.3       6 GLP5        0.0000 
     10 CA         28.0130    0.9980   12.5630 C.3       3 GLC5        0.0000 
     11 CA         28.9730    2.7270   11.8990 C.3       9 GLL5        0.0000 
     12 CA         27.0530   -0.7310   13.2270 C.3       6 GLP5        0.0000 
     13 CA         31.0405    4.6425   13.2545 C.3       3 GLC5        0.0000 
     14 CA         29.9940    2.8980   13.0220 C.3       9 GLL5        0.0000 
     15 CA         32.0870    6.3870   13.4870 C.3       6 GLP5        0.0000 
     16 CA         31.8325    0.8080   14.0785 C.3       3 GLC5        0.0000 
     17 CA         29.9870    1.6690   13.9260 C.3       9 GLL5        0.0000 
     18 CA         33.6780   -0.0530   14.2310 C.3       6 GLP5        0.0000 
     19 CA         28.5200    0.4690   13.5765 C.3       3 GLC5        0.0000 
     20 O          31.1620    1.2755   15.6915 O.2       1 ALC1        0.0000 
     21 O          30.0880    2.0680   15.3370 O.2       7 ALL1        0.0000 
     22 O          32.2360    0.4830   16.0460 O.2       4 ALP1        0.0000 
     23 N          26.8645    1.7100   15.1450 N.am      2 SEC2        0.0000 
     24 N          27.8920    2.5770   15.6150 N.am      8 SEL2        0.0000 
     25 N          25.8370    0.8430   14.6750 N.am      5 SEP2        0.0000 
     26 CA         26.4455    2.9550   17.2175 C.3       3 GLC5        0.0000 
     27 CA         28.2890    2.7840   18.4260 C.3       9 GLL5        0.0000 
     28 CA         24.6020    3.1260   16.0090 C.3       6 GLP5        0.0000 
     29 CA         31.3790    1.3250   18.8760 C.3       3 GLC5        0.0000 
     30 CA         30.6150    3.2010   17.9340 C.3       9 GLL5        0.0000 
     31 CA         32.1430   -0.5510   19.8180 C.3       6 GLP5        0.0000 
     32 CA         31.4300    4.5670   16.4330 C.3       3 GLC5        0.0000 
     33 CA         32.2450    5.9330   14.9320 C.3       6 GLP5        0.0000 
     34 CA         29.0460    2.4270   22.9100 C.3       3 GLC5        0.0000 
     35 CA         30.0680    3.7910   21.6590 C.3       9 GLL5        0.0000 
     36 CA         28.0240    1.0630   24.1610 C.3       6 GLP5        0.0000 
     37 CA         29.0185    4.6950   22.8935 C.3       3 GLC5        0.0000 
     38 CA         27.9690    5.5990   24.1280 C.3       6 GLP5        0.0000 
     39 CA         31.2045    4.0705   23.4335 C.3       3 GLC5        0.0000 
     40 CA         32.3410    4.3500   25.2080 C.3       6 GLP5        0.0000 
     41 CA         29.4195    5.0325   19.3700 C.3       3 GLC5        0.0000 
     42 CA         28.4940    3.0980   19.7650 C.3       9 GLL5        0.0000 
     43 CA         30.3450    6.9670   18.9750 C.3       6 GLP5        0.0000 
     44 O          27.7190    5.4265   20.9325 O.2       1 ALC1        0.0000 
     45 O          26.7060    4.1350   21.0980 O.2       7 ALL1        0.0000 
     46 O          28.7320    6.7180   20.7670 O.2       4 ALP1        0.0000 
     47 CA         26.5590    2.0660   23.3505 C.3       3 GLC5        0.0000 
     48 CA         25.0940    3.0690   22.5400 C.3       9 GLL5        0.0000 
     49 CA         24.8390    2.8110   25.2575 C.3       3 GLC5        0.0000 
     50 CA         23.9860    3.1980   23.3720 C.3       9 GLL5        0.0000 
     51 CA         25.6920    2.4240   27.1430 C.3       6 GLP5        0.0000 
     52 CA         22.5920    3.0405   21.8635 C.3       3 GLC5        0.0000 
     53 CA         21.1980    2.8830   20.3550 C.3       6 GLP5        0.0000 
     54 CA         22.2075    6.0085   22.7120 C.3       3 GLC5        0.0000 
     55 CA         23.4360    4.4600   23.5710 C.3       9 GLL5        0.0000 
     56 CA         20.9790    7.5570   21.8530 C.3       6 GLP5        0.0000 
     57 CA         23.2225    4.4325   21.5425 C.3       3 GLC5        0.0000 
     58 CA         23.0090    4.4050   19.5140 C.3       6 GLP5        0.0000 
     59 O          21.2830    5.4850   24.3485 O.2       1 ALC1        0.0000 
     60 O          22.3760    4.6030   24.3620 O.2       7 ALL1        0.0000 
     61 O          20.1900    6.3670   24.3350 O.2       4 ALP1        0.0000 
     62 N          23.2885    6.8185   23.2795 N.am      2 SEC2        0.0000 
     63 N          23.9740    5.5350   22.9630 N.am      8 SEL2        0.0000 
     64 N          22.6030    8.1020   23.5960 N.am      5 SEP2        0.0000 
     65 CA         24.8955    7.1545   23.2740 C.3       3 GLC5        0.0000 
     66 CA         25.0300    5.4340   22.1620 C.3       9 GLL5        0.0000 
     67 CA         24.7610    8.8750   24.3860 C.3       6 GLP5        0.0000 
     68 CA         23.5345    6.8215   21.3605 C.3       3 GLC5        0.0000 
     69 CA         22.0390    8.2090   20.5590 C.3       6 GLP5        0.0000 
     70 CA         29.5335    4.9875    8.8950 C.3       3 GLC5        0.0000 
     71 CA         30.5800    6.3750    7.9530 C.3       6 GLP5        0.0000 
     72 CA         27.3520    5.9990   11.1773 C.3       3 GLC5        0.0000 
     73 CA         26.4450    7.8290   11.4650 C.3       6 GLP5        0.0000 
     74 CA         27.8532    4.4988   17.0078 C.3       3 GLC5        0.0000 
     75 CA         29.3360    2.8430   17.5110 C.3       9 GLL5        0.0000 
     76 CA         26.8940    6.1840   16.0470 C.3       6 GLP5        0.0000 
     77 CA         30.1602    4.9945   18.3488 C.3       3 GLC5        0.0000 
     78 CA         32.6380    4.0602   18.7037 C.3       3 GLC5        0.0000 
     79 CA         30.8330    3.5020   19.2770 C.3       9 GLL5        0.0000 
     80 CA         34.5520    4.7690   18.8020 C.3       6 GLP5        0.0000 
     81 CA         31.4391    2.3644   21.1944 C.3       3 GLC5        0.0000 
     82 CA         32.6910    1.0950   21.6910 C.3       6 GLP5        0.0000 
     83 CA         30.2661    5.3004   19.8364 C.3       3 GLC5        0.0000 
     84 CA         26.5830    5.0665   23.1616 C.3       3 GLC5        0.0000 
     85 CA         25.6340    4.1990   21.9170 C.3       9 GLL5        0.0000 
     86 CA         24.1030    4.4695   20.8546 C.3       3 GLC5        0.0000 
@<TRIPOS>BOND
@<TRIPOS>SUBSTRUCTURE
     1 ALC1       20 GROUP        1 X    ALC  0     ROOT ALC X 1
     2 SEC2       23 GROUP        1 X    SEC  0     **** SEC X 2
     3 GLC5        1 GROUP        1 X    GLC  0     **** GLC X 6
     4 ALP1       22 GROUP        1 Y    ALP  0     ROOT ALP Y 8
     5 SEP2       25 GROUP        1 Y    SEP  0     **** SEP Y 9
     6 GLP5        3 GROUP        1 Y    GLP  0     **** GLP Y 13
     7 ALL1       21 GROUP        1 Z    ALL  0     ROOT ALL Z 15
     8 SEL2       24 GROUP        1 Z    SEL  0     **** SEL Z 16
     9 GLL5        2 GROUP        1 Z    GLL  0     **** GLL Z 20
@<TRIPOS>SET

