#    Name: 3cpb_C92_2_ligand
#    Modification time : Mon Mar 24 22:09:05 2014

@<TRIPOS>MOLECULE
3cpb_C92_2_ligand
   53    55     1     0     0
SMALL
NO_CHARGES


@<TRIPOS>ATOM
      1 C23        29.7070    2.4260   10.5930 C.3       1 C922        0.0000 
      2 C24        28.7220    2.9310    9.5460 C.3       1 C922        0.0000 
      3 C25        28.2520    4.2690   10.1280 C.3       1 C922        0.0000 
      4 C26        28.2660    4.0690   11.6510 C.3       1 C922        0.0000 
      5 C12        28.9730    2.7270   11.8990 C.3       1 C922        0.0000 
      6 C13        29.9940    2.8980   13.0220 C.3       1 C922        0.0000 
      7 C11        29.9870    1.6690   13.9260 C.3       1 C922        0.0000 
      8 N10        30.0880    2.0680   15.3370 N.am      1 C922        0.0000 
      9 C8         29.0400    2.4880   16.0510 C.2       1 C922        0.0000 
     10 O9         27.8920    2.5770   15.6150 O.2       1 C922        0.0000 
     11 C4         29.3360    2.8430   17.5110 C.ar      1 C922        0.0000 
     12 C3         28.2890    2.7840   18.4260 C.ar      1 C922        0.0000 
     13 C5         30.6150    3.2010   17.9340 C.ar      1 C922        0.0000 
     14 C6         30.8330    3.5020   19.2770 C.ar      1 C922        0.0000 
     15 C7         29.7800    3.4510   20.1960 C.ar      1 C922        0.0000 
     16 C14        30.0680    3.7910   21.6590 C.3       1 C922        0.0000 
     17 C2         28.4940    3.0980   19.7650 C.ar      1 C922        0.0000 
     18 C1         27.2840    2.9900   20.7080 C.2       1 C922        0.0000 
     19 O15        26.9000    1.8690   21.0430 O.2       1 C922        0.0000 
     20 N16        26.7060    4.1350   21.0980 N.am      1 C922        0.0000 
     21 C17        25.6340    4.1990   21.9170 C.ar      1 C922        0.0000 
     22 C22        25.0940    3.0690   22.5400 C.ar      1 C922        0.0000 
     23 C21        23.9860    3.1980   23.3720 C.ar      1 C922        0.0000 
     24 C20        23.4360    4.4600   23.5710 C.ar      1 C922        0.0000 
     25 N27        22.3760    4.6030   24.3620 N.pl3     1 C922        0.0000 
     26 N19        23.9740    5.5350   22.9630 N.ar      1 C922        0.0000 
     27 C18        25.0300    5.4340   22.1620 C.ar      1 C922        0.0000 
     28 H          30.6001    2.9851   10.5476 H         1 C922        0.0000 
     29 H          29.8412    1.3850   10.4898 H         1 C922        0.0000 
     30 H          27.9016    2.2680    9.4708 H         1 C922        0.0000 
     31 H          29.2217    3.0979    8.6291 H         1 C922        0.0000 
     32 H          27.2596    4.4729    9.8039 H         1 C922        0.0000 
     33 H          28.9383    5.0371    9.8626 H         1 C922        0.0000 
     34 H          27.2637    4.0175   12.0146 H         1 C922        0.0000 
     35 H          28.8218    4.8561   12.1104 H         1 C922        0.0000 
     36 H          28.2827    1.9890   12.1096 H         1 C922        0.0000 
     37 H          29.7408    3.7769   13.6068 H         1 C922        0.0000 
     38 H          30.9830    3.0235   12.5922 H         1 C922        0.0000 
     39 H          30.8283    1.0284   13.6449 H         1 C922        0.0000 
     40 H          29.0613    1.1137   13.7472 H         1 C922        0.0000 
     41 H          31.0477    2.0004   15.7505 H         1 C922        0.0000 
     42 H          27.3469    2.5031   18.1056 H         1 C922        0.0000 
     43 H          31.3872    3.2424   17.2638 H         1 C922        0.0000 
     44 H          31.7761    3.7643   19.5976 H         1 C922        0.0000 
     45 H          27.1162    5.0571   20.7407 H         1 C922        0.0000 
     46 H          25.5167    2.1474   22.3817 H         1 C922        0.0000 
     47 H          23.5832    2.3788   23.8291 H         1 C922        0.0000 
     48 H          22.4953    4.3187   25.3133 H         1 C922        0.0000 
     49 H          21.5555    4.9819   23.9340 H         1 C922        0.0000 
     50 H          25.4370    6.2756   21.6938 H         1 C922        0.0000 
     51 H          30.7528    3.1790   22.0547 H         1 C922        0.0000 
     52 H          30.4137    4.7236   21.7624 H         1 C922        0.0000 
     53 H          29.2473    3.7180   22.2257 H         1 C922        0.0000 
@<TRIPOS>BOND
     1    2    1 1    
     2    5    1 1    
     3   28    1 1    
     4   29    1 1    
     5    3    2 1    
     6   30    2 1    
     7   31    2 1    
     8    4    3 1    
     9   32    3 1    
    10   33    3 1    
    11    5    4 1    
    12   34    4 1    
    13   35    4 1    
    14    6    5 1    
    15   36    5 1    
    16    7    6 1    
    17   37    6 1    
    18   38    6 1    
    19    8    7 1    
    20   39    7 1    
    21   40    7 1    
    22    9    8 am   
    23   41    8 1    
    24   10    9 2    
    25   11    9 1    
    26   12   11 ar   
    27   13   11 ar   
    28   17   12 ar   
    29   42   12 1    
    30   14   13 ar   
    31   43   13 1    
    32   15   14 ar   
    33   44   14 1    
    34   16   15 1    
    35   17   15 ar   
    36   51   16 1    
    37   52   16 1    
    38   53   16 1    
    39   18   17 1    
    40   19   18 2    
    41   20   18 am   
    42   21   20 1    
    43   45   20 1    
    44   22   21 ar   
    45   27   21 ar   
    46   23   22 ar   
    47   46   22 1    
    48   24   23 ar   
    49   47   23 1    
    50   25   24 1    
    51   26   24 ar   
    52   48   25 1    
    53   49   25 1    
    54   27   26 ar   
    55   50   27 1    
@<TRIPOS>SUBSTRUCTURE
     1 C922        1 GROUP   
@<TRIPOS>SET

