#    Name: 4EAR_1_CAVITY_N1_ALL.mol2
#    Modification time : Mon Mar 10 16:34:35 2014

@<TRIPOS>MOLECULE
4EAR_1_CAVITY_N1_ALL.mol2
   53     0     5     0     0
SMALL
NO_CHARGES


@<TRIPOS>ATOM
      1 CA        -15.6771   31.1174  -50.8835 C.3       4 GLY6        0.0000 
      2 CA        -16.6093   31.3316  -49.7280 C.3       4 GLY6        0.0000 
      3 N         -17.5414   31.5458  -48.5725 N.2       2 ALA2        0.0000 
      4 CA        -16.6434   30.1382  -51.4815 C.3       4 GLY6        0.0000 
      5 CA        -17.5755   30.3524  -50.3260 C.3       4 GLY6        0.0000 
      6 DU        -18.5077   30.5666  -49.1704 H         5 CUB7        0.0000 
      7 N         -19.4398   30.7808  -48.0149 N.2       2 ALA2        0.0000 
      8 CA        -18.5418   29.3732  -50.9239 C.3       4 GLY6        0.0000 
      9 N         -19.4739   29.5874  -49.7684 N.2       2 ALA2        0.0000 
     10 O         -20.4061   29.8016  -48.6129 O.2       2 ALA2        0.0000 
     11 N         -21.3723   28.8224  -49.2108 N.2       2 ALA2        0.0000 
     12 OG        -14.0079   32.1741  -47.7856 O.2       1 SER1        0.0000 
     13 N         -14.9400   32.3883  -46.6301 N.2       2 ALA2        0.0000 
     14 O         -15.8722   32.6025  -45.4746 O.2       2 ALA2        0.0000 
     15 CZ        -14.0420   30.9806  -49.5391 C.ar      3 PHE5        0.0000 
     16 OG        -14.9741   31.1949  -48.3836 O.2       1 SER1        0.0000 
     17 DU        -15.9063   31.4091  -47.2281 H         5 CUB7        0.0000 
     18 O         -16.8384   31.6233  -46.0725 O.2       2 ALA2        0.0000 
     19 CZ        -15.0082   30.0014  -50.1370 C.ar      3 PHE5        0.0000 
     20 DU        -15.9404   30.2156  -48.9815 H         5 CUB7        0.0000 
     21 DU        -16.8725   30.4299  -47.8260 H         5 CUB7        0.0000 
     22 CA        -17.8047   30.6441  -46.6705 C.3       4 GLY6        0.0000 
     23 CZ        -15.9745   29.0222  -50.7350 C.ar      3 PHE5        0.0000 
     24 CZ        -16.9066   29.2364  -49.5795 C.ar      3 PHE5        0.0000 
     25 CZ        -17.8387   29.4506  -48.4239 C.ar      3 PHE5        0.0000 
     26 CA        -18.7709   29.6649  -47.2684 C.3       4 GLY6        0.0000 
     27 CZ        -18.8050   28.4714  -49.0219 C.ar      3 PHE5        0.0000 
     28 N         -19.7371   28.6857  -47.8664 N.2       2 ALA2        0.0000 
     29 CZ        -19.7712   27.4922  -49.6198 C.ar      3 PHE5        0.0000 
     30 O         -20.7034   27.7064  -48.4643 O.2       2 ALA2        0.0000 
     31 CA        -14.3052   30.0789  -47.6371 C.3       4 GLY6        0.0000 
     32 CA        -15.2373   30.2931  -46.4816 C.3       4 GLY6        0.0000 
     33 CZ        -14.3393   28.8855  -49.3905 C.ar      3 PHE5        0.0000 
     34 CA        -15.2714   29.0997  -48.2350 C.3       4 GLY6        0.0000 
     35 CA        -16.2036   29.3139  -47.0795 C.3       4 GLY6        0.0000 
     36 CA        -17.1357   29.5281  -45.9240 C.3       4 GLY6        0.0000 
     37 CZ        -15.3055   27.9063  -49.9885 C.ar      3 PHE5        0.0000 
     38 CZ        -16.2377   28.1205  -48.8330 C.ar      3 PHE5        0.0000 
     39 CA        -17.1698   28.3347  -47.6775 C.3       4 GLY6        0.0000 
     40 CA        -18.1020   28.5489  -46.5219 C.3       4 GLY6        0.0000 
     41 N         -19.0682   27.5697  -47.1199 N.2       2 ALA2        0.0000 
     42 CA        -17.2441   33.6409  -48.7210 C.3       4 GLY6        0.0000 
     43 CA        -16.3461   32.2333  -51.6300 C.3       4 GLY6        0.0000 
     44 CA        -17.2782   32.4475  -50.4745 C.3       4 GLY6        0.0000 
     45 CA        -18.2104   32.6617  -49.3190 C.3       4 GLY6        0.0000 
     46 CA        -19.1766   31.6825  -49.9169 C.3       4 GLY6        0.0000 
     47 OG        -20.1429   30.7033  -50.5149 O.2       1 SER1        0.0000 
     48 OG        -15.6090   33.5042  -47.3766 O.2       1 SER1        0.0000 
     49 N         -16.5411   33.7184  -46.2211 N.2       2 ALA2        0.0000 
     50 OG        -14.7109   32.0966  -50.2856 O.2       1 SER1        0.0000 
     51 OG        -15.6430   32.3108  -49.1301 O.2       1 SER1        0.0000 
     52 OG        -16.5752   32.5250  -47.9746 O.2       1 SER1        0.0000 
     53 N         -17.5073   32.7392  -46.8190 N.2       2 ALA2        0.0000 
@<TRIPOS>BOND
@<TRIPOS>SUBSTRUCTURE
     1 SER1       12 GROUP   
     2 ALA2        3 GROUP   
     3 PHE5       15 GROUP   
     4 GLY6        1 GROUP   
     5 CUB7        6 GROUP   
@<TRIPOS>SET

