#    Name: 4ear_IM5_1_INTS_M
#    Modification time : Mon Apr  7 23:29:40 2014

@<TRIPOS>MOLECULE
4ear_IM5_1_INTS_M
   57     0     9     0     0
SMALL
NO_CHARGES


@<TRIPOS>ATOM
      1 O         -20.1550   25.1590  -47.0400 O.2       1 ALC1        0.0000 
      2 O         -19.8460   26.4910  -47.3730 O.2       7 ALL1        0.0000 
      3 O         -20.4640   23.8270  -46.7070 O.2       4 ALP1        0.0000 
      4 O         -18.7840   25.1685  -45.2270 O.2       1 ALC1        0.0000 
      5 O         -18.4760   26.4840  -45.4810 O.2       7 ALL1        0.0000 
      6 O         -19.0920   23.8530  -44.9730 O.2       4 ALP1        0.0000 
      7 CA        -19.2240   29.5180  -45.7870 C.3       3 GLC5        0.0000 
      8 CA        -19.1600   29.1090  -47.8200 C.3       9 GLL5        0.0000 
      9 CA        -19.2880   29.9270  -43.7540 C.3       6 GLP5        0.0000 
     10 CA        -21.9530   28.6805  -48.4260 C.3       3 GLC5        0.0000 
     11 CA        -20.0320   28.4690  -48.6590 C.3       9 GLL5        0.0000 
     12 CA        -23.8740   28.8920  -48.1930 C.3       6 GLP5        0.0000 
     13 N         -21.9750   26.8145  -50.4220 N.am      2 SEC2        0.0000 
     14 N         -21.1760   26.5190  -49.1820 N.am      8 SEL2        0.0000 
     15 N         -22.7740   27.1100  -51.6620 N.am      5 SEP2        0.0000 
     16 O         -21.4460   29.3500  -50.5695 O.2       1 ALC1        0.0000 
     17 O         -20.3890   29.3620  -49.6030 O.2       7 ALL1        0.0000 
     18 O         -22.5030   29.3380  -51.5360 O.2       4 ALP1        0.0000 
     19 CA        -19.7050   32.6465  -49.4515 C.3       3 GLC5        0.0000 
     20 CA        -19.7760   30.5280  -49.3530 C.3       9 GLL5        0.0000 
     21 CA        -19.6340   34.7650  -49.5500 C.3       6 GLP5        0.0000 
     22 CA        -19.4005   30.5710  -51.2740 C.3       3 GLC5        0.0000 
     23 CA        -19.0250   30.6140  -53.1950 C.3       6 GLP5        0.0000 
     24 CA        -18.8780   33.1085  -48.5855 C.3       3 GLC5        0.0000 
     25 CA        -18.1220   31.4520  -47.6210 C.3       9 GLL5        0.0000 
     26 CA        -20.2110   31.7925  -47.3005 C.3       3 GLC5        0.0000 
     27 CA        -22.3000   32.1330  -46.9800 C.3       6 GLP5        0.0000 
     28 CA        -18.7050   30.6895  -45.6875 C.3       3 GLC5        0.0000 
     29 CA        -13.0025   30.3475  -47.0655 C.3       3 GLC5        0.0000 
     30 CA        -14.5440   30.7200  -48.3060 C.3       9 GLL5        0.0000 
     31 CA        -11.4610   29.9750  -45.8250 C.3       6 GLP5        0.0000 
     32 CA        -13.0585   29.6955  -48.9150 C.3       3 GLC5        0.0000 
     33 CA        -11.5730   28.6710  -49.5240 C.3       6 GLP5        0.0000 
     34 N         -12.5400   31.6555  -47.5960 N.am      2 SEC2        0.0000 
     35 N         -13.8130   31.7610  -47.6080 N.am      8 SEL2        0.0000 
     36 N         -11.2670   31.5500  -47.5840 N.am      5 SEP2        0.0000 
     37 CA        -13.1150   30.4835  -49.9940 C.3       3 GLC5        0.0000 
     38 CA        -14.9880   31.1760  -49.7040 C.3       9 GLL5        0.0000 
     39 CA        -11.2420   29.7910  -50.2840 C.3       6 GLP5        0.0000 
     40 CA        -15.8265   28.3585  -51.1685 C.3       3 GLC5        0.0000 
     41 CA        -14.8610   30.0210  -50.6510 C.3       9 GLL5        0.0000 
     42 CA        -16.7920   26.6960  -51.6860 C.3       6 GLP5        0.0000 
     43 CA        -14.5465   29.8035  -52.7425 C.3       3 GLC5        0.0000 
     44 CA        -14.2320   29.5860  -54.8340 C.3       6 GLP5        0.0000 
     45 CA        -13.1455   29.8985  -51.1515 C.3       3 GLC5        0.0000 
     46 CA        -11.4300   29.7760  -51.6520 C.3       6 GLP5        0.0000 
     47 CA        -18.0725   33.1645  -49.5405 C.3       3 GLC5        0.0000 
     48 CA        -16.5110   31.5640  -49.5310 C.3       9 GLL5        0.0000 
     49 CA        -17.5115   32.2850  -51.0825 C.3       3 GLC5        0.0000 
     50 CA        -18.5120   33.0060  -52.6340 C.3       6 GLP5        0.0000 
     51 CA        -20.8624   31.1331  -47.8410 C.3       3 GLC5        0.0000 
     52 CA        -18.9870   30.3680  -48.2820 C.3       9 GLL5        0.0000 
     53 CA        -14.7528   29.0972  -46.9835 C.3       3 GLC5        0.0000 
     54 CA        -15.9090   30.3670  -47.6320 C.3       9 GLL5        0.0000 
     55 CA        -14.2790   27.6510  -45.9980 C.3       6 GLP5        0.0000 
     56 CA        -15.7317   33.4395  -49.9873 C.3       3 GLC5        0.0000 
     57 CA        -15.7140   35.5090  -50.3570 C.3       6 GLP5        0.0000 
@<TRIPOS>BOND
@<TRIPOS>SUBSTRUCTURE
     1 ALC1        1 GROUP        1 X    ALC  0     ROOT ALC X 1
     2 SEC2       13 GROUP        1 X    SEC  0     **** SEC X 2
     3 GLC5        7 GROUP        1 X    GLC  0     **** GLC X 6
     4 ALP1        3 GROUP        1 Y    ALP  0     ROOT ALP Y 8
     5 SEP2       15 GROUP        1 Y    SEP  0     **** SEP Y 9
     6 GLP5        9 GROUP        1 Y    GLP  0     **** GLP Y 13
     7 ALL1        2 GROUP        1 Z    ALL  0     ROOT ALL Z 15
     8 SEL2       14 GROUP        1 Z    SEL  0     **** SEL Z 16
     9 GLL5        8 GROUP        1 Z    GLL  0     **** GLL Z 20
@<TRIPOS>SET

