#    Name: 4ear_IM5_1_ligand
#    Modification time : Mon Apr  7 23:29:40 2014

@<TRIPOS>MOLECULE
4ear_IM5_1_ligand
   38    40     1     0     0
SMALL
NO_CHARGES


@<TRIPOS>ATOM
      1 N1        -19.8460   26.4910  -47.3730 N.am      1 IM5301      0.0000 
      2 C2        -18.9290   27.1450  -46.5310 C.2       1 IM5301      0.0000 
      3 N2        -18.4760   26.4840  -45.4810 N.pl3     1 IM5301      0.0000 
      4 N3        -18.6000   28.4440  -46.7570 N.2       1 IM5301      0.0000 
      5 C4        -19.1600   29.1090  -47.8200 C.2       1 IM5301      0.0000 
      6 C5        -20.0320   28.4690  -48.6590 C.2       1 IM5301      0.0000 
      7 C6        -20.3920   27.1680  -48.4520 C.2       1 IM5301      0.0000 
      8 O6        -21.1760   26.5190  -49.1820 O.2       1 IM5301      0.0000 
      9 N7        -20.3890   29.3620  -49.6030 N.pl3     1 IM5301      0.0000 
     10 C8        -19.7760   30.5280  -49.3530 C.2       1 IM5301      0.0000 
     11 C9        -18.9870   30.3680  -48.2820 C.2       1 IM5301      0.0000 
     12 N1'       -16.6800   31.5010  -48.0870 N.4       1 IM5301      0.0000 
     13 C10       -18.1220   31.4520  -47.6210 C.3       1 IM5301      0.0000 
     14 C2'       -15.9090   30.3670  -47.6320 C.3       1 IM5301      0.0000 
     15 C3'       -14.5440   30.7200  -48.3060 C.3       1 IM5301      0.0000 
     16 O3'       -13.8130   31.7610  -47.6080 O.3       1 IM5301      0.0000 
     17 C4'       -14.9880   31.1760  -49.7040 C.3       1 IM5301      0.0000 
     18 C5'       -14.8610   30.0210  -50.6510 C.3       1 IM5301      0.0000 
     19 O5'       -15.5840   30.3640  -51.8460 O.3       1 IM5301      0.0000 
     20 C6'       -16.5110   31.5640  -49.5310 C.3       1 IM5301      0.0000 
     21 H         -20.1035   25.5179  -47.1818 H         1 IM5301      0.0000 
     22 H         -17.8203   26.9708  -44.9039 H         1 IM5301      0.0000 
     23 H         -18.8299   25.5568  -45.3585 H         1 IM5301      0.0000 
     24 H         -20.9927   29.1858  -50.3429 H         1 IM5301      0.0000 
     25 H         -19.8853   31.3459  -49.8603 H         1 IM5301      0.0000 
     26 H         -16.2194   32.4160  -47.6516 H         1 IM5301      0.0000 
     27 H         -18.1448   31.2965  -46.5239 H         1 IM5301      0.0000 
     28 H         -18.5968   32.4369  -47.8026 H         1 IM5301      0.0000 
     29 H         -16.2433   29.4602  -48.0389 H         1 IM5301      0.0000 
     30 H         -15.7638   30.3661  -46.5934 H         1 IM5301      0.0000 
     31 H         -14.0030   29.8127  -48.4183 H         1 IM5301      0.0000 
     32 H         -14.4555   32.0086  -49.9980 H         1 IM5301      0.0000 
     33 H         -15.2751   29.1323  -50.1792 H         1 IM5301      0.0000 
     34 H         -13.8067   29.8526  -50.8609 H         1 IM5301      0.0000 
     35 H         -16.6331   32.5430  -49.9117 H         1 IM5301      0.0000 
     36 H         -17.0830   30.8338  -50.0389 H         1 IM5301      0.0000 
     37 H         -14.2714   31.8506  -46.7238 H         1 IM5301      0.0000 
     38 H         -15.1150   31.1687  -52.2101 H         1 IM5301      0.0000 
@<TRIPOS>BOND
     1    2    1 1    
     2    7    1 am   
     3   21    1 1    
     4    3    2 1    
     5    4    2 2    
     6   22    3 1    
     7   23    3 1    
     8    5    4 1    
     9    6    5 2    
    10   11    5 1    
    11    7    6 1    
    12    9    6 1    
    13    8    7 2    
    14   10    9 1    
    15   24    9 1    
    16   11   10 2    
    17   25   10 1    
    18   13   11 1    
    19   13   12 1    
    20   14   12 1    
    21   20   12 1    
    22   26   12 1    
    23   27   13 1    
    24   28   13 1    
    25   15   14 1    
    26   29   14 1    
    27   30   14 1    
    28   16   15 1    
    29   17   15 1    
    30   31   15 1    
    31   37   16 1    
    32   18   17 1    
    33   20   17 1    
    34   32   17 1    
    35   19   18 1    
    36   33   18 1    
    37   34   18 1    
    38   38   19 1    
    39   35   20 1    
    40   36   20 1    
@<TRIPOS>SUBSTRUCTURE
     1 IM5301      1 GROUP   
@<TRIPOS>SET

