#    Name: 2hb8_MVD_1_INTS_M
#    Modification time : Tue Mar 25 15:50:22 2014

@<TRIPOS>MOLECULE
2hb8_MVD_1_INTS_M
  126     0     9     0     0
SMALL
NO_CHARGES


@<TRIPOS>ATOM
      1 N          17.8370   16.6700   35.0470 N.am      2 SEC2        0.0000 
      2 N          16.9190   17.6550   34.6570 N.am      8 SEL2        0.0000 
      3 N          18.7550   15.6850   35.4370 N.am      5 SEP2        0.0000 
      4 O          17.7810   18.5325   33.9670 O.2       1 ALC1        0.0000 
      5 O          16.9190   17.6550   34.6570 O.2       7 ALL1        0.0000 
      6 O          18.6430   19.4100   33.2770 O.2       4 ALP1        0.0000 
      7 N           4.8290   26.6145   36.1235 N.am      2 SEC2        0.0000 
      8 N           4.4660   26.4980   34.7560 N.am      8 SEL2        0.0000 
      9 N           5.1920   26.7310   37.4910 N.am      5 SEP2        0.0000 
     10 O           5.1065   27.6575   34.3935 O.2       1 ALC1        0.0000 
     11 O           4.4660   26.4980   34.7560 O.2       7 ALL1        0.0000 
     12 O           5.7470   28.8170   34.0310 O.2       4 ALP1        0.0000 
     13 CA         14.3405   17.3365   37.5350 C.3       3 GLC5        0.0000 
     14 CA         14.0880   17.5490   35.6650 C.3       9 GLL5        0.0000 
     15 CA         14.5930   17.1240   39.4050 C.3       6 GLP5        0.0000 
     16 CA         15.5575   18.7425   36.4150 C.3       3 GLC5        0.0000 
     17 CA         17.0270   19.9360   37.1650 C.3       6 GLP5        0.0000 
     18 CA         16.0725   15.5295   35.9500 C.3       3 GLC5        0.0000 
     19 CA         14.8130   16.3910   34.8410 C.3       9 GLL5        0.0000 
     20 CA         17.3320   14.6680   37.0590 C.3       6 GLP5        0.0000 
     21 CA         17.1435   15.8020   35.0005 C.3       3 GLC5        0.0000 
     22 CA         15.9050   17.0330   33.8440 C.3       9 GLL5        0.0000 
     23 CA         18.3820   14.5710   36.1570 C.3       6 GLP5        0.0000 
     24 CA         17.0195   15.7390   33.0805 C.3       3 GLC5        0.0000 
     25 CA         18.1340   14.4450   32.3170 C.3       6 GLP5        0.0000 
     26 CA         13.3965   17.6340   32.0420 C.3       3 GLC5        0.0000 
     27 CA         15.2860   18.1480   32.8920 C.3       9 GLL5        0.0000 
     28 CA         11.5070   17.1200   31.1920 C.3       6 GLP5        0.0000 
     29 CA         15.5640   23.8765   33.9105 C.3       3 GLC5        0.0000 
     30 CA         13.8590   23.0110   33.5810 C.3       9 GLL5        0.0000 
     31 CA         17.2690   24.7420   34.2400 C.3       6 GLP5        0.0000 
     32 CA         15.7790   24.0060   32.4460 C.3       3 GLC5        0.0000 
     33 CA         14.1860   23.4420   32.0530 C.3       9 GLL5        0.0000 
     34 CA         17.3720   24.5700   32.8390 C.3       6 GLP5        0.0000 
     35 CA         12.4990   17.8965   32.9495 C.3       3 GLC5        0.0000 
     36 CA         13.4910   18.6730   34.7070 C.3       9 GLL5        0.0000 
     37 CA         14.7920   19.8735   35.7230 C.3       3 GLC5        0.0000 
     38 CA         16.0930   21.0740   36.7390 C.3       6 GLP5        0.0000 
     39 CA         11.5655   23.3780   29.9100 C.3       3 GLC5        0.0000 
     40 CA         12.8560   23.9520   31.2420 C.3       9 GLL5        0.0000 
     41 CA         10.2750   22.8040   28.5780 C.3       6 GLP5        0.0000 
     42 CA         10.6615   25.0360   30.4630 C.3       3 GLC5        0.0000 
     43 CA         11.9740   24.9600   32.1560 C.3       9 GLL5        0.0000 
     44 CA          9.3490   25.1120   28.7700 C.3       6 GLP5        0.0000 
     45 CA         15.0215   25.0435   34.6055 C.3       3 GLC5        0.0000 
     46 CA         13.1790   24.1360   34.3900 C.3       9 GLL5        0.0000 
     47 CA         16.8640   25.9510   34.8210 C.3       6 GLP5        0.0000 
     48 CA         14.4210   22.4760   36.3710 C.3       3 GLC5        0.0000 
     49 CA         12.7490   23.8780   36.0030 C.3       9 GLL5        0.0000 
     50 CA          9.2110   22.2125   33.8595 C.3       3 GLC5        0.0000 
     51 CA         10.6620   23.1600   33.5450 C.3       9 GLL5        0.0000 
     52 CA          7.7600   21.2650   34.1740 C.3       6 GLP5        0.0000 
     53 CA         11.4715   18.7655   33.0355 C.3       3 GLC5        0.0000 
     54 CA         12.1480   19.0770   34.7790 C.3       9 GLL5        0.0000 
     55 CA         10.7950   18.4540   31.2920 C.3       6 GLP5        0.0000 
     56 CA         10.9895   17.6795   35.6200 C.3       3 GLC5        0.0000 
     57 CA          9.8310   16.2820   36.4610 C.3       6 GLP5        0.0000 
     58 CA         11.6200   19.9745   36.3360 C.3       3 GLC5        0.0000 
     59 CA         11.0920   20.8720   37.8930 C.3       6 GLP5        0.0000 
     60 CA          8.2490   28.4555   34.1720 C.3       3 GLC5        0.0000 
     61 CA          9.8800   27.6270   35.2670 C.3       9 GLL5        0.0000 
     62 CA          6.6180   29.2840   33.0770 C.3       6 GLP5        0.0000 
     63 CA          9.3415   29.2035   35.9875 C.3       3 GLC5        0.0000 
     64 CA          8.8030   30.7800   36.7080 C.3       6 GLP5        0.0000 
     65 CA         11.8755   27.8575   35.8285 C.3       3 GLC5        0.0000 
     66 CA         13.8710   28.0880   36.3900 C.3       6 GLP5        0.0000 
     67 CA          8.0130   27.6560   36.5120 C.3       3 GLC5        0.0000 
     68 CA          6.1460   27.6850   37.7570 C.3       6 GLP5        0.0000 
     69 CA          8.1670   23.4090   34.6425 C.3       3 GLC5        0.0000 
     70 CA          8.5740   25.5530   35.1110 C.3       9 GLL5        0.0000 
     71 CA          8.2825   24.8765   37.1145 C.3       3 GLC5        0.0000 
     72 CA          7.9910   24.2000   39.1180 C.3       6 GLP5        0.0000 
     73 CA          6.9795   27.5320   33.6540 C.3       3 GLC5        0.0000 
     74 CA          7.3410   25.7800   34.2310 C.3       9 GLL5        0.0000 
     75 CA          6.9880   23.0765   34.2610 C.3       3 GLC5        0.0000 
     76 CA          6.2160   24.8880   34.3480 C.3       9 GLL5        0.0000 
     77 CA          3.8445   25.5470   31.0215 C.3       3 GLC5        0.0000 
     78 CA          4.6780   25.5710   32.5500 C.3       9 GLL5        0.0000 
     79 CA          3.0110   25.5230   29.4930 C.3       6 GLP5        0.0000 
     80 CA          3.1395   27.0310   32.2015 C.3       3 GLC5        0.0000 
     81 CA          1.6010   28.4910   31.8530 C.3       6 GLP5        0.0000 
     82 CA          2.2195   25.4185   35.3015 C.3       3 GLC5        0.0000 
     83 CA          3.7830   24.2170   34.4490 C.3       9 GLL5        0.0000 
     84 CA          0.6560   26.6200   36.1540 C.3       6 GLP5        0.0000 
     85 CA          2.2670   22.9500   34.7535 C.3       3 GLC5        0.0000 
     86 CA          0.7510   21.6830   35.0580 C.3       6 GLP5        0.0000 
     87 CA          3.5795   23.3595   36.4425 C.3       3 GLC5        0.0000 
     88 CA          3.3760   22.5020   38.4360 C.3       6 GLP5        0.0000 
     89 N          13.1855   15.6595   37.1235 N.am      2 SEC2        0.0000 
     90 N          13.0450   16.9520   36.5030 N.am      8 SEL2        0.0000 
     91 N          13.3260   14.3670   37.7440 N.am      5 SEP2        0.0000 
     92 O          11.8510   16.6225   35.9070 O.2       1 ALC1        0.0000 
     93 O          13.0450   16.9520   36.5030 O.2       7 ALL1        0.0000 
     94 O          10.6570   16.2930   35.3110 O.2       4 ALP1        0.0000 
     95 CA         13.9440   15.4245   32.0565 C.3       3 GLC5        0.0000 
     96 CA         13.7890   15.5280   33.9860 C.3       9 GLL5        0.0000 
     97 CA         14.0990   15.3210   30.1270 C.3       6 GLP5        0.0000 
     98 CA         12.6480   16.3240   32.5890 C.3       3 GLC5        0.0000 
     99 CA         14.8472   16.4558   31.7475 C.3       3 GLC5        0.0000 
    100 CA         17.5933   18.0218   33.1045 C.3       3 GLC5        0.0000 
    101 CA         19.5910   18.4530   32.8410 C.3       6 GLP5        0.0000 
    102 CA         16.4497   17.7482   31.6875 C.3       3 GLC5        0.0000 
    103 CA         17.3040   17.9060   30.0070 C.3       6 GLP5        0.0000 
    104 CA         13.1535   19.7670   32.1420 C.3       3 GLC5        0.0000 
    105 CA         14.5390   19.2710   33.6540 C.3       9 GLL5        0.0000 
    106 CA         11.6650   19.5710   30.7280 C.3       6 GLP5        0.0000 
    107 CA         15.3675   20.5185   35.1475 C.3       3 GLC5        0.0000 
    108 CA         16.1878   21.9488   33.8085 C.3       3 GLC5        0.0000 
    109 CA         14.7450   20.6550   33.4580 C.3       9 GLL5        0.0000 
    110 CA         17.9440   22.6480   33.8410 C.3       6 GLP5        0.0000 
    111 CA         15.0407   21.7508   35.2882 C.3       3 GLC5        0.0000 
    112 CA         14.1180   21.8440   34.0940 C.3       9 GLL5        0.0000 
    113 CA         14.4085   23.7865   29.9132 C.3       3 GLC5        0.0000 
    114 CA         15.2960   23.8760   28.1790 C.3       6 GLP5        0.0000 
    115 CA         12.5380   26.3640   31.0870 C.3       3 GLC5        0.0000 
    116 CA         12.6610   28.2720   30.4750 C.3       6 GLP5        0.0000 
    117 CA         11.6110   22.6193   36.9917 C.3       3 GLC5        0.0000 
    118 CA         12.3460   24.7058   38.1887 C.3       3 GLC5        0.0000 
    119 CA         12.5620   25.0450   40.2870 C.3       6 GLP5        0.0000 
    120 CA         10.2773   28.1258   33.2182 C.3       3 GLC5        0.0000 
    121 CA         10.6810   29.3290   31.5580 C.3       6 GLP5        0.0000 
    122 CA          6.6164   26.4811   36.1332 C.3       3 GLC5        0.0000 
    123 CA          5.6803   27.3685   33.1855 C.3       3 GLC5        0.0000 
    124 CA          4.8070   25.3350   34.0380 C.3       9 GLL5        0.0000 
    125 CA         13.0351   26.3507   35.8665 C.3       3 GLC5        0.0000 
    126 CA         11.5110   24.8550   36.1780 C.3       9 GLL5        0.0000 
@<TRIPOS>BOND
@<TRIPOS>SUBSTRUCTURE
     1 ALC1        4 GROUP        1 X    ALC  0     ROOT ALC X 1
     2 SEC2        1 GROUP        1 X    SEC  0     **** SEC X 2
     3 GLC5       13 GROUP        1 X    GLC  0     **** GLC X 6
     4 ALP1        6 GROUP        1 Y    ALP  0     ROOT ALP Y 8
     5 SEP2        3 GROUP        1 Y    SEP  0     **** SEP Y 9
     6 GLP5       15 GROUP        1 Y    GLP  0     **** GLP Y 13
     7 ALL1        5 GROUP        1 Z    ALL  0     ROOT ALL Z 15
     8 SEL2        2 GROUP        1 Z    SEL  0     **** SEL Z 16
     9 GLL5       14 GROUP        1 Z    GLL  0     **** GLL Z 20
@<TRIPOS>SET

