#    Name: 2hb8_MVD_1_ligand
#    Modification time : Tue Mar 25 15:50:22 2014

@<TRIPOS>MOLECULE
2hb8_MVD_1_ligand
   75    77     1     0     0
SMALL
NO_CHARGES


@<TRIPOS>ATOM
      1 O3         16.9190   17.6550   34.6570 O.3       1 MVD1001     0.0000 
      2 O25         4.4660   26.4980   34.7560 O.3       1 MVD1001     0.0000 
      3 C1         14.0880   17.5490   35.6650 C.3       1 MVD1001     0.0000 
      4 C2         14.8130   16.3910   34.8410 C.3       1 MVD1001     0.0000 
      5 C3         15.9050   17.0330   33.8440 C.3       1 MVD1001     0.0000 
      6 C4         15.2860   18.1480   32.8920 C.3       1 MVD1001     0.0000 
      7 C5         14.5390   19.2710   33.6540 C.2       1 MVD1001     0.0000 
      8 C6         14.7450   20.6550   33.4580 C.2       1 MVD1001     0.0000 
      9 C7         14.1180   21.8440   34.0940 C.2       1 MVD1001     0.0000 
     10 C8         13.8590   23.0110   33.5810 C.2       1 MVD1001     0.0000 
     11 C9         14.1860   23.4420   32.0530 C.3       1 MVD1001     0.0000 
     12 C10        13.4910   18.6730   34.7070 C.2       1 MVD1001     0.0000 
     13 C11        12.8560   23.9520   31.2420 C.3       1 MVD1001     0.0000 
     14 C12        11.9740   24.9600   32.1560 C.3       1 MVD1001     0.0000 
     15 C13        11.7020   24.5140   33.7550 C.3       1 MVD1001     0.0000 
     16 C14        13.1790   24.1360   34.3900 C.3       1 MVD1001     0.0000 
     17 C15        12.7490   23.8780   36.0030 C.3       1 MVD1001     0.0000 
     18 C16        11.5110   24.8550   36.1780 C.3       1 MVD1001     0.0000 
     19 C17        11.3580   25.5850   34.8010 C.3       1 MVD1001     0.0000 
     20 C18        10.6620   23.1600   33.5450 C.3       1 MVD1001     0.0000 
     21 C19        12.1480   19.0770   34.7790 C.2       1 MVD1001     0.0000 
     22 C20         9.8670   26.2180   34.4900 C.3       1 MVD1001     0.0000 
     23 C21         9.8800   27.6270   35.2670 C.3       1 MVD1001     0.0000 
     24 C22         8.5740   25.5530   35.1110 C.3       1 MVD1001     0.0000 
     25 C23         7.3410   25.7800   34.2310 C.3       1 MVD1001     0.0000 
     26 C24         6.2160   24.8880   34.3480 C.3       1 MVD1001     0.0000 
     27 C25         4.8070   25.3350   34.0380 C.3       1 MVD1001     0.0000 
     28 C26         4.6780   25.5710   32.5500 C.3       1 MVD1001     0.0000 
     29 C27         3.7830   24.2170   34.4490 C.3       1 MVD1001     0.0000 
     30 O1         13.0450   16.9520   36.5030 O.3       1 MVD1001     0.0000 
     31 C28        13.7890   15.5280   33.9860 C.3       1 MVD1001     0.0000 
     32 H          14.8483   18.0163   36.2794 H         1 MVD1001     0.0000 
     33 H          15.3287   15.7518   35.5151 H         1 MVD1001     0.0000 
     34 H          16.2976   16.2537   33.2449 H         1 MVD1001     0.0000 
     35 H          14.5969   17.6545   32.2035 H         1 MVD1001     0.0000 
     36 H          16.1025   18.5826   32.3116 H         1 MVD1001     0.0000 
     37 H          15.4961   20.9256   32.7085 H         1 MVD1001     0.0000 
     38 H          13.8623   21.6428   35.1409 H         1 MVD1001     0.0000 
     39 H          14.5840   22.5895   31.5331 H         1 MVD1001     0.0000 
     40 H          14.8946   24.2501   32.0680 H         1 MVD1001     0.0000 
     41 H          12.2643   23.0965   31.0054 H         1 MVD1001     0.0000 
     42 H          13.1800   24.4740   30.3699 H         1 MVD1001     0.0000 
     43 H          10.9910   25.0844   31.6967 H         1 MVD1001     0.0000 
     44 H          12.4675   25.9338   32.1848 H         1 MVD1001     0.0000 
     45 H          13.7129   25.0606   34.3801 H         1 MVD1001     0.0000 
     46 H          13.5465   24.1936   36.5743 H         1 MVD1001     0.0000 
     47 H          12.4504   22.8942   36.0743 H         1 MVD1001     0.0000 
     48 H          11.7374   25.5602   36.9306 H         1 MVD1001     0.0000 
     49 H          10.6475   24.2792   36.3726 H         1 MVD1001     0.0000 
     50 H          12.0747   26.3678   34.7342 H         1 MVD1001     0.0000 
     51 H           9.7576   26.4356   33.4926 H         1 MVD1001     0.0000 
     52 H           8.4126   25.9875   36.0938 H         1 MVD1001     0.0000 
     53 H           8.7626   24.4881   35.2167 H         1 MVD1001     0.0000 
     54 H           7.7086   25.8080   33.1560 H         1 MVD1001     0.0000 
     55 H           7.0098   26.8531   34.4048 H         1 MVD1001     0.0000 
     56 H           6.1948   24.4378   35.4065 H         1 MVD1001     0.0000 
     57 H           6.4100   23.9450   33.7181 H         1 MVD1001     0.0000 
     58 H          11.1416   22.3830   33.1372 H         1 MVD1001     0.0000 
     59 H          10.2813   22.8457   34.4146 H         1 MVD1001     0.0000 
     60 H           9.8895   23.3742   32.9472 H         1 MVD1001     0.0000 
     61 H          10.0583   27.5107   36.2441 H         1 MVD1001     0.0000 
     62 H          10.5849   28.2407   34.9114 H         1 MVD1001     0.0000 
     63 H           9.0057   28.1052   35.1835 H         1 MVD1001     0.0000 
     64 H           5.2769   26.3084   32.2376 H         1 MVD1001     0.0000 
     65 H           4.9172   24.7558   32.0226 H         1 MVD1001     0.0000 
     66 H           3.7448   25.8227   32.2934 H         1 MVD1001     0.0000 
     67 H           3.9614   23.3564   33.9719 H         1 MVD1001     0.0000 
     68 H           3.8197   24.0218   35.4291 H         1 MVD1001     0.0000 
     69 H           2.8416   24.4797   34.2375 H         1 MVD1001     0.0000 
     70 H          14.2506   14.8030   33.4749 H         1 MVD1001     0.0000 
     71 H          13.1017   15.0875   34.5636 H         1 MVD1001     0.0000 
     72 H          13.2966   16.0883   33.3200 H         1 MVD1001     0.0000 
     73 H          17.6260   17.9450   34.0119 H         1 MVD1001     0.0000 
     74 H           4.8363   27.4232   34.6717 H         1 MVD1001     0.0000 
     75 H          12.2615   16.8305   35.8936 H         1 MVD1001     0.0000 
@<TRIPOS>BOND
     1    5    1 1    
     2   73    1 1    
     3   27    2 1    
     4   74    2 1    
     5    4    3 1    
     6   12    3 1    
     7   30    3 1    
     8   32    3 1    
     9    5    4 1    
    10   31    4 1    
    11   33    4 1    
    12    6    5 1    
    13   34    5 1    
    14    7    6 1    
    15   35    6 1    
    16   36    6 1    
    17    8    7 2    
    18   12    7 1    
    19    9    8 1    
    20   37    8 1    
    21   10    9 2    
    22   38    9 1    
    23   11   10 1    
    24   16   10 1    
    25   13   11 1    
    26   39   11 1    
    27   40   11 1    
    28   21   12 2    
    29   14   13 1    
    30   41   13 1    
    31   42   13 1    
    32   15   14 1    
    33   43   14 1    
    34   44   14 1    
    35   16   15 1    
    36   19   15 1    
    37   20   15 1    
    38   17   16 1    
    39   45   16 1    
    40   18   17 1    
    41   46   17 1    
    42   47   17 1    
    43   19   18 1    
    44   48   18 1    
    45   49   18 1    
    46   22   19 1    
    47   50   19 1    
    48   58   20 1    
    49   59   20 1    
    50   60   20 1    
    51   23   22 1    
    52   24   22 1    
    53   51   22 1    
    54   61   23 1    
    55   62   23 1    
    56   63   23 1    
    57   25   24 1    
    58   52   24 1    
    59   53   24 1    
    60   26   25 1    
    61   54   25 1    
    62   55   25 1    
    63   27   26 1    
    64   56   26 1    
    65   57   26 1    
    66   28   27 1    
    67   29   27 1    
    68   64   28 1    
    69   65   28 1    
    70   66   28 1    
    71   67   29 1    
    72   68   29 1    
    73   69   29 1    
    74   75   30 1    
    75   70   31 1    
    76   71   31 1    
    77   72   31 1    
@<TRIPOS>SUBSTRUCTURE
     1 MVD1001     1 GROUP   
@<TRIPOS>SET

