#    Name: 4ec0_7PQ_1_INTS_M
#    Modification time : Tue Mar 25 10:52:47 2014

@<TRIPOS>MOLECULE
4ec0_7PQ_1_INTS_M
   57     0    12     0     0
SMALL
NO_CHARGES


@<TRIPOS>ATOM
      1 CA         18.5525   -1.5275   18.8725 C.3       4 GLC5        0.0000 
      2 CA         19.6950    0.2230   18.5160 C.3      12 GLL5        0.0000 
      3 CA         17.4100   -3.2780   19.2290 C.3       8 GLP5        0.0000 
      4 CA         24.3495    2.7280   19.3555 C.3       4 GLC5        0.0000 
      5 CA         25.4410    2.3590   17.5410 C.3      12 GLL5        0.0000 
      6 CA         23.2580    3.0970   21.1700 C.3       8 GLP5        0.0000 
      7 N          29.2130    4.1940   14.3575 N.am      2 SEC2        0.0000 
      8 N          29.7900    4.7350   15.7860 N.am     10 SEL2        0.0000 
      9 N          28.6360    3.6530   12.9290 N.am      6 SEP2        0.0000 
     10 CA         12.5710    1.3700   17.6545 C.3       4 GLC5        0.0000 
     11 CA         14.5970    1.5560   18.1010 C.3      12 GLL5        0.0000 
     12 CA         10.5450    1.1840   17.2080 C.3       8 GLP5        0.0000 
     13 CA         15.3230    4.4520   18.3465 C.3       4 GLC5        0.0000 
     14 CA         15.4080    2.5500   18.6040 C.3      12 GLL5        0.0000 
     15 CA         15.2380    6.3540   18.0890 C.3       8 GLP5        0.0000 
     16 CA         12.4435    0.2865   17.0820 C.3       4 GLC5        0.0000 
     17 CA         14.3420   -0.6110   16.9560 C.3      12 GLL5        0.0000 
     18 CA         17.8190    2.3065   20.3980 C.3       4 GLC5        0.0000 
     19 CA         17.6450    3.6350   19.1320 C.3      12 GLL5        0.0000 
     20 CA         17.9930    0.9780   21.6640 C.3       8 GLP5        0.0000 
     21 CA         19.3590    4.6200   19.7135 C.3       4 GLC5        0.0000 
     22 CA         21.0730    5.6050   20.2950 C.3       8 GLP5        0.0000 
     23 OD1        17.8985    4.4230   20.9720 O.co2     3 ASC3        0.0000 
     24 OD1        16.9440    4.2920   20.2120 O.co2    11 ASL3        0.0000 
     25 OD1        18.8530    4.5540   21.7320 O.co2     7 ASP3        0.0000 
     26 O          16.2995    5.1810   19.8210 O.2       1 ALC1        0.0000 
     27 O          16.9440    4.2920   20.2120 O.2       9 ALL1        0.0000 
     28 O          15.6550    6.0700   19.4300 O.2       5 ALP1        0.0000 
     29 O          17.8985    4.4230   20.9720 O.2       1 ALC1        0.0000 
     30 O          18.8530    4.5540   21.7320 O.2       5 ALP1        0.0000 
     31 CA         18.6735    0.8670   19.9225 C.3       4 GLC5        0.0000 
     32 CA         19.0130    1.2890   17.8460 C.3      12 GLL5        0.0000 
     33 CA         22.2062    1.0515   19.8770 C.3       4 GLC5        0.0000 
     34 CA         21.0960    0.1340   18.4770 C.3      12 GLL5        0.0000 
     35 CA         22.9360    1.4810   21.6280 C.3       8 GLP5        0.0000 
     36 CA         22.1902    1.3840   15.6468 C.3       4 GLC5        0.0000 
     37 CA         21.8570    1.1100   17.7750 C.3      12 GLL5        0.0000 
     38 CA         22.8610    1.1310   13.8460 C.3       8 GLP5        0.0000 
     39 CA         21.5751    3.7140   17.7744 C.3       4 GLC5        0.0000 
     40 CA         21.1820    2.1640   17.1200 C.3      12 GLL5        0.0000 
     41 CA         22.5000    5.4820   18.2490 C.3       8 GLP5        0.0000 
     42 CA         24.0892    4.2260   17.6935 C.3       4 GLC5        0.0000 
     43 CA         17.1525   -1.7782   18.1285 C.3       4 GLC5        0.0000 
     44 CA         16.6320    0.3060   17.3550 C.3      12 GLL5        0.0000 
     45 CA         14.9680    0.3565   15.6720 C.3       4 GLC5        0.0000 
     46 CA         14.0350    0.3480   13.9270 C.3       8 GLP5        0.0000 
     47 CA         17.1384    1.6090   20.0388 C.3       4 GLC5        0.0000 
     48 CA         15.1264    2.8788   16.7354 C.3       4 GLC5        0.0000 
     49 CA         16.8310    2.4920   18.5330 C.3      12 GLL5        0.0000 
     50 CA         14.3360    3.4850   15.0280 C.3       8 GLP5        0.0000 
     51 CA         16.8325    4.6103   17.9788 C.3       4 GLC5        0.0000 
     52 CA         16.4270    6.1570   17.1250 C.3       8 GLP5        0.0000 
     53 CA         15.3830   -0.5005   15.1898 C.3       4 GLC5        0.0000 
     54 CA         17.1580   -0.8630   16.7010 C.3      12 GLL5        0.0000 
     55 CA         16.5085   -2.5260   17.7497 C.3       4 GLC5        0.0000 
     56 CA         14.9100   -1.7130   16.3370 C.3      12 GLL5        0.0000 
     57 CA         14.3305   -0.4070   15.2867 C.3       4 GLC5        0.0000 
@<TRIPOS>BOND
@<TRIPOS>SUBSTRUCTURE
     1 ALC1       26 GROUP        1 X    ALC  0     ROOT ALC X 1
     2 SEC2        7 GROUP        1 X    SEC  0     **** SEC X 2
     3 ASC3       23 GROUP        1 X    ASC  0     **** ASC X 3
     4 GLC5        1 GROUP        1 X    GLC  0     **** GLC X 6
     5 ALP1       28 GROUP        1 Y    ALP  0     ROOT ALP Y 8
     6 SEP2        9 GROUP        1 Y    SEP  0     **** SEP Y 9
     7 ASP3       25 GROUP        1 Y    ASP  0     **** ASP Y 10
     8 GLP5        3 GROUP        1 Y    GLP  0     **** GLP Y 13
     9 ALL1       27 GROUP        1 Z    ALL  0     ROOT ALL Z 15
    10 SEL2        8 GROUP        1 Z    SEL  0     **** SEL Z 16
    11 ASL3       24 GROUP        1 Z    ASL  0     **** ASL Z 17
    12 GLL5        2 GROUP        1 Z    GLL  0     **** GLL Z 20
@<TRIPOS>SET

