#    Name: 4ec0_7PQ_1_ligand
#    Modification time : Tue Mar 25 10:52:47 2014

@<TRIPOS>MOLECULE
4ec0_7PQ_1_ligand
   58    61     1     0     0
SMALL
NO_CHARGES


@<TRIPOS>ATOM
      1 C1         19.6950    0.2230   18.5160 C.ar      1 7PQ203      0.0000 
      2 C2         21.0960    0.1340   18.4770 C.ar      1 7PQ203      0.0000 
      3 C3         21.8570    1.1100   17.7750 C.ar      1 7PQ203      0.0000 
      4 C4         21.1820    2.1640   17.1200 C.ar      1 7PQ203      0.0000 
      5 C5         19.7810    2.2550   17.1520 C.ar      1 7PQ203      0.0000 
      6 C6         19.0130    1.2890   17.8460 C.ar      1 7PQ203      0.0000 
      7 C7         17.4880    1.3680   17.9130 C.ar      1 7PQ203      0.0000 
      8 C8         23.3520    1.0380   17.7200 C.2       1 7PQ203      0.0000 
      9 O9         23.9440    0.0490   18.1510 O.2       1 7PQ203      0.0000 
     10 N10        24.0490    2.0730   17.1750 N.am      1 7PQ203      0.0000 
     11 C11        25.4410    2.3590   17.5410 C.3       1 7PQ203      0.0000 
     12 C12        25.9160    3.5810   16.7350 C.3       1 7PQ203      0.0000 
     13 N13        27.3240    3.9100   17.0440 N.4       1 7PQ203      0.0000 
     14 C14        27.5390    5.3110   16.5720 C.3       1 7PQ203      0.0000 
     15 C15        29.0480    5.6580   16.6200 C.3       1 7PQ203      0.0000 
     16 O16        29.7900    4.7350   15.7860 O.3       1 7PQ203      0.0000 
     17 C17        29.6670    3.4090   16.3420 C.3       1 7PQ203      0.0000 
     18 C18        28.1910    2.9690   16.2720 C.3       1 7PQ203      0.0000 
     19 C19        16.6320    0.3060   17.3550 C.ar      1 7PQ203      0.0000 
     20 C20        15.1700    0.4240   17.4790 C.ar      1 7PQ203      0.0000 
     21 C21        14.5970    1.5560   18.1010 C.ar      1 7PQ203      0.0000 
     22 C22        15.4080    2.5500   18.6040 C.ar      1 7PQ203      0.0000 
     23 C23        16.8310    2.4920   18.5330 C.ar      1 7PQ203      0.0000 
     24 C24        17.1580   -0.8630   16.7010 C.ar      1 7PQ203      0.0000 
     25 C25        16.3040   -1.8350   16.2040 C.ar      1 7PQ203      0.0000 
     26 C26        14.9100   -1.7130   16.3370 C.ar      1 7PQ203      0.0000 
     27 C27        14.3420   -0.6110   16.9560 C.ar      1 7PQ203      0.0000 
     28 C28        17.6450    3.6350   19.1320 C.3       1 7PQ203      0.0000 
     29 N29        16.9440    4.2920   20.2120 N.4       1 7PQ203      0.0000 
     30 H          19.1454   -0.4747   19.0249 H         1 7PQ203      0.0000 
     31 H          21.5786   -0.6319   18.9522 H         1 7PQ203      0.0000 
     32 H          21.7282    2.8738   16.6129 H         1 7PQ203      0.0000 
     33 H          19.3055    3.0256   16.6703 H         1 7PQ203      0.0000 
     34 H          23.6211    2.7064   16.4734 H         1 7PQ203      0.0000 
     35 H          26.0882    1.5219   17.3017 H         1 7PQ203      0.0000 
     36 H          25.5276    2.5939   18.5965 H         1 7PQ203      0.0000 
     37 H          25.2617    4.4247   16.9768 H         1 7PQ203      0.0000 
     38 H          25.7985    3.3544   15.6705 H         1 7PQ203      0.0000 
     39 H          27.5039    3.8327   18.0741 H         1 7PQ203      0.0000 
     40 H          27.0073    6.0129   17.2084 H         1 7PQ203      0.0000 
     41 H          27.1954    5.4245   15.5476 H         1 7PQ203      0.0000 
     42 H          29.3659    5.6024   17.6628 H         1 7PQ203      0.0000 
     43 H          29.1602    6.6885   16.2778 H         1 7PQ203      0.0000 
     44 H          29.9726    3.3803   17.3878 H         1 7PQ203      0.0000 
     45 H          30.2570    2.6816   15.7844 H         1 7PQ203      0.0000 
     46 H          27.8875    2.9473   15.2251 H         1 7PQ203      0.0000 
     47 H          28.1125    1.9611   16.6800 H         1 7PQ203      0.0000 
     48 H          13.5748    1.6233   18.1704 H         1 7PQ203      0.0000 
     49 H          14.9828    3.3875   19.0592 H         1 7PQ203      0.0000 
     50 H          18.1748   -0.9559   16.6137 H         1 7PQ203      0.0000 
     51 H          16.6904   -2.6668   15.7261 H         1 7PQ203      0.0000 
     52 H          14.3043   -2.4643   15.9631 H         1 7PQ203      0.0000 
     53 H          13.3246   -0.5239   17.0466 H         1 7PQ203      0.0000 
     54 H          17.8783    4.3457   18.3205 H         1 7PQ203      0.0000 
     55 H          18.6072    3.2198   19.4785 H         1 7PQ203      0.0000 
     56 H          16.7918    5.2616   20.0205 H         1 7PQ203      0.0000 
     57 H          16.0471    3.8815   20.3766 H         1 7PQ203      0.0000 
     58 H          17.4527    4.2393   21.0713 H         1 7PQ203      0.0000 
@<TRIPOS>BOND
     1    2    1 ar   
     2    6    1 ar   
     3   30    1 1    
     4    3    2 ar   
     5   31    2 1    
     6    4    3 ar   
     7    8    3 1    
     8    5    4 ar   
     9   32    4 1    
    10    6    5 ar   
    11   33    5 1    
    12    7    6 1    
    13   19    7 ar   
    14   23    7 ar   
    15    9    8 2    
    16   10    8 am   
    17   11   10 1    
    18   34   10 1    
    19   12   11 1    
    20   35   11 1    
    21   36   11 1    
    22   13   12 1    
    23   37   12 1    
    24   38   12 1    
    25   14   13 1    
    26   18   13 1    
    27   39   13 1    
    28   15   14 1    
    29   40   14 1    
    30   41   14 1    
    31   16   15 1    
    32   42   15 1    
    33   43   15 1    
    34   17   16 1    
    35   18   17 1    
    36   44   17 1    
    37   45   17 1    
    38   46   18 1    
    39   47   18 1    
    40   20   19 ar   
    41   24   19 ar   
    42   21   20 ar   
    43   27   20 ar   
    44   22   21 ar   
    45   48   21 1    
    46   23   22 ar   
    47   49   22 1    
    48   28   23 1    
    49   25   24 ar   
    50   50   24 1    
    51   26   25 ar   
    52   51   25 1    
    53   27   26 ar   
    54   52   26 1    
    55   53   27 1    
    56   29   28 1    
    57   54   28 1    
    58   55   28 1    
    59   56   29 1    
    60   57   29 1    
    61   58   29 1    
@<TRIPOS>SUBSTRUCTURE
     1 7PQ203      1 GROUP   
@<TRIPOS>SET

