#    Name: 2qc6_G12_1_INTS_M
#    Modification time : Mon Mar 24 21:44:07 2014

@<TRIPOS>MOLECULE
2qc6_G12_1_INTS_M
   55     0     6     0     0
SMALL
NO_CHARGES


@<TRIPOS>ATOM
      1 CA         23.6655    8.1590   19.9385 C.3       2 GLC5        0.0000 
      2 CA         21.6920    7.9380   19.4270 C.3       6 GLL5        0.0000 
      3 CA         25.6390    8.3800   20.4500 C.3       4 GLP5        0.0000 
      4 CA         21.3410    6.2655   18.2355 C.3       2 GLC5        0.0000 
      5 CA         20.9900    4.5930   17.0440 C.3       4 GLP5        0.0000 
      6 CA         21.5155   11.0535   19.1540 C.3       2 GLC5        0.0000 
      7 CA         20.6180    9.8670   18.0820 C.3       6 GLL5        0.0000 
      8 CA         22.4130   12.2400   20.2260 C.3       4 GLP5        0.0000 
      9 CA         20.1575   10.2145   16.1145 C.3       2 GLC5        0.0000 
     10 CA         19.6970   10.5620   14.1470 C.3       4 GLP5        0.0000 
     11 CA         18.9200   10.7240   18.0445 C.3       2 GLC5        0.0000 
     12 CA         17.2220   11.5810   18.0070 C.3       4 GLP5        0.0000 
     13 CA         24.4160    7.7625   18.8080 C.3       2 GLC5        0.0000 
     14 CA         23.1930    7.1450   17.1660 C.3       6 GLL5        0.0000 
     15 CA         26.5245    5.6960   15.2410 C.3       2 GLC5        0.0000 
     16 CA         25.0610    5.2040   16.3110 C.3       6 GLL5        0.0000 
     17 CA         27.9880    6.1880   14.1710 C.3       4 GLP5        0.0000 
     18 CA         23.0255    4.8985   16.6775 C.3       2 GLC5        0.0000 
     19 CA         24.3925    4.1540   14.9585 C.3       2 GLC5        0.0000 
     20 CA         23.7240    3.1040   13.6060 C.3       4 GLP5        0.0000 
     21 CA         22.6290   11.0510   15.5270 C.3       2 GLC5        0.0000 
     22 CA         22.2670    8.9130   15.8060 C.3       6 GLL5        0.0000 
     23 CA         22.9910   13.1890   15.2480 C.3       4 GLP5        0.0000 
     24 N          25.7455    6.2625   13.5705 N.am      1 SEC2        0.0000 
     25 N          24.5830    6.9360   13.8450 N.am      5 SEL2        0.0000 
     26 N          26.9080    5.5890   13.2960 N.am      3 SEP2        0.0000 
     27 N          23.3820    5.9485   13.4275 N.am      1 SEC2        0.0000 
     28 N          22.1810    4.9610   13.0100 N.am      3 SEP2        0.0000 
     29 CA         22.0365    9.8012   20.7852 C.3       2 GLC5        0.0000 
     30 CA         22.9020   11.3980   21.3990 C.3       4 GLP5        0.0000 
     31 CA         19.9565    6.8718   20.1638 C.3       2 GLC5        0.0000 
     32 CA         20.6500    8.4710   20.9160 C.3       6 GLL5        0.0000 
     33 CA         18.7420    5.5390   20.1560 C.3       4 GLP5        0.0000 
     34 CA         19.5862    7.7885   18.3957 C.3       2 GLC5        0.0000 
     35 CA         21.5510    8.6930   18.1730 C.3       6 GLL5        0.0000 
     36 CA         18.0880    6.2970   18.6640 C.3       4 GLP5        0.0000 
     37 CA         20.1593    8.1260   16.7907 C.3       2 GLC5        0.0000 
     38 CA         19.2340    6.9720   15.4540 C.3       4 GLP5        0.0000 
     39 CA         20.7722    7.7763   15.9332 C.3       2 GLC5        0.0000 
     40 CA         22.3540    8.2480   17.0190 C.3       6 GLL5        0.0000 
     41 CA         22.2780    5.7607   16.8360 C.3       2 GLC5        0.0000 
     42 CA         25.8105    6.3590   17.7182 C.3       2 GLC5        0.0000 
     43 CA         23.9390    6.7120   16.0900 C.3       6 GLL5        0.0000 
     44 CA         27.1210    6.7600   19.2360 C.3       4 GLP5        0.0000 
     45 CA         25.8125    7.3502   15.0185 C.3       2 GLC5        0.0000 
     46 CA         27.7290    7.6590   14.5510 C.3       4 GLP5        0.0000 
     47 CA         23.6225    5.6118   14.0410 C.3       2 GLC5        0.0000 
     48 CA         23.8530    7.3710   14.8820 C.3       6 GLL5        0.0000 
     49 CA         23.3490    4.1820   12.5960 C.3       4 GLP5        0.0000 
     50 CA         23.1824   10.0319   17.7235 C.3       2 GLC5        0.0000 
     51 CA         24.2550   11.3720   18.7460 C.3       4 GLP5        0.0000 
     52 CA         21.1698    9.6268   14.7078 C.3       2 GLC5        0.0000 
     53 CA         21.8117    6.9078   14.8822 C.3       2 GLC5        0.0000 
     54 CA         23.0180    8.4700   14.7310 C.3       6 GLL5        0.0000 
     55 CA         20.1880    5.8950   14.9580 C.3       4 GLP5        0.0000 
@<TRIPOS>BOND
@<TRIPOS>SUBSTRUCTURE
     1 SEC2       24 GROUP        1 X    SEC  0     ROOT SEC X 2
     2 GLC5        1 GROUP        1 X    GLC  0     **** GLC X 6
     3 SEP2       26 GROUP        1 Y    SEP  0     ROOT SEP Y 9
     4 GLP5        3 GROUP        1 Y    GLP  0     **** GLP Y 13
     5 SEL2       25 GROUP        1 Z    SEL  0     ROOT SEL Z 16
     6 GLL5        2 GROUP        1 Z    GLL  0     **** GLL Z 20
@<TRIPOS>SET

