#    Name: 2qc6_G12_1_ligand
#    Modification time : Mon Mar 24 21:44:07 2014

@<TRIPOS>MOLECULE
2qc6_G12_1_ligand
   21    22     1     0     0
SMALL
NO_CHARGES


@<TRIPOS>ATOM
      1 BR2        20.6500    8.4710   20.9160 Br        1 G121        0.0000 
      2 C9         21.6920    7.9380   19.4270 C.2       1 G121        0.0000 
      3 C8         22.6210    6.7740   19.4650 C.2       1 G121        0.0000 
      4 O15        22.7870    6.0880   20.4980 O.2       1 G121        0.0000 
      5 O7         23.3140    6.4420   18.3370 O.3       1 G121        0.0000 
      6 C10        21.5510    8.6930   18.1730 C.2       1 G121        0.0000 
      7 C13        20.6180    9.8670   18.0820 C.3       1 G121        0.0000 
      8 C5         22.3540    8.2480   17.0190 C.ar      1 G121        0.0000 
      9 C6         23.1930    7.1450   17.1660 C.ar      1 G121        0.0000 
     10 C4         23.9390    6.7120   16.0900 C.ar      1 G121        0.0000 
     11 BR1        25.0610    5.2040   16.3110 Br        1 G121        0.0000 
     12 C1         22.2670    8.9130   15.8060 C.ar      1 G121        0.0000 
     13 C2         23.0180    8.4700   14.7310 C.ar      1 G121        0.0000 
     14 C3         23.8530    7.3710   14.8820 C.ar      1 G121        0.0000 
     15 O11        24.5830    6.9360   13.8450 O.3       1 G121        0.0000 
     16 H          21.6503    9.7275   15.7065 H         1 G121        0.0000 
     17 H          22.9592    8.9508   13.8248 H         1 G121        0.0000 
     18 H          20.8617   10.5864   18.7325 H         1 G121        0.0000 
     19 H          20.6281   10.2797   17.1712 H         1 G121        0.0000 
     20 H          19.6722    9.6056   18.2748 H         1 G121        0.0000 
     21 H          24.1522    7.3398   13.0379 H         1 G121        0.0000 
@<TRIPOS>BOND
     1    2    1 1    
     2    3    2 1    
     3    6    2 2    
     4    4    3 2    
     5    5    3 1    
     6    9    5 1    
     7    7    6 1    
     8    8    6 1    
     9   18    7 1    
    10   19    7 1    
    11   20    7 1    
    12    9    8 ar   
    13   12    8 ar   
    14   10    9 ar   
    15   11   10 1    
    16   14   10 ar   
    17   13   12 ar   
    18   16   12 1    
    19   14   13 ar   
    20   17   13 1    
    21   15   14 1    
    22   21   15 1    
@<TRIPOS>SUBSTRUCTURE
     1 G121        1 GROUP   
@<TRIPOS>SET

