#    Name: 3dcu_O62_1_INTS_M
#    Modification time : Mon Mar 24 23:07:00 2014

@<TRIPOS>MOLECULE
3dcu_O62_1_INTS_M
   95     0     9     0     0
SMALL
NO_CHARGES


@<TRIPOS>ATOM
      1 CA         10.6000   21.1385   33.6635 C.3       3 GLC5        0.0000 
      2 CA         11.1500   22.3820   35.4490 C.3       9 GLL5        0.0000 
      3 CA         10.0500   19.8950   31.8780 C.3       6 GLP5        0.0000 
      4 CA         17.5145   17.9280   40.2185 C.3       3 GLC5        0.0000 
      5 CA         15.8350   16.8910   40.3950 C.3       9 GLL5        0.0000 
      6 CA         19.1940   18.9650   40.0420 C.3       6 GLP5        0.0000 
      7 CA         14.7655   17.9345   41.9900 C.3       3 GLC5        0.0000 
      8 CA         13.6960   18.9780   43.5850 C.3       6 GLP5        0.0000 
      9 CA         20.6485   16.5120   43.8170 C.3       3 GLC5        0.0000 
     10 CA         19.0840   16.8020   42.8970 C.3       9 GLL5        0.0000 
     11 CA         22.2130   16.2220   44.7370 C.3       6 GLP5        0.0000 
     12 CA         19.5380   14.8155   42.9510 C.3       3 GLC5        0.0000 
     13 CA         19.9920   12.8290   43.0050 C.3       6 GLP5        0.0000 
     14 CA         18.1875   16.2815   46.1885 C.3       3 GLC5        0.0000 
     15 CA         17.1370   16.8350   44.5490 C.3       9 GLL5        0.0000 
     16 CA         19.2380   15.7280   47.8280 C.3       6 GLP5        0.0000 
     17 CA         15.9755   17.9315   45.8015 C.3       3 GLC5        0.0000 
     18 CA         14.8140   19.0280   47.0540 C.3       6 GLP5        0.0000 
     19 CA         15.4640   15.7895   45.4505 C.3       3 GLC5        0.0000 
     20 CA         13.7910   14.7440   46.3520 C.3       6 GLP5        0.0000 
     21 CA         11.5780   11.8250   41.9890 C.3       3 GLC5        0.0000 
     22 CA         12.6880   13.6360   41.5800 C.3       9 GLL5        0.0000 
     23 CA         10.4680   10.0140   42.3980 C.3       6 GLP5        0.0000 
     24 CA         11.6690   14.9315   42.0740 C.3       3 GLC5        0.0000 
     25 CA         10.6500   16.2270   42.5680 C.3       6 GLP5        0.0000 
     26 CA         13.5350   12.1695   42.6090 C.3       3 GLC5        0.0000 
     27 CA         14.3820   10.7030   43.6380 C.3       6 GLP5        0.0000 
     28 CA         12.7520   14.1960   43.4645 C.3       3 GLC5        0.0000 
     29 CA         12.8160   14.7560   45.3490 C.3       6 GLP5        0.0000 
     30 CA         18.2505   13.7790   36.7760 C.3       3 GLC5        0.0000 
     31 CA         17.2680   13.8250   38.3410 C.3       9 GLL5        0.0000 
     32 CA         19.2330   13.7330   35.2110 C.3       6 GLP5        0.0000 
     33 CA         18.8865   13.0635   38.5100 C.3       3 GLC5        0.0000 
     34 CA         20.5050   12.3020   38.6790 C.3       6 GLP5        0.0000 
     35 CA          9.4995   25.3195   35.6865 C.3       3 GLC5        0.0000 
     36 CA          9.7090   24.2780   33.9730 C.3       9 GLL5        0.0000 
     37 CA          9.2900   26.3610   37.4000 C.3       6 GLP5        0.0000 
     38 CA         16.4820   18.7450   37.8740 C.3       3 GLC5        0.0000 
     39 CA         14.3180   18.3430   38.1150 C.3       9 GLL5        0.0000 
     40 CA         18.6460   19.1470   37.6330 C.3       6 GLP5        0.0000 
     41 CA         11.5665   17.1710   41.1415 C.3       3 GLC5        0.0000 
     42 CA         12.4830   18.1150   39.7150 C.3       9 GLL5        0.0000 
     43 CA         10.2800   19.9595   40.1335 C.3       3 GLC5        0.0000 
     44 CA         11.7010   19.0230   38.9730 C.3       9 GLL5        0.0000 
     45 CA          8.8590   20.8960   41.2940 C.3       6 GLP5        0.0000 
     46 CA         10.5115   17.5450   40.1700 C.3       3 GLC5        0.0000 
     47 CA          9.3220   16.0670   41.3670 C.3       6 GLP5        0.0000 
     48 NZ          6.0355   22.0865   33.9375 N.4       2 LYC4        0.0000 
     49 NZ          6.8010   22.7450   34.6360 N.4       8 LYL4        0.0000 
     50 NZ          5.2700   21.4280   33.2390 N.4       5 LYP4        0.0000 
     51 N           7.0360   26.0185   36.3415 N.am      1 SEC2        0.0000 
     52 N           7.0440   24.8040   35.3690 N.am      7 SEL2        0.0000 
     53 N           7.0280   27.2330   37.3140 N.am      4 SEP2        0.0000 
     54 CA         18.7567   17.8910   41.5120 C.3       3 GLC5        0.0000 
     55 CA         17.5550   16.8320   43.0670 C.3       9 GLL5        0.0000 
     56 CA         15.5210   17.9058   43.6965 C.3       3 GLC5        0.0000 
     57 CA         11.4085   14.1132   39.9110 C.3       3 GLC5        0.0000 
     58 CA         13.5810   13.4170   40.1230 C.3       9 GLL5        0.0000 
     59 CA          9.6030   15.0810   40.2400 C.3       6 GLP5        0.0000 
     60 CA         11.2497   12.5278   37.5697 C.3       3 GLC5        0.0000 
     61 CA         12.8470   12.8740   39.0410 C.3       9 GLL5        0.0000 
     62 CA          9.3410   12.2990   36.7250 C.3       6 GLP5        0.0000 
     63 CA         15.6008   11.6775   36.8697 C.3       3 GLC5        0.0000 
     64 CA         13.4700   12.6390   37.7880 C.3       9 GLL5        0.0000 
     65 CA         17.0500   10.5650   36.0450 C.3       6 GLP5        0.0000 
     66 CA         16.7395   12.1105   37.2752 C.3       3 GLC5        0.0000 
     67 CA         15.5900   13.4870   38.6700 C.3       9 GLL5        0.0000 
     68 CA          8.7085   20.6360   38.6598 C.3       3 GLC5        0.0000 
     69 CA          9.9570   20.6020   37.2510 C.3       9 GLL5        0.0000 
     70 CA          7.8640   20.1980   40.4230 C.3       6 GLP5        0.0000 
     71 CA         17.7946   18.7605   43.8808 C.3       3 GLC5        0.0000 
     72 CA         17.8610   20.6950   43.9960 C.3       6 GLP5        0.0000 
     73 CA          9.2540   22.4200   32.8625 C.3       3 GLC5        0.0000 
     74 CA          9.1510   20.9910   31.3000 C.3       6 GLP5        0.0000 
     75 CA         11.6494   25.5951   34.7466 C.3       3 GLC5        0.0000 
     76 CA         11.1020   24.1850   33.8240 C.3       9 GLL5        0.0000 
     77 CA         12.1890   27.4580   35.2660 C.3       6 GLP5        0.0000 
     78 CA          9.1754   23.8984   36.8574 C.3       3 GLC5        0.0000 
     79 CA          9.0050   23.4200   34.8770 C.3       9 GLL5        0.0000 
     80 CA          9.1330   25.0890   38.2360 C.3       6 GLP5        0.0000 
     81 CA          8.3607   20.5138   35.8989 C.3       3 GLC5        0.0000 
     82 CA          9.7120   22.4450   35.6190 C.3       9 GLL5        0.0000 
     83 CA          7.0890   19.2680   35.5400 C.3       6 GLP5        0.0000 
     84 CA         11.7725   23.7109   36.9474 C.3       3 GLC5        0.0000 
     85 CA         11.8400   25.2920   38.3210 C.3       6 GLP5        0.0000 
     86 CA         13.2865   22.9119   36.0274 C.3       3 GLC5        0.0000 
     87 CA         14.8680   23.6940   36.4810 C.3       6 GLP5        0.0000 
     88 CA         14.2578   20.4303   38.6608 C.3       3 GLC5        0.0000 
     89 CA         13.5150   19.2700   37.3560 C.3       9 GLL5        0.0000 
     90 CA         14.5990   22.0540   39.5860 C.3       6 GLP5        0.0000 
     91 CA         13.8660   20.0000   39.5450 C.3       3 GLC5        0.0000 
     92 CA         13.7830   17.7770   39.2930 C.3       9 GLL5        0.0000 
     93 CA         13.1689   20.8041   38.8918 C.3       3 GLC5        0.0000 
     94 CA         12.6175   19.2627   41.1137 C.3       3 GLC5        0.0000 
     95 CA         12.8180   20.0410   42.9890 C.3       6 GLP5        0.0000 
@<TRIPOS>BOND
@<TRIPOS>SUBSTRUCTURE
     1 SEC2       51 GROUP        1 X    SEC  0     ROOT SEC X 2
     2 LYC4       48 GROUP        1 X    LYC  0     **** LYC X 4
     3 GLC5        1 GROUP        1 X    GLC  0     **** GLC X 6
     4 SEP2       53 GROUP        1 Y    SEP  0     ROOT SEP Y 9
     5 LYP4       50 GROUP        1 Y    LYP  0     **** LYP Y 11
     6 GLP5        3 GROUP        1 Y    GLP  0     **** GLP Y 13
     7 SEL2       52 GROUP        1 Z    SEL  0     ROOT SEL Z 16
     8 LYL4       49 GROUP        1 Z    LYL  0     **** LYL Z 18
     9 GLL5        2 GROUP        1 Z    GLL  0     **** GLL Z 20
@<TRIPOS>SET

