#    Name: 3dcu_O62_1_ligand
#    Modification time : Mon Mar 24 23:07:00 2014

@<TRIPOS>MOLECULE
3dcu_O62_1_ligand
   59    63     1     0     0
SMALL
NO_CHARGES


@<TRIPOS>ATOM
      1 C2         16.8860   15.6600   42.3730 C.2       1 O621        0.0000 
      2 C3         16.1390   15.6500   41.2200 C.2       1 O621        0.0000 
      3 C4         15.7510   14.2830   41.0170 C.2       1 O621        0.0000 
      4 C6         17.5550   16.8320   43.0670 C.3       1 O621        0.0000 
      5 C10        13.5810   13.4170   40.1230 C.ar      1 O621        0.0000 
      6 C11        12.8470   12.8740   39.0410 C.ar      1 O621        0.0000 
      7 C12        13.4700   12.6390   37.7880 C.ar      1 O621        0.0000 
      8 C13        14.8330   12.9410   37.6010 C.ar      1 O621        0.0000 
      9 C14        15.5900   13.4870   38.6700 C.ar      1 O621        0.0000 
     10 C22        11.1500   22.3820   35.4490 C.ar      1 O621        0.0000 
     11 C24        11.3550   20.5610   37.0540 C.ar      1 O621        0.0000 
     12 C25         9.9570   20.6020   37.2510 C.ar      1 O621        0.0000 
     13 C26         9.1490   21.5460   36.5420 C.ar      1 O621        0.0000 
     14 C27        12.1980   19.6100   37.7900 C.ar      1 O621        0.0000 
     15 C34         7.5630   23.6110   34.9480 C.2       1 O621        0.0000 
     16 C37        15.8350   16.8910   40.3950 C.3       1 O621        0.0000 
     17 O1         16.9550   14.3930   42.8320 O.3       1 O621        0.0000 
     18 N5         16.2540   13.5750   41.9850 N.2       1 O621        0.0000 
     19 C7         19.0840   16.8020   42.8970 C.3       1 O621        0.0000 
     20 C8         17.1370   16.8350   44.5490 C.3       1 O621        0.0000 
     21 C9         14.9590   13.7260   39.9380 C.ar      1 O621        0.0000 
     22 CL15       12.6880   13.6360   41.5800 Cl        1 O621        0.0000 
     23 CL16       17.2680   13.8250   38.3410 Cl        1 O621        0.0000 
     24 C17         9.7090   24.2780   33.9730 C.ar      1 O621        0.0000 
     25 C18        11.1020   24.1850   33.8240 C.ar      1 O621        0.0000 
     26 C19        11.8140   23.2330   34.5560 C.ar      1 O621        0.0000 
     27 C20         9.0050   23.4200   34.8770 C.ar      1 O621        0.0000 
     28 C21         9.7120   22.4450   35.6190 C.ar      1 O621        0.0000 
     29 C23        11.9280   21.4520   36.1450 C.ar      1 O621        0.0000 
     30 C28        13.5150   19.2700   37.3560 C.ar      1 O621        0.0000 
     31 C29        14.3180   18.3430   38.1150 C.ar      1 O621        0.0000 
     32 C30        13.7830   17.7770   39.2930 C.ar      1 O621        0.0000 
     33 C31        12.4830   18.1150   39.7150 C.ar      1 O621        0.0000 
     34 C32        11.7010   19.0230   38.9730 C.ar      1 O621        0.0000 
     35 O33        14.4830   16.9100   40.0350 O.3       1 O621        0.0000 
     36 O35         6.8010   22.7450   34.6360 O.co2     1 O621        0.0000 
     37 O36         7.0440   24.8040   35.3690 O.co2     1 O621        0.0000 
     38 H          17.1770   17.7525   42.6178 H         1 O621        0.0000 
     39 H          11.8552   12.6478   39.1626 H         1 O621        0.0000 
     40 H          12.9213   12.2472   37.0177 H         1 O621        0.0000 
     41 H          15.2797   12.7692   36.7003 H         1 O621        0.0000 
     42 H           9.5109   19.9546   37.9044 H         1 O621        0.0000 
     43 H           8.1352   21.5591   36.7186 H         1 O621        0.0000 
     44 H          16.5015   16.8751   39.5175 H         1 O621        0.0000 
     45 H          16.1193   17.7671   41.0001 H         1 O621        0.0000 
     46 H           9.1765   24.9680   33.4307 H         1 O621        0.0000 
     47 H          11.5898   24.8137   33.1810 H         1 O621        0.0000 
     48 H          12.8332   23.1542   34.4403 H         1 O621        0.0000 
     49 H          12.9505   21.4243   35.9822 H         1 O621        0.0000 
     50 H          13.8951   19.6806   36.5071 H         1 O621        0.0000 
     51 H          15.2475   18.1109   37.7974 H         1 O621        0.0000 
     52 H          12.1006   17.6966   40.5709 H         1 O621        0.0000 
     53 H          10.7549   19.2615   39.2978 H         1 O621        0.0000 
     54 H          19.5240   17.5731   43.3572 H         1 O621        0.0000 
     55 H          19.4835   15.9674   43.2763 H         1 O621        0.0000 
     56 H          19.3515   16.8438   41.9344 H         1 O621        0.0000 
     57 H          17.4087   15.9920   45.0132 H         1 O621        0.0000 
     58 H          17.5534   17.5932   45.0508 H         1 O621        0.0000 
     59 H          16.1465   16.9220   44.6553 H         1 O621        0.0000 
@<TRIPOS>BOND
     1    2    1 2    
     2    4    1 1    
     3   17    1 1    
     4    3    2 1    
     5   16    2 1    
     6   18    3 2    
     7   21    3 1    
     8   19    4 1    
     9   20    4 1    
    10   38    4 1    
    11    6    5 ar   
    12   21    5 ar   
    13   22    5 1    
    14    7    6 ar   
    15   39    6 1    
    16    8    7 ar   
    17   40    7 1    
    18    9    8 ar   
    19   41    8 1    
    20   21    9 ar   
    21   23    9 1    
    22   26   10 ar   
    23   28   10 ar   
    24   29   10 ar   
    25   12   11 ar   
    26   14   11 1    
    27   29   11 ar   
    28   13   12 ar   
    29   42   12 1    
    30   28   13 ar   
    31   43   13 1    
    32   30   14 ar   
    33   34   14 ar   
    34   27   15 1    
    35   36   15 ar   
    36   37   15 ar   
    37   35   16 1    
    38   44   16 1    
    39   45   16 1    
    40   18   17 1    
    41   54   19 1    
    42   55   19 1    
    43   56   19 1    
    44   57   20 1    
    45   58   20 1    
    46   59   20 1    
    47   25   24 ar   
    48   27   24 ar   
    49   46   24 1    
    50   26   25 ar   
    51   47   25 1    
    52   48   26 1    
    53   28   27 ar   
    54   49   29 1    
    55   31   30 ar   
    56   50   30 1    
    57   32   31 ar   
    58   51   31 1    
    59   33   32 ar   
    60   35   32 1    
    61   34   33 ar   
    62   52   33 1    
    63   53   34 1    
@<TRIPOS>SUBSTRUCTURE
     1 O621        1 GROUP   
@<TRIPOS>SET

