#    Name: 2z7q_ACP_1_INTS_M
#    Modification time : Tue Mar 25 10:23:16 2014

@<TRIPOS>MOLECULE
2z7q_ACP_1_INTS_M
   39     0    15     0     0
SMALL
NO_CHARGES


@<TRIPOS>ATOM
      1 NZ          4.5035   -9.9420   18.0210 N.4       3 LYC4        0.0000 
      2 NZ          4.6980   -9.4810   19.4020 N.4      13 LYL4        0.0000 
      3 NZ          4.3090  -10.4030   16.6400 N.4       8 LYP4        0.0000 
      4 N           4.5035   -9.9420   18.0210 N.am      2 SEC2        0.0000 
      5 N           4.6980   -9.4810   19.4020 N.am     12 SEL2        0.0000 
      6 N           4.3090  -10.4030   16.6400 N.am      7 SEP2        0.0000 
      7 N           5.8130  -11.1540   22.7445 N.am      2 SEC2        0.0000 
      8 N           4.9920   -9.9290   21.8590 N.am     12 SEL2        0.0000 
      9 N           6.6340  -12.3790   23.6300 N.am      7 SEP2        0.0000 
     10 Zn          1.9450   -6.3155   21.7500 Zn        4 ZIC7        0.0000 
     11 Zn          1.2200   -7.2520   21.6140 Zn       14 ZIL7        0.0000 
     12 Zn          2.6700   -5.3790   21.8860 Zn        9 ZIP7        0.0000 
     13 Zn          2.9825   -6.1990   22.7835 Zn        4 ZIC7        0.0000 
     14 Zn          3.2950   -7.0190   23.6810 Zn       14 ZIL7        0.0000 
     15 CA         -0.8705    1.2475   25.6210 C.3       5 GLC5        0.0000 
     16 CA         -0.4700   -0.7570   26.4220 C.3      15 GLL5        0.0000 
     17 CA         -1.2710    3.2520   24.8200 C.3      10 GLP5        0.0000 
     18 O           0.2765    1.3390   27.2605 O.2       1 ALC1        0.0000 
     19 O           0.4810    0.2140   26.5550 O.2      11 ALL1        0.0000 
     20 O           0.0720    2.4640   27.9660 O.2       6 ALP1        0.0000 
     21 N          -2.5370    0.7990   26.7100 N.am      2 SEC2        0.0000 
     22 N          -1.8090   -0.4910   26.6430 N.am     12 SEL2        0.0000 
     23 N          -3.2650    2.0890   26.7770 N.am      7 SEP2        0.0000 
     24 CA         -2.8855   -2.6595   28.0755 C.3       5 GLC5        0.0000 
     25 CA         -2.7740   -1.4550   26.5140 C.3      15 GLL5        0.0000 
     26 CA         -2.9970   -3.8640   29.6370 C.3      10 GLP5        0.0000 
     27 CA         -3.4520    0.4410   26.0710 C.3       5 GLC5        0.0000 
     28 CA         -4.1300    2.3370   25.6280 C.3      10 GLP5        0.0000 
     29 CA         -2.0005   -1.2815   24.7335 C.3       5 GLC5        0.0000 
     30 CA         -1.2270   -1.1080   22.9530 C.3      10 GLP5        0.0000 
     31 CA         -2.0730   -3.4800   27.7835 C.3       5 GLC5        0.0000 
     32 CA         -1.1490   -3.0960   25.9300 C.3      15 GLL5        0.0000 
     33 CA         -0.7115   -9.1755   27.1325 C.3       5 GLC5        0.0000 
     34 CA         -1.0660   -7.8000   25.7400 C.3      15 GLL5        0.0000 
     35 CA         -0.9880  -10.2470   28.7680 C.3      10 GLP5        0.0000 
     36 CA          0.1062   -0.9307   28.0288 C.3       5 GLC5        0.0000 
     37 CA         -0.0550   -2.1240   26.0510 C.3      15 GLL5        0.0000 
     38 CA          0.4750   -0.4210   29.8210 C.3      10 GLP5        0.0000 
     39 CA         -0.9664   -1.6881   24.5181 C.3       5 GLC5        0.0000 
@<TRIPOS>BOND
@<TRIPOS>SUBSTRUCTURE
     1 ALC1       18 GROUP        1 X    ALC  0     ROOT ALC X 1
     2 SEC2        4 GROUP        1 X    SEC  0     **** SEC X 2
     3 LYC4        1 GROUP        1 X    LYC  0     **** LYC X 4
     4 ZIC7       10 GROUP        1 X    ZIC  0     **** ZIC X 5
     5 GLC5       15 GROUP        1 X    GLC  0     **** GLC X 6
     6 ALP1       20 GROUP        1 Y    ALP  0     ROOT ALP Y 8
     7 SEP2        6 GROUP        1 Y    SEP  0     **** SEP Y 9
     8 LYP4        3 GROUP        1 Y    LYP  0     **** LYP Y 11
     9 ZIP7       12 GROUP        1 Y    ZIP  0     **** ZIP Y 12
    10 GLP5       17 GROUP        1 Y    GLP  0     **** GLP Y 13
    11 ALL1       19 GROUP        1 Z    ALL  0     ROOT ALL Z 15
    12 SEL2        5 GROUP        1 Z    SEL  0     **** SEL Z 16
    13 LYL4        2 GROUP        1 Z    LYL  0     **** LYL Z 18
    14 ZIL7       11 GROUP        1 Z    ZIL  0     **** ZIL Z 19
    15 GLL5       16 GROUP        1 Z    GLL  0     **** GLL Z 20
@<TRIPOS>SET

