#    Name: 2z7q_ACP_1_ligand
#    Modification time : Tue Mar 25 10:23:16 2014

@<TRIPOS>MOLECULE
2z7q_ACP_1_ligand
   45    47     1     0     0
SMALL
NO_CHARGES


@<TRIPOS>ATOM
      1 PG          4.2350   -9.1850   20.7780 P.3       1 ACP500      0.0000 
      2 O1G         4.6980   -9.4810   19.4020 O.co2     1 ACP500      0.0000 
      3 O2G         4.1930   -7.6980   21.0500 O.co2     1 ACP500      0.0000 
      4 O3G         4.9920   -9.9290   21.8590 O.co2     1 ACP500      0.0000 
      5 PB          1.3850   -8.7730   21.7120 P.3       1 ACP500      0.0000 
      6 O1B        -0.0290   -9.3300   21.5840 O.co2     1 ACP500      0.0000 
      7 O2B         1.2200   -7.2520   21.6140 O.co2     1 ACP500      0.0000 
      8 C3B         2.6040   -9.6880   20.7930 C.3       1 ACP500      0.0000 
      9 PA          2.3510   -8.1310   24.1520 P.3       1 ACP500      0.0000 
     10 O1A         3.2950   -7.0190   23.6810 O.co2     1 ACP500      0.0000 
     11 O2A         3.1210   -9.0110   25.1080 O.co2     1 ACP500      0.0000 
     12 O3A         2.1020   -9.1700   22.9650 O.3       1 ACP500      0.0000 
     13 O5'         1.1410   -7.5020   24.7560 O.3       1 ACP500      0.0000 
     14 C5'         0.1960   -8.4080   25.2540 C.3       1 ACP500      0.0000 
     15 C4'        -1.0660   -7.8000   25.7400 C.3       1 ACP500      0.0000 
     16 O4'        -0.8390   -6.4530   26.1780 O.3       1 ACP500      0.0000 
     17 C3'        -1.7970   -7.5450   24.3970 C.3       1 ACP500      0.0000 
     18 O3'        -3.1900   -7.7440   24.5420 O.3       1 ACP500      0.0000 
     19 C2'        -1.4920   -6.0920   24.0230 C.3       1 ACP500      0.0000 
     20 O2'        -2.5290   -5.6620   23.1940 O.3       1 ACP500      0.0000 
     21 C1'        -1.4220   -5.4490   25.3570 C.3       1 ACP500      0.0000 
     22 N9         -0.5840   -4.2410   25.5730 N.pl3     1 ACP500      0.0000 
     23 C8          0.7670   -4.0550   25.4750 C.2       1 ACP500      0.0000 
     24 N7          1.0900   -2.7640   25.7570 N.2       1 ACP500      0.0000 
     25 C5         -0.0550   -2.1240   26.0510 C.ar      1 ACP500      0.0000 
     26 C6         -0.4700   -0.7570   26.4220 C.ar      1 ACP500      0.0000 
     27 N6          0.4810    0.2140   26.5550 N.pl3     1 ACP500      0.0000 
     28 N1         -1.8090   -0.4910   26.6430 N.ar      1 ACP500      0.0000 
     29 C2         -2.7740   -1.4550   26.5140 C.ar      1 ACP500      0.0000 
     30 N3         -2.4420   -2.7380   26.1590 N.ar      1 ACP500      0.0000 
     31 C4         -1.1490   -3.0960   25.9300 C.ar      1 ACP500      0.0000 
     32 H           2.5648  -10.7023   21.1901 H         1 ACP500      0.0000 
     33 H           2.2425   -9.7000   19.7648 H         1 ACP500      0.0000 
     34 H           0.6287   -9.0192   26.0963 H         1 ACP500      0.0000 
     35 H          -0.0720   -9.1788   24.4766 H         1 ACP500      0.0000 
     36 H          -1.6183   -8.3785   26.3185 H         1 ACP500      0.0000 
     37 H          -1.3509   -8.1783   23.6627 H         1 ACP500      0.0000 
     38 H          -0.5326   -6.0963   23.5704 H         1 ACP500      0.0000 
     39 H          -2.4298   -5.2705   25.7281 H         1 ACP500      0.0000 
     40 H           1.4044   -4.7505   25.2368 H         1 ACP500      0.0000 
     41 H           1.4216   -0.0611   26.3558 H         1 ACP500      0.0000 
     42 H           0.1533    1.1148   26.8399 H         1 ACP500      0.0000 
     43 H          -3.7706   -1.2121   26.6871 H         1 ACP500      0.0000 
     44 H          -3.3812   -8.5976   24.0575 H         1 ACP500      0.0000 
     45 H          -3.3135   -6.2288   23.4458 H         1 ACP500      0.0000 
@<TRIPOS>BOND
     1    2    1 ar   
     2    3    1 ar   
     3    4    1 ar   
     4    8    1 1    
     5    6    5 ar   
     6    7    5 ar   
     7    8    5 1    
     8   12    5 1    
     9   32    8 1    
    10   33    8 1    
    11   10    9 ar   
    12   11    9 ar   
    13   12    9 1    
    14   13    9 1    
    15   14   13 1    
    16   15   14 1    
    17   34   14 1    
    18   35   14 1    
    19   16   15 1    
    20   17   15 1    
    21   36   15 1    
    22   21   16 1    
    23   18   17 1    
    24   19   17 1    
    25   37   17 1    
    26   44   18 1    
    27   20   19 1    
    28   21   19 1    
    29   38   19 1    
    30   45   20 1    
    31   22   21 1    
    32   39   21 1    
    33   23   22 1    
    34   31   22 1    
    35   24   23 2    
    36   40   23 1    
    37   25   24 1    
    38   26   25 ar   
    39   31   25 ar   
    40   27   26 1    
    41   28   26 ar   
    42   41   27 1    
    43   42   27 1    
    44   29   28 ar   
    45   30   29 ar   
    46   43   29 1    
    47   31   30 ar   
@<TRIPOS>SUBSTRUCTURE
     1 ACP500      1 GROUP   
@<TRIPOS>SET

