#    Name: 4au8_Z3R_1_INTS_M
#    Modification time : Tue Mar 25 06:14:24 2014

@<TRIPOS>MOLECULE
4au8_Z3R_1_INTS_M
   49     0     9     0     0
SMALL
NO_CHARGES


@<TRIPOS>ATOM
      1 CA          7.3130   26.1130    1.2110 C.3       3 GLC5        0.0000 
      2 CA          9.0120   27.1830    1.8590 C.3       9 GLL5        0.0000 
      3 CA          5.6140   25.0430    0.5630 C.3       6 GLP5        0.0000 
      4 CA          8.5145   28.4270   -2.5980 C.3       3 GLC5        0.0000 
      5 CA         10.0980   29.8330   -2.6130 C.3       9 GLL5        0.0000 
      6 CA          6.9310   27.0210   -2.5830 C.3       6 GLP5        0.0000 
      7 CA          9.9140   31.6960   -3.8165 C.3       3 GLC5        0.0000 
      8 CA          9.7300   33.5590   -5.0200 C.3       6 GLP5        0.0000 
      9 N          13.3950   30.1905   -1.8760 N.am      2 SEC2        0.0000 
     10 N          13.3550   29.0580   -2.8850 N.am      8 SEL2        0.0000 
     11 N          13.4350   31.3230   -0.8670 N.am      5 SEP2        0.0000 
     12 O          12.1320   25.7160   -1.8875 O.2       1 ALC1        0.0000 
     13 O          13.0810   26.7140   -1.9880 O.2       7 ALL1        0.0000 
     14 O          11.1830   24.7180   -1.7870 O.2       4 ALP1        0.0000 
     15 O          13.7005   27.1515   -0.7485 O.2       1 ALC1        0.0000 
     16 O          14.3200   27.5890    0.4910 O.2       4 ALP1        0.0000 
     17 CA          4.8210   30.5457    3.9938 C.3       3 GLC5        0.0000 
     18 CA          5.5530   28.8630    2.7510 C.3       9 GLL5        0.0000 
     19 CA          4.2870   32.4930    4.6330 C.3       6 GLP5        0.0000 
     20 CA          3.4650   29.1448    3.0847 C.3       3 GLC5        0.0000 
     21 CA          1.5750   29.6910    2.8150 C.3       6 GLP5        0.0000 
     22 CA          6.5268   25.3720    3.3737 C.3       3 GLC5        0.0000 
     23 CA          5.9480   27.3760    4.6200 C.3       9 GLL5        0.0000 
     24 CA          6.4980   23.5780    2.4030 C.3       6 GLP5        0.0000 
     25 CA          5.5987   25.6600    5.1348 C.3       3 GLC5        0.0000 
     26 CA          7.1630   26.9560    4.0690 C.3       9 GLL5        0.0000 
     27 CA          4.6420   24.1540    5.9250 C.3       6 GLP5        0.0000 
     28 CA          7.1644   28.8483    5.3175 C.3       3 GLC5        0.0000 
     29 CA          7.9710   30.2910    6.4560 C.3       6 GLP5        0.0000 
     30 CA          9.1155   29.1273    2.4945 C.3       3 GLC5        0.0000 
     31 CA          7.5640   27.4860    2.8310 C.3       9 GLL5        0.0000 
     32 CA          9.9430   30.9200    2.6440 C.3       6 GLP5        0.0000 
     33 CA          4.9130   28.5847    1.0208 C.3       3 GLC5        0.0000 
     34 CA          6.7790   28.4420    2.1620 C.3       9 GLL5        0.0000 
     35 CA          3.6600   28.5170   -0.4150 C.3       6 GLP5        0.0000 
     36 CA          6.9085   30.3362    2.7363 C.3       3 GLC5        0.0000 
     37 CA          7.6510   32.0200    3.0160 C.3       6 GLP5        0.0000 
     38 CA          5.9881   26.7282    1.5934 C.3       3 GLC5        0.0000 
     39 CA          8.0237   28.1035   -1.7580 C.3       3 GLC5        0.0000 
     40 CA          9.2820   28.6850   -0.5170 C.3       9 GLL5        0.0000 
     41 CA          9.5297   30.0530    0.8555 C.3       3 GLC5        0.0000 
     42 CA          9.7970   26.9228   -2.4832 C.3       3 GLC5        0.0000 
     43 CA         10.4620   28.0150   -0.8630 C.3       9 GLL5        0.0000 
     44 CA          8.8600   25.5850   -3.5500 C.3       6 GLP5        0.0000 
     45 CA         12.2240   29.0302   -0.1457 C.3       3 GLC5        0.0000 
     46 CA         11.0060   28.5060   -1.9700 C.3       9 GLL5        0.0000 
     47 CA         13.7140   29.8000    1.1250 C.3       6 GLP5        0.0000 
     48 CA         11.6225   30.7987   -2.5933 C.3       3 GLC5        0.0000 
     49 CA         12.6930   32.4280   -2.8950 C.3       6 GLP5        0.0000 
@<TRIPOS>BOND
@<TRIPOS>SUBSTRUCTURE
     1 ALC1       12 GROUP        1 X    ALC  0     ROOT ALC X 1
     2 SEC2        9 GROUP        1 X    SEC  0     **** SEC X 2
     3 GLC5        1 GROUP        1 X    GLC  0     **** GLC X 6
     4 ALP1       14 GROUP        1 Y    ALP  0     ROOT ALP Y 8
     5 SEP2       11 GROUP        1 Y    SEP  0     **** SEP Y 9
     6 GLP5        3 GROUP        1 Y    GLP  0     **** GLP Y 13
     7 ALL1       13 GROUP        1 Z    ALL  0     ROOT ALL Z 15
     8 SEL2       10 GROUP        1 Z    SEL  0     **** SEL Z 16
     9 GLL5        2 GROUP        1 Z    GLL  0     **** GLL Z 20
@<TRIPOS>SET

