#    Name: 4au8_Z3R_1_ligand
#    Modification time : Tue Mar 25 06:14:24 2014

@<TRIPOS>MOLECULE
4au8_Z3R_1_ligand
   26    28     1     0     0
SMALL
NO_CHARGES


@<TRIPOS>ATOM
      1 C1          5.1570   28.3340    3.9580 C.ar      1 Z3R1293     0.0000 
      2 C2          5.9480   27.3760    4.6200 C.ar      1 Z3R1293     0.0000 
      3 C3          7.1630   26.9560    4.0690 C.ar      1 Z3R1293     0.0000 
      4 C4          7.5640   27.4860    2.8310 C.ar      1 Z3R1293     0.0000 
      5 C5          6.7790   28.4420    2.1620 C.ar      1 Z3R1293     0.0000 
      6 C6          5.5530   28.8630    2.7510 C.ar      1 Z3R1293     0.0000 
      7 N7          7.3340   28.8600    0.9940 N.2       1 Z3R1293     0.0000 
      8 C8          8.4900   28.3580    0.6780 C.2       1 Z3R1293     0.0000 
      9 S9          9.0120   27.1830    1.8590 S.3       1 Z3R1293     0.0000 
     10 C10         9.2820   28.6850   -0.5170 C.2       1 Z3R1293     0.0000 
     11 C11        10.4620   28.0150   -0.8630 C.2       1 Z3R1293     0.0000 
     12 C12        11.0060   28.5060   -1.9700 C.2       1 Z3R1293     0.0000 
     13 S13        10.0980   29.8330   -2.6130 S.3       1 Z3R1293     0.0000 
     14 C14         8.9510   29.6870   -1.3490 C.2       1 Z3R1293     0.0000 
     15 S15        12.4410   27.9800   -2.8160 S.o2      1 Z3R1293     0.0000 
     16 O16        11.8960   27.4650   -4.0210 O.2       1 Z3R1293     0.0000 
     17 O17        13.3550   29.0580   -2.8850 O.2       1 Z3R1293     0.0000 
     18 N18        13.0810   26.7140   -1.9880 N.pl3     1 Z3R1293     0.0000 
     19 H           4.2700   28.6348    4.3954 H         1 Z3R1293     0.0000 
     20 H           5.6270   26.9849    5.5142 H         1 Z3R1293     0.0000 
     21 H           7.7472   26.2800    4.5528 H         1 Z3R1293     0.0000 
     22 H           4.9829   29.5583    2.2610 H         1 Z3R1293     0.0000 
     23 H          10.8144   27.2719   -0.3231 H         1 Z3R1293     0.0000 
     24 H           8.2623   30.3081   -1.4023 H         1 Z3R1293     0.0000 
     25 H          13.7930   26.9382   -1.3226 H         1 Z3R1293     0.0000 
     26 H          12.7118   25.8115   -2.2098 H         1 Z3R1293     0.0000 
@<TRIPOS>BOND
     1    2    1 ar   
     2    6    1 ar   
     3   19    1 1    
     4    3    2 ar   
     5   20    2 1    
     6    4    3 ar   
     7   21    3 1    
     8    5    4 ar   
     9    9    4 1    
    10    6    5 ar   
    11    7    5 1    
    12   22    6 1    
    13    8    7 2    
    14    9    8 1    
    15   10    8 1    
    16   11   10 1    
    17   14   10 2    
    18   12   11 2    
    19   23   11 1    
    20   13   12 1    
    21   15   12 1    
    22   14   13 1    
    23   24   14 1    
    24   16   15 2    
    25   17   15 2    
    26   18   15 1    
    27   25   18 1    
    28   26   18 1    
@<TRIPOS>SUBSTRUCTURE
     1 Z3R1293     1 GROUP   
@<TRIPOS>SET

