#    Name: 1ebu_NDA_1_INTS_M
#    Modification time : Mon Mar 24 23:23:56 2014

@<TRIPOS>MOLECULE
1ebu_NDA_1_INTS_M
   76     0     9     0     0
SMALL
NO_CHARGES


@<TRIPOS>ATOM
      1 N          40.0995   18.8325   69.7930 N.am      1 SEC2        0.0000 
      2 N          39.9610   20.2590   70.3350 N.am      7 SEL2        0.0000 
      3 N          40.2380   17.4060   69.2510 N.am      4 SEP2        0.0000 
      4 CA         45.6375   21.0140   73.8850 C.3       3 GLC5        0.0000 
      5 CA         43.5270   20.2430   73.8200 C.3       9 GLL5        0.0000 
      6 CA         47.7480   21.7850   73.9500 C.3       6 GLP5        0.0000 
      7 CA         41.8335   18.6275   73.1990 C.3       3 GLC5        0.0000 
      8 CA         42.5200   19.8170   74.9200 C.3       9 GLL5        0.0000 
      9 CA         41.1470   17.4380   71.4780 C.3       6 GLP5        0.0000 
     10 N          43.5080   17.5750   74.6145 N.am      1 SEC2        0.0000 
     11 N          42.6170   18.4040   75.1720 N.am      7 SEL2        0.0000 
     12 N          44.3990   16.7460   74.0570 N.am      4 SEP2        0.0000 
     13 CA         45.3885   19.5035   75.0520 C.3       3 GLC5        0.0000 
     14 CA         44.3950   20.9110   75.8730 C.3       9 GLL5        0.0000 
     15 CA         46.3820   18.0960   74.2310 C.3       6 GLP5        0.0000 
     16 CA         46.0715   21.3480   74.9115 C.3       3 GLC5        0.0000 
     17 CA         48.4405   20.5925   77.9890 C.3       3 GLC5        0.0000 
     18 CA         47.2290   21.4340   79.2390 C.3       9 GLL5        0.0000 
     19 CA         49.6520   19.7510   76.7390 C.3       6 GLP5        0.0000 
     20 CA         46.0895   19.6480   79.3150 C.3       3 GLC5        0.0000 
     21 CA         44.9500   17.8620   79.3910 C.3       6 GLP5        0.0000 
     22 CA         45.8955   21.2075   80.3975 C.3       3 GLC5        0.0000 
     23 CA         44.5620   20.9810   81.5560 C.3       6 GLP5        0.0000 
     24 CA         48.6085   22.4825   77.8485 C.3       3 GLC5        0.0000 
     25 CA         49.9880   23.5310   76.4580 C.3       6 GLP5        0.0000 
     26 CA         47.7820   20.9275   77.1630 C.3       3 GLC5        0.0000 
     27 CA         45.9120   22.1040   77.5870 C.3       9 GLL5        0.0000 
     28 N          41.9340   18.6320   67.2795 N.am      1 SEC2        0.0000 
     29 N          41.6410   20.0740   67.5440 N.am      7 SEL2        0.0000 
     30 N          42.2270   17.1900   67.0150 N.am      4 SEP2        0.0000 
     31 N          42.8420   18.2735   68.0925 N.am      1 SEC2        0.0000 
     32 N          43.4570   19.3570   69.1700 N.am      7 SEL2        0.0000 
     33 N          43.9385   17.8015   68.8705 N.am      1 SEC2        0.0000 
     34 N          44.4200   16.2460   68.5710 N.am      4 SEP2        0.0000 
     35 CA         44.7145   19.7880   66.9870 C.3       3 GLC5        0.0000 
     36 CA         45.1120   21.5290   67.9250 C.3       9 GLL5        0.0000 
     37 CA         44.3170   18.0470   66.0490 C.3       6 GLP5        0.0000 
     38 CA         46.1030   22.1235   69.8170 C.3       3 GLC5        0.0000 
     39 CA         47.0940   22.7180   71.7090 C.3       6 GLP5        0.0000 
     40 CA         45.3180   25.3775   68.4980 C.3       3 GLC5        0.0000 
     41 CA         45.2470   24.0360   67.1660 C.3       9 GLL5        0.0000 
     42 CA         45.3890   26.7190   69.8300 C.3       6 GLP5        0.0000 
     43 CA         42.8220   23.6305   62.5095 C.3       3 GLC5        0.0000 
     44 CA         43.5460   22.0690   63.6070 C.3       9 GLL5        0.0000 
     45 CA         42.0980   25.1920   61.4120 C.3       6 GLP5        0.0000 
     46 CA         44.3410   19.8600   61.8300 C.3       3 GLC5        0.0000 
     47 CA         43.0260   21.5520   62.2830 C.3       9 GLL5        0.0000 
     48 CA         45.6560   18.1680   61.3770 C.3       6 GLP5        0.0000 
     49 CA         41.1940   19.3235   60.9350 C.3       3 GLC5        0.0000 
     50 CA         41.7960   20.7320   62.2990 C.3       9 GLL5        0.0000 
     51 CA         40.5920   17.9150   59.5710 C.3       6 GLP5        0.0000 
     52 OD1        40.9930   22.2100   63.7010 O.co2     2 ASC3        0.0000 
     53 OD1        41.1100   20.4390   63.4250 O.co2     8 ASL3        0.0000 
     54 OD1        40.8760   23.9810   63.9770 O.co2     5 ASP3        0.0000 
     55 CA         42.9445   21.4955   59.5475 C.3       3 GLC5        0.0000 
     56 CA         43.7620   21.9180   61.0070 C.3       9 GLL5        0.0000 
     57 CA         42.1270   21.0730   58.0880 C.3       6 GLP5        0.0000 
     58 CA         42.1962   19.0575   72.3657 C.3       3 GLC5        0.0000 
     59 CA         42.9640   21.1110   72.6870 C.3       9 GLL5        0.0000 
     60 CA         44.7027   19.0630   74.3005 C.3       3 GLC5        0.0000 
     61 CA         46.9008   22.2817   75.8270 C.3       3 GLC5        0.0000 
     62 CA         46.1950   23.4530   77.8210 C.3       9 GLL5        0.0000 
     63 CA         44.9933   22.5180   79.6009 C.3       3 GLC5        0.0000 
     64 CA         43.7010   22.1800   81.2390 C.3       6 GLP5        0.0000 
     65 CA         48.1367   23.1935   77.2104 C.3       3 GLC5        0.0000 
     66 CA         47.2615   21.2985   66.9883 C.3       3 GLC5        0.0000 
     67 CA         49.0550   20.5280   66.4470 C.3       6 GLP5        0.0000 
     68 CA         42.2690   21.1075   60.1895 C.3       3 GLC5        0.0000 
     69 CA         41.1990   22.4360   62.0175 C.3       3 GLC5        0.0000 
     70 CA         39.9870   23.7300   61.7440 C.3       6 GLP5        0.0000 
     71 CA         43.0490   20.0811   63.8395 C.3       3 GLC5        0.0000 
     72 CA         43.5570   18.8910   65.0570 C.3       6 GLP5        0.0000 
     73 CA         45.7619   20.8953   61.9589 C.3       3 GLC5        0.0000 
     74 CA         46.6350   19.0500   62.1310 C.3       6 GLP5        0.0000 
     75 CA         43.4934   23.9663   61.5994 C.3       3 GLC5        0.0000 
     76 CA         44.9750   22.7480   61.2540 C.3       9 GLL5        0.0000 
@<TRIPOS>BOND
@<TRIPOS>SUBSTRUCTURE
     1 SEC2        1 GROUP        1 X    SEC  0     ROOT SEC X 2
     2 ASC3       52 GROUP        1 X    ASC  0     **** ASC X 3
     3 GLC5        4 GROUP        1 X    GLC  0     **** GLC X 6
     4 SEP2        3 GROUP        1 Y    SEP  0     ROOT SEP Y 9
     5 ASP3       54 GROUP        1 Y    ASP  0     **** ASP Y 10
     6 GLP5        6 GROUP        1 Y    GLP  0     **** GLP Y 13
     7 SEL2        2 GROUP        1 Z    SEL  0     ROOT SEL Z 16
     8 ASL3       53 GROUP        1 Z    ASL  0     **** ASL Z 17
     9 GLL5        5 GROUP        1 Z    GLL  0     **** GLL Z 20
@<TRIPOS>SET

