#    Name: 1ebu_NDA_1_ligand
#    Modification time : Mon Mar 24 23:23:56 2014

@<TRIPOS>MOLECULE
1ebu_NDA_1_ligand
   72    76     1     0     0
SMALL
NO_CHARGES


@<TRIPOS>ATOM
      1 PA         41.0670   21.1830   70.7970 P.3       1 NDA1300     0.0000 
      2 O1A        40.6090   22.5040   71.3690 O.co2     1 NDA1300     0.0000 
      3 O2A        39.9610   20.2590   70.3350 O.co2     1 NDA1300     0.0000 
      4 O5B        41.9920   20.3760   71.8900 O.3       1 NDA1300     0.0000 
      5 C5B        42.9640   21.1110   72.6870 C.3       1 NDA1300     0.0000 
      6 C4B        43.5270   20.2430   73.8200 C.3       1 NDA1300     0.0000 
      7 O4B        44.4850   21.1100   74.4880 O.3       1 NDA1300     0.0000 
      8 C3B        42.5200   19.8170   74.9200 C.3       1 NDA1300     0.0000 
      9 O3B        42.6170   18.4040   75.1720 O.3       1 NDA1300     0.0000 
     10 C2B        42.9020   20.7300   76.0920 C.3       1 NDA1300     0.0000 
     11 O2B        42.5670   20.1300   77.3740 O.3       1 NDA1300     0.0000 
     12 C1B        44.3950   20.9110   75.8730 C.3       1 NDA1300     0.0000 
     13 N9A        44.9870   22.1000   76.5290 N.pl3     1 NDA1300     0.0000 
     14 C8A        44.7940   23.4220   76.1860 C.2       1 NDA1300     0.0000 
     15 N7A        45.5020   24.2750   76.9340 N.2       1 NDA1300     0.0000 
     16 C5A        46.1950   23.4530   77.8210 C.ar      1 NDA1300     0.0000 
     17 C6A        47.1230   23.7630   78.8560 C.ar      1 NDA1300     0.0000 
     18 N6A        47.5110   24.9940   79.2040 N.pl3     1 NDA1300     0.0000 
     19 N1A        47.5790   22.7090   79.6410 N.ar      1 NDA1300     0.0000 
     20 C2A        47.2290   21.4340   79.2390 C.ar      1 NDA1300     0.0000 
     21 N3A        46.4080   21.0320   78.2790 N.ar      1 NDA1300     0.0000 
     22 C4A        45.9120   22.1040   77.5870 C.ar      1 NDA1300     0.0000 
     23 O3         42.0840   21.4890   69.6120 O.3       1 NDA1300     0.0000 
     24 PN         42.7660   20.5080   68.4400 P.3       1 NDA1300     0.0000 
     25 O1N        41.6410   20.0740   67.5440 O.co2     1 NDA1300     0.0000 
     26 O2N        43.4570   19.3570   69.1700 O.co2     1 NDA1300     0.0000 
     27 O5D        43.7010   21.5950   67.6830 O.3       1 NDA1300     0.0000 
     28 C5D        45.1120   21.5290   67.9250 C.3       1 NDA1300     0.0000 
     29 C4D        45.8240   22.6090   67.1340 C.3       1 NDA1300     0.0000 
     30 O4D        45.8120   22.2310   65.7100 O.3       1 NDA1300     0.0000 
     31 C3D        45.2470   24.0360   67.1660 C.3       1 NDA1300     0.0000 
     32 O3D        46.3250   25.0090   67.1520 O.3       1 NDA1300     0.0000 
     33 C2D        44.4090   24.0750   65.8690 C.3       1 NDA1300     0.0000 
     34 O2D        44.1750   25.4550   65.4700 O.3       1 NDA1300     0.0000 
     35 C1D        45.3320   23.3220   64.9400 C.3       1 NDA1300     0.0000 
     36 N1N        44.7310   22.8320   63.6730 N.pl3     1 NDA1300     0.0000 
     37 C2N        43.5460   22.0690   63.6070 C.ar      1 NDA1300     0.0000 
     38 C3N        43.0260   21.5520   62.2830 C.ar      1 NDA1300     0.0000 
     39 C7N        41.7960   20.7320   62.2990 C.3       1 NDA1300     0.0000 
     40 N7N        41.1100   20.4390   63.4250 N.4       1 NDA1300     0.0000 
     41 C4N        43.7620   21.9180   61.0070 C.ar      1 NDA1300     0.0000 
     42 C5N        44.9750   22.7480   61.2540 C.ar      1 NDA1300     0.0000 
     43 C6N        45.4090   23.1480   62.4430 C.ar      1 NDA1300     0.0000 
     44 H          42.5092   22.0029   73.1392 H         1 NDA1300     0.0000 
     45 H          43.8073   21.4473   72.0685 H         1 NDA1300     0.0000 
     46 H          44.0181   19.3983   73.4277 H         1 NDA1300     0.0000 
     47 H          41.5500   20.1225   74.5680 H         1 NDA1300     0.0000 
     48 H          42.4250   21.6711   75.9283 H         1 NDA1300     0.0000 
     49 H          44.8966   20.0186   76.1579 H         1 NDA1300     0.0000 
     50 H          44.1820   23.6925   75.4492 H         1 NDA1300     0.0000 
     51 H          47.1476   25.7430   78.6500 H         1 NDA1300     0.0000 
     52 H          48.1299   25.0554   79.9871 H         1 NDA1300     0.0000 
     53 H          47.7259   20.6301   79.8269 H         1 NDA1300     0.0000 
     54 H          45.5257   20.5578   67.6247 H         1 NDA1300     0.0000 
     55 H          45.3442   21.6756   68.9876 H         1 NDA1300     0.0000 
     56 H          46.8680   22.6635   67.4456 H         1 NDA1300     0.0000 
     57 H          44.6023   24.1136   67.9872 H         1 NDA1300     0.0000 
     58 H          43.5419   23.5134   66.0355 H         1 NDA1300     0.0000 
     59 H          46.1764   23.9851   64.7119 H         1 NDA1300     0.0000 
     60 H          43.0046   21.8406   64.4314 H         1 NDA1300     0.0000 
     61 H          42.0633   19.7513   61.7167 H         1 NDA1300     0.0000 
     62 H          41.0857   21.2135   61.5016 H         1 NDA1300     0.0000 
     63 H          43.4724   21.6436   60.1581 H         1 NDA1300     0.0000 
     64 H          45.4939   23.0096   60.3616 H         1 NDA1300     0.0000 
     65 H          46.2847   23.7248   62.5403 H         1 NDA1300     0.0000 
     66 H          41.6725   19.9381   64.0828 H         1 NDA1300     0.0000 
     67 H          40.7839   21.2640   63.8865 H         1 NDA1300     0.0000 
     68 H          40.3078   19.8731   63.2345 H         1 NDA1300     0.0000 
     69 H          41.6971   18.0481   75.0072 H         1 NDA1300     0.0000 
     70 H          42.6390   19.1438   77.2248 H         1 NDA1300     0.0000 
     71 H          47.1624   24.4664   67.0861 H         1 NDA1300     0.0000 
     72 H          44.9643   25.9618   65.8165 H         1 NDA1300     0.0000 
@<TRIPOS>BOND
     1    2    1 ar   
     2    3    1 ar   
     3    4    1 1    
     4   23    1 1    
     5    5    4 1    
     6    6    5 1    
     7   44    5 1    
     8   45    5 1    
     9    7    6 1    
    10    8    6 1    
    11   46    6 1    
    12   12    7 1    
    13    9    8 1    
    14   10    8 1    
    15   47    8 1    
    16   69    9 1    
    17   11   10 1    
    18   12   10 1    
    19   48   10 1    
    20   70   11 1    
    21   13   12 1    
    22   49   12 1    
    23   14   13 1    
    24   22   13 1    
    25   15   14 2    
    26   50   14 1    
    27   16   15 1    
    28   17   16 ar   
    29   22   16 ar   
    30   18   17 1    
    31   19   17 ar   
    32   51   18 1    
    33   52   18 1    
    34   20   19 ar   
    35   21   20 ar   
    36   53   20 1    
    37   22   21 ar   
    38   24   23 1    
    39   25   24 ar   
    40   26   24 ar   
    41   27   24 1    
    42   28   27 1    
    43   29   28 1    
    44   54   28 1    
    45   55   28 1    
    46   30   29 1    
    47   31   29 1    
    48   56   29 1    
    49   35   30 1    
    50   32   31 1    
    51   33   31 1    
    52   57   31 1    
    53   71   32 1    
    54   34   33 1    
    55   35   33 1    
    56   58   33 1    
    57   72   34 1    
    58   36   35 1    
    59   59   35 1    
    60   37   36 ar   
    61   43   36 ar   
    62   38   37 ar   
    63   60   37 1    
    64   39   38 1    
    65   41   38 ar   
    66   40   39 1    
    67   61   39 1    
    68   62   39 1    
    69   66   40 1    
    70   67   40 1    
    71   68   40 1    
    72   42   41 ar   
    73   63   41 1    
    74   43   42 ar   
    75   64   42 1    
    76   65   43 1    
@<TRIPOS>SUBSTRUCTURE
     1 NDA1300     1 GROUP   
@<TRIPOS>SET

