#    Name: 4b14_4XB_3_INTS_M
#    Modification time : Tue Mar 25 06:31:19 2014

@<TRIPOS>MOLECULE
4b14_4XB_3_INTS_M
   81     0     9     0     0
SMALL
NO_CHARGES


@<TRIPOS>ATOM
      1 CA         14.2500   23.5330   32.4195 C.3       3 GLC5        0.0000 
      2 CA         13.7960   23.9670   34.1280 C.3       9 GLL5        0.0000 
      3 CA         14.7040   23.0990   30.7110 C.3       6 GLP5        0.0000 
      4 CA         13.9975   25.5345   35.3990 C.3       3 GLC5        0.0000 
      5 CA         14.1990   27.1020   36.6700 C.3       6 GLP5        0.0000 
      6 CA         12.5180   23.1875   35.7945 C.3       3 GLC5        0.0000 
      7 CA         11.2400   22.4080   37.4610 C.3       6 GLP5        0.0000 
      8 OD1        12.7390   18.1650   33.6410 O.co2     2 ASC3        0.0000 
      9 OD1        12.7690   19.6960   33.4090 O.co2     8 ASL3        0.0000 
     10 OD1        12.7090   16.6340   33.8730 O.co2     5 ASP3        0.0000 
     11 OD1        13.7005   18.1360   33.1680 O.co2     2 ASC3        0.0000 
     12 OD1        14.6320   16.5760   32.9270 O.co2     5 ASP3        0.0000 
     13 CA         16.9015   25.8145   35.9450 C.3       3 GLC5        0.0000 
     14 CA         16.1320   25.4120   34.0450 C.3       9 GLL5        0.0000 
     15 CA         17.6710   26.2170   37.8450 C.3       6 GLP5        0.0000 
     16 N          18.3455   27.5230   33.2570 N.am      1 SEC2        0.0000 
     17 N          16.7870   27.1410   32.6690 N.am      7 SEL2        0.0000 
     18 N          19.9040   27.9050   33.8450 N.am      4 SEP2        0.0000 
     19 CA         17.3460   23.3820   37.8200 C.3       3 GLC5        0.0000 
     20 CA         18.3920   23.4760   35.8370 C.3       9 GLL5        0.0000 
     21 CA         16.3000   23.2880   39.8030 C.3       6 GLP5        0.0000 
     22 CA         20.1260   22.4155   37.6200 C.3       3 GLC5        0.0000 
     23 CA         18.2200   22.2870   36.4450 C.3       9 GLL5        0.0000 
     24 CA         22.0320   22.5440   38.7950 C.3       6 GLP5        0.0000 
     25 CA         16.0620   22.7135   37.7765 C.3       3 GLC5        0.0000 
     26 CA         15.8240   22.1390   35.7500 C.3       9 GLL5        0.0000 
     27 CA         11.7370   20.8455   36.0850 C.3       3 GLC5        0.0000 
     28 CA         12.2340   19.2830   34.7090 C.3       9 GLL5        0.0000 
     29 CA         13.7905   20.9790   31.9005 C.3       3 GLC5        0.0000 
     30 CA         14.1450   19.3280   33.1930 C.3       9 GLL5        0.0000 
     31 CA         13.4360   22.6300   30.6080 C.3       6 GLP5        0.0000 
     32 CA         13.7985   18.2045   31.4185 C.3       3 GLC5        0.0000 
     33 CA         13.4520   17.0810   29.6440 C.3       6 GLP5        0.0000 
     34 CA         16.8815   20.8100   33.5200 C.3       3 GLC5        0.0000 
     35 CA         15.0730   20.0750   34.0810 C.3       9 GLL5        0.0000 
     36 CA         18.6900   21.5450   32.9590 C.3       6 GLP5        0.0000 
     37 CA         16.8340   24.7970   36.4805 C.3       3 GLC5        0.0000 
     38 CA         15.9970   23.3770   35.1160 C.3       9 GLL5        0.0000 
     39 CA         17.6750   28.2980   26.5885 C.3       3 GLC5        0.0000 
     40 CA         18.0660   27.5270   28.2110 C.3       9 GLL5        0.0000 
     41 CA         17.2840   29.0690   24.9660 C.3       6 GLP5        0.0000 
     42 CA         19.6800   28.1155   28.8035 C.3       3 GLC5        0.0000 
     43 CA         21.2940   28.7040   29.3960 C.3       6 GLP5        0.0000 
     44 CA         18.0360   26.0425   26.6480 C.3       3 GLC5        0.0000 
     45 CA         18.0060   24.5580   25.0850 C.3       6 GLP5        0.0000 
     46 CA         19.8270   27.1415   27.2340 C.3       3 GLC5        0.0000 
     47 CA         21.5880   26.7560   26.2570 C.3       6 GLP5        0.0000 
     48 CA         14.3000   28.0260   33.8470 C.3       3 GLC5        0.0000 
     49 CA         14.2050   27.8500   31.8140 C.3       9 GLL5        0.0000 
     50 CA         14.3950   28.2020   35.8800 C.3       6 GLP5        0.0000 
     51 CA         13.9280   25.5720   25.9535 C.3       3 GLC5        0.0000 
     52 CA         14.7210   25.9860   27.9810 C.3       9 GLL5        0.0000 
     53 CA         13.1350   25.1580   23.9260 C.3       6 GLP5        0.0000 
     54 N          17.3320   25.4950   27.0640 N.am      1 SEC2        0.0000 
     55 N          16.9610   26.7340   27.7290 N.am      7 SEL2        0.0000 
     56 N          17.7030   24.2560   26.3990 N.am      4 SEP2        0.0000 
     57 CA         20.0985   23.0693   35.2295 C.3       3 GLC5        0.0000 
     58 CA         21.8910   23.2570   34.3180 C.3       6 GLP5        0.0000 
     59 CA         17.8488   24.6146   36.9156 C.3       3 GLC5        0.0000 
     60 CA         17.3827   22.0137   38.1890 C.3       3 GLC5        0.0000 
     61 CA         17.1660   22.0720   39.9560 C.3       6 GLP5        0.0000 
     62 CA         13.3375   20.5225   37.3637 C.3       3 GLC5        0.0000 
     63 CA         14.5780   20.0530   35.5040 C.3       9 GLL5        0.0000 
     64 CA         12.7900   21.2710   39.0460 C.3       6 GLP5        0.0000 
     65 CA         15.4600   19.3822   31.8865 C.3       3 GLC5        0.0000 
     66 CA         16.3110   19.0630   30.1360 C.3       6 GLP5        0.0000 
     67 CA         11.7222   25.4383   29.5590 C.3       3 GLC5        0.0000 
     68 CA         13.3510   26.4620   29.9350 C.3       9 GLL5        0.0000 
     69 CA         10.0100   24.7090   29.8050 C.3       6 GLP5        0.0000 
     70 CA         12.0027   26.6887   27.9330 C.3       3 GLC5        0.0000 
     71 CA         10.5710   27.2100   26.5530 C.3       6 GLP5        0.0000 
     72 CA         12.9022   27.9303   28.9980 C.3       3 GLC5        0.0000 
     73 CA         13.5180   25.8730   28.6910 C.3       9 GLL5        0.0000 
     74 CA         12.3700   29.6930   28.6830 C.3       6 GLP5        0.0000 
     75 CA         14.5463   28.2402   28.3788 C.3       3 GLC5        0.0000 
     76 CA         13.8240   30.1570   28.5190 C.3       6 GLP5        0.0000 
     77 CA         15.6508   27.2793   26.6423 C.3       3 GLC5        0.0000 
     78 CA         15.8160   26.6610   28.4960 C.3       9 GLL5        0.0000 
     79 CA         16.0330   28.2350   25.0460 C.3       6 GLP5        0.0000 
     80 CA         14.4032   28.7816   29.4805 C.3       3 GLC5        0.0000 
     81 CA         15.6500   27.2920   29.7450 C.3       9 GLL5        0.0000 
@<TRIPOS>BOND
@<TRIPOS>SUBSTRUCTURE
     1 SEC2       16 GROUP        1 X    SEC  0     ROOT SEC X 2
     2 ASC3        8 GROUP        1 X    ASC  0     **** ASC X 3
     3 GLC5        1 GROUP        1 X    GLC  0     **** GLC X 6
     4 SEP2       18 GROUP        1 Y    SEP  0     ROOT SEP Y 9
     5 ASP3       10 GROUP        1 Y    ASP  0     **** ASP Y 10
     6 GLP5        3 GROUP        1 Y    GLP  0     **** GLP Y 13
     7 SEL2       17 GROUP        1 Z    SEL  0     ROOT SEL Z 16
     8 ASL3        9 GROUP        1 Z    ASL  0     **** ASL Z 17
     9 GLL5        2 GROUP        1 Z    GLL  0     **** GLL Z 20
@<TRIPOS>SET

