#    Name: 4b14_4XB_3_ligand
#    Modification time : Tue Mar 25 06:31:19 2014

@<TRIPOS>MOLECULE
4b14_4XB_3_ligand
   53    56     1     0     0
SMALL
NO_CHARGES


@<TRIPOS>ATOM
      1 C          13.7960   23.9670   34.1280 C.3       1 4XB1001     0.0000 
      2 N          12.7690   19.6960   33.4090 N.4       1 4XB1001     0.0000 
      3 O          17.3460   25.1530   34.5600 O.3       1 4XB1001     0.0000 
      4 C1         15.2470   24.2900   34.3660 C.2       1 4XB1001     0.0000 
      5 O1         14.6080   21.4580   35.7670 O.3       1 4XB1001     0.0000 
      6 C2         16.1320   25.4120   34.0450 C.2       1 4XB1001     0.0000 
      7 O2         16.7870   27.1410   32.6690 O.2       1 4XB1001     0.0000 
      8 C3         17.2740   23.9990   35.2180 C.ar      1 4XB1001     0.0000 
      9 C4         18.3920   23.4760   35.8370 C.ar      1 4XB1001     0.0000 
     10 C5         18.2200   22.2870   36.4450 C.ar      1 4XB1001     0.0000 
     11 C6         16.9790   21.6240   36.3990 C.ar      1 4XB1001     0.0000 
     12 C7         15.8240   22.1390   35.7500 C.ar      1 4XB1001     0.0000 
     13 C8         14.5780   20.0530   35.5040 C.3       1 4XB1001     0.0000 
     14 C9         13.1920   19.4950   35.8590 C.3       1 4XB1001     0.0000 
     15 C10        12.2340   19.2830   34.7090 C.3       1 4XB1001     0.0000 
     16 C11        14.1450   19.3280   33.1930 C.3       1 4XB1001     0.0000 
     17 C12        15.0730   20.0750   34.0810 C.3       1 4XB1001     0.0000 
     18 C13        15.9970   23.3770   35.1160 C.ar      1 4XB1001     0.0000 
     19 C14        15.8700   26.6050   33.2190 C.2       1 4XB1001     0.0000 
     20 C15        18.0660   27.5270   28.2110 C.3       1 4XB1001     0.0000 
     21 C19        14.2050   27.8500   31.8140 C.3       1 4XB1001     0.0000 
     22 C20        14.4250   27.1910   30.4640 C.ar      1 4XB1001     0.0000 
     23 C21        13.3510   26.4620   29.9350 C.ar      1 4XB1001     0.0000 
     24 C22        13.5180   25.8730   28.6910 C.ar      1 4XB1001     0.0000 
     25 C23        14.7210   25.9860   27.9810 C.ar      1 4XB1001     0.0000 
     26 C24        15.8160   26.6610   28.4960 C.ar      1 4XB1001     0.0000 
     27 C25        15.6500   27.2920   29.7450 C.ar      1 4XB1001     0.0000 
     28 OAQ        16.9610   26.7340   27.7290 O.3       1 4XB1001     0.0000 
     29 OAR        14.5410   27.0170   32.9390 O.3       1 4XB1001     0.0000 
     30 H          19.2728   23.9662   35.8249 H         1 4XB1001     0.0000 
     31 H          18.9974   21.8302   36.9622 H         1 4XB1001     0.0000 
     32 H          16.8957   20.6905   36.8720 H         1 4XB1001     0.0000 
     33 H          15.3403   19.5887   36.1225 H         1 4XB1001     0.0000 
     34 H          12.7223   20.1796   36.6032 H         1 4XB1001     0.0000 
     35 H          13.3341   18.5293   36.3978 H         1 4XB1001     0.0000 
     36 H          11.9532   18.2089   34.6829 H         1 4XB1001     0.0000 
     37 H          11.2967   19.8362   34.9298 H         1 4XB1001     0.0000 
     38 H          14.4357   19.5133   32.1387 H         1 4XB1001     0.0000 
     39 H          14.2877   18.2413   33.3634 H         1 4XB1001     0.0000 
     40 H          16.0706   19.6258   34.0415 H         1 4XB1001     0.0000 
     41 H          15.1553   21.1141   33.7461 H         1 4XB1001     0.0000 
     42 H          13.1388   28.1708   31.8641 H         1 4XB1001     0.0000 
     43 H          14.7973   28.7940   31.8301 H         1 4XB1001     0.0000 
     44 H          12.4843   26.3726   30.4502 H         1 4XB1001     0.0000 
     45 H          12.7369   25.3339   28.2698 H         1 4XB1001     0.0000 
     46 H          14.7871   25.5474   27.0391 H         1 4XB1001     0.0000 
     47 H          16.4226   27.8360   30.1494 H         1 4XB1001     0.0000 
     48 H          13.5757   23.9441   33.1528 H         1 4XB1001     0.0000 
     49 H          13.5473   23.0751   34.5057 H         1 4XB1001     0.0000 
     50 H          13.1911   24.6427   34.5494 H         1 4XB1001     0.0000 
     51 H          18.4041   27.1962   29.0921 H         1 4XB1001     0.0000 
     52 H          18.8386   27.5120   27.5763 H         1 4XB1001     0.0000 
     53 H          17.8085   28.4851   28.3368 H         1 4XB1001     0.0000 
@<TRIPOS>BOND
     1    4    1 1    
     2   48    1 1    
     3   49    1 1    
     4   50    1 1    
     5   15    2 1    
     6   16    2 1    
     7    6    3 1    
     8    8    3 1    
     9    6    4 2    
    10   18    4 1    
    11   12    5 1    
    12   13    5 1    
    13   19    6 1    
    14   19    7 2    
    15    9    8 ar   
    16   18    8 ar   
    17   10    9 ar   
    18   30    9 1    
    19   11   10 ar   
    20   31   10 1    
    21   12   11 ar   
    22   32   11 1    
    23   18   12 ar   
    24   14   13 1    
    25   17   13 1    
    26   33   13 1    
    27   15   14 1    
    28   34   14 1    
    29   35   14 1    
    30   36   15 1    
    31   37   15 1    
    32   17   16 1    
    33   38   16 1    
    34   39   16 1    
    35   40   17 1    
    36   41   17 1    
    37   29   19 1    
    38   28   20 1    
    39   51   20 1    
    40   52   20 1    
    41   53   20 1    
    42   22   21 1    
    43   29   21 1    
    44   42   21 1    
    45   43   21 1    
    46   23   22 ar   
    47   27   22 ar   
    48   24   23 ar   
    49   44   23 1    
    50   25   24 ar   
    51   45   24 1    
    52   26   25 ar   
    53   46   25 1    
    54   27   26 ar   
    55   28   26 1    
    56   47   27 1    
@<TRIPOS>SUBSTRUCTURE
     1 4XB1001     1 GROUP   
@<TRIPOS>SET

