#    Name: 3oxf_SAH_2_INTS_M
#    Modification time : Tue Mar 25 05:36:11 2014

@<TRIPOS>MOLECULE
3oxf_SAH_2_INTS_M
   49     0     9     0     0
SMALL
NO_CHARGES


@<TRIPOS>ATOM
      1 O          55.0320  -35.8005   58.4950 O.2       1 ALC1        0.0000 
      2 O          56.3040  -36.0870   57.6980 O.2       7 ALL1        0.0000 
      3 O          53.7600  -35.5140   59.2920 O.2       4 ALP1        0.0000 
      4 O          55.5990  -37.3965   57.6650 O.2       1 ALC1        0.0000 
      5 O          54.8940  -38.7060   57.6320 O.2       4 ALP1        0.0000 
      6 CA         52.6600  -35.2470   55.5755 C.3       3 GLC5        0.0000 
      7 CA         54.7500  -35.6920   55.8080 C.3       9 GLL5        0.0000 
      8 CA         50.5700  -34.8020   55.3430 C.3       6 GLP5        0.0000 
      9 N          55.9065  -33.5505   59.2210 N.am      2 SEC2        0.0000 
     10 N          56.4680  -33.4520   57.9460 N.am      8 SEL2        0.0000 
     11 N          55.3450  -33.6490   60.4960 N.am      5 SEP2        0.0000 
     12 N          55.1485  -31.5415   56.4300 N.am      2 SEC2        0.0000 
     13 N          55.5340  -32.9590   56.1110 N.am      8 SEL2        0.0000 
     14 N          54.7630  -30.1240   56.7490 N.am      5 SEP2        0.0000 
     15 CA         56.5315  -39.3620   52.7865 C.3       3 GLC5        0.0000 
     16 CA         57.2090  -37.6160   53.4240 C.3       9 GLL5        0.0000 
     17 CA         55.8540  -41.1080   52.1490 C.3       6 GLP5        0.0000 
     18 CA         58.0250  -38.8450   51.7725 C.3       3 GLC5        0.0000 
     19 CA         58.8410  -40.0740   50.1210 C.3       6 GLP5        0.0000 
     20 CA         60.0930  -39.7525   52.9030 C.3       3 GLC5        0.0000 
     21 CA         59.4170  -38.4180   54.3800 C.3       9 GLL5        0.0000 
     22 CA         60.7690  -41.0870   51.4260 C.3       6 GLP5        0.0000 
     23 N          61.5580  -36.9860   53.5695 N.am      2 SEC2        0.0000 
     24 N          60.4950  -37.7930   53.6760 N.am      8 SEL2        0.0000 
     25 N          62.6210  -36.1790   53.4630 N.am      5 SEP2        0.0000 
     26 O          61.4760  -38.6460   53.4965 O.2       1 ALC1        0.0000 
     27 O          60.4950  -37.7930   53.6760 O.2       7 ALL1        0.0000 
     28 O          62.4570  -39.4990   53.3170 O.2       4 ALP1        0.0000 
     29 N          55.3005  -42.1655   56.1995 N.am      2 SEC2        0.0000 
     30 N          56.5360  -41.6890   56.7290 N.am      8 SEL2        0.0000 
     31 N          54.0650  -42.6420   55.6700 N.am      5 SEP2        0.0000 
     32 CA         55.4905  -41.3130   57.7970 C.3       3 GLC5        0.0000 
     33 CA         57.4800  -42.0040   57.6380 C.3       9 GLL5        0.0000 
     34 CA         53.5010  -40.6220   57.9560 C.3       6 GLP5        0.0000 
     35 O          55.7185  -44.6660   57.8280 O.2       1 ALC1        0.0000 
     36 O          57.0030  -44.2680   58.5040 O.2       7 ALL1        0.0000 
     37 O          54.4340  -45.0640   57.1520 O.2       4 ALP1        0.0000 
     38 CA         58.9070  -40.5700   60.2505 C.3       3 GLC5        0.0000 
     39 CA         59.6590  -41.9960   59.3410 C.3       9 GLL5        0.0000 
     40 CA         58.1550  -39.1440   61.1600 C.3       6 GLP5        0.0000 
     41 CA         61.1135  -42.1905   58.0335 C.3       3 GLC5        0.0000 
     42 CA         62.5680  -42.3850   56.7260 C.3       6 GLP5        0.0000 
     43 CA         58.2740  -39.9970   59.4400 C.3       3 GLC5        0.0000 
     44 CA         58.3930  -40.8500   57.7200 C.3       9 GLL5        0.0000 
     45 CA         60.1565  -40.4175   55.0657 C.3       3 GLC5        0.0000 
     46 CA         59.8110  -38.7620   55.8010 C.3       9 GLL5        0.0000 
     47 CA         60.6990  -42.2450   55.0410 C.3       6 GLP5        0.0000 
     48 CA         57.2615  -41.8777   59.8915 C.3       3 GLC5        0.0000 
     49 CA         56.8920  -41.1720   61.7080 C.3       6 GLP5        0.0000 
@<TRIPOS>BOND
@<TRIPOS>SUBSTRUCTURE
     1 ALC1        1 GROUP        1 X    ALC  0     ROOT ALC X 1
     2 SEC2        9 GROUP        1 X    SEC  0     **** SEC X 2
     3 GLC5        6 GROUP        1 X    GLC  0     **** GLC X 6
     4 ALP1        3 GROUP        1 Y    ALP  0     ROOT ALP Y 8
     5 SEP2       11 GROUP        1 Y    SEP  0     **** SEP Y 9
     6 GLP5        8 GROUP        1 Y    GLP  0     **** GLP Y 13
     7 ALL1        2 GROUP        1 Z    ALL  0     ROOT ALL Z 15
     8 SEL2       10 GROUP        1 Z    SEL  0     **** SEL Z 16
     9 GLL5        7 GROUP        1 Z    GLL  0     **** GLL Z 20
@<TRIPOS>SET

