#    Name: 3oxf_SAH_2_ligand
#    Modification time : Tue Mar 25 05:36:11 2014

@<TRIPOS>MOLECULE
3oxf_SAH_2_ligand
   46    48     1     0     0
SMALL
NO_CHARGES


@<TRIPOS>ATOM
      1 N          56.3040  -36.0870   57.6980 N.4       1 SAH437      0.0000 
      2 CA         56.0540  -35.2650   56.4810 C.3       1 SAH437      0.0000 
      3 CB         54.7500  -35.6920   55.8080 C.3       1 SAH437      0.0000 
      4 CG         54.9550  -36.8010   54.7730 C.3       1 SAH437      0.0000 
      5 SD         56.0090  -36.3150   53.4300 S.3       1 SAH437      0.0000 
      6 C          56.0110  -33.8170   56.8620 C.2       1 SAH437      0.0000 
      7 O          56.4680  -33.4520   57.9460 O.co2     1 SAH437      0.0000 
      8 OXT        55.5340  -32.9590   56.1110 O.co2     1 SAH437      0.0000 
      9 C5'        57.2090  -37.6160   53.4240 C.3       1 SAH437      0.0000 
     10 C4'        58.2350  -37.4730   54.5450 C.3       1 SAH437      0.0000 
     11 O4'        57.6470  -37.8100   55.8060 O.3       1 SAH437      0.0000 
     12 C3'        59.4170  -38.4180   54.3800 C.3       1 SAH437      0.0000 
     13 O3'        60.4950  -37.7930   53.6760 O.3       1 SAH437      0.0000 
     14 C2'        59.8110  -38.7620   55.8010 C.3       1 SAH437      0.0000 
     15 O2'        60.7640  -37.8230   56.3080 O.3       1 SAH437      0.0000 
     16 C1'        58.5300  -38.6050   56.5980 C.3       1 SAH437      0.0000 
     17 N9         57.9270  -39.9380   56.8590 N.pl3     1 SAH437      0.0000 
     18 C8         56.8230  -40.4420   56.2710 C.2       1 SAH437      0.0000 
     19 N7         56.5360  -41.6890   56.7290 N.2       1 SAH437      0.0000 
     20 C5         57.4800  -42.0040   57.6380 C.ar      1 SAH437      0.0000 
     21 C6         57.7820  -43.1630   58.5120 C.ar      1 SAH437      0.0000 
     22 N6         57.0030  -44.2680   58.5040 N.pl3     1 SAH437      0.0000 
     23 N1         58.8640  -43.0830   59.3150 N.ar      1 SAH437      0.0000 
     24 C2         59.6590  -41.9960   59.3410 C.ar      1 SAH437      0.0000 
     25 N3         59.4470  -40.9100   58.5750 N.ar      1 SAH437      0.0000 
     26 C4         58.3930  -40.8500   57.7200 C.ar      1 SAH437      0.0000 
     27 H          56.8651  -35.4192   55.7782 H         1 SAH437      0.0000 
     28 H          54.2992  -34.8225   55.3151 H         1 SAH437      0.0000 
     29 H          54.0492  -36.0439   56.5743 H         1 SAH437      0.0000 
     30 H          54.0414  -37.0859   54.2795 H         1 SAH437      0.0000 
     31 H          55.4543  -37.6642   55.1790 H         1 SAH437      0.0000 
     32 H          57.6470  -37.5452   52.4444 H         1 SAH437      0.0000 
     33 H          56.6113  -38.5054   53.5147 H         1 SAH437      0.0000 
     34 H          58.6090  -36.4657   54.5607 H         1 SAH437      0.0000 
     35 H          59.0647  -39.3074   53.9067 H         1 SAH437      0.0000 
     36 H          60.1264  -39.7583   55.8530 H         1 SAH437      0.0000 
     37 H          58.7663  -38.1193   57.5208 H         1 SAH437      0.0000 
     38 H          56.2871  -39.9696   55.5931 H         1 SAH437      0.0000 
     39 H          56.2316  -44.2580   57.8677 H         1 SAH437      0.0000 
     40 H          57.2673  -44.9973   59.1351 H         1 SAH437      0.0000 
     41 H          60.4956  -41.9964   59.9997 H         1 SAH437      0.0000 
     42 H          55.5691  -35.9899   58.3691 H         1 SAH437      0.0000 
     43 H          56.3755  -37.0605   57.4805 H         1 SAH437      0.0000 
     44 H          57.1544  -35.8255   58.1546 H         1 SAH437      0.0000 
     45 H          60.9478  -38.5363   53.1835 H         1 SAH437      0.0000 
     46 H          61.1777  -37.4105   55.4964 H         1 SAH437      0.0000 
@<TRIPOS>BOND
     1    2    1 1    
     2   42    1 1    
     3   43    1 1    
     4   44    1 1    
     5    3    2 1    
     6    6    2 1    
     7   27    2 1    
     8    4    3 1    
     9   28    3 1    
    10   29    3 1    
    11    5    4 1    
    12   30    4 1    
    13   31    4 1    
    14    9    5 1    
    15    7    6 ar   
    16    8    6 ar   
    17   10    9 1    
    18   32    9 1    
    19   33    9 1    
    20   11   10 1    
    21   12   10 1    
    22   34   10 1    
    23   16   11 1    
    24   13   12 1    
    25   14   12 1    
    26   35   12 1    
    27   45   13 1    
    28   15   14 1    
    29   16   14 1    
    30   36   14 1    
    31   46   15 1    
    32   17   16 1    
    33   37   16 1    
    34   18   17 1    
    35   26   17 1    
    36   19   18 2    
    37   38   18 1    
    38   20   19 1    
    39   21   20 ar   
    40   26   20 ar   
    41   22   21 1    
    42   23   21 ar   
    43   39   22 1    
    44   40   22 1    
    45   24   23 ar   
    46   25   24 ar   
    47   41   24 1    
    48   26   25 ar   
@<TRIPOS>SUBSTRUCTURE
     1 SAH437      1 GROUP   
@<TRIPOS>SET

