#    Name: 4fut_ATP_1_INTS_M
#    Modification time : Mon Mar 24 20:48:34 2014

@<TRIPOS>MOLECULE
4fut_ATP_1_INTS_M
   83     0    15     0     0
SMALL
NO_CHARGES


@<TRIPOS>ATOM
      1 N          42.1785  -52.8685   -4.0015 N.am      2 SEC2        0.0000 
      2 N          41.5120  -51.8620   -4.7270 N.am     12 SEL2        0.0000 
      3 N          42.8450  -53.8750   -3.2760 N.am      7 SEP2        0.0000 
      4 N          42.5580  -52.6760   -5.4645 N.am      2 SEC2        0.0000 
      5 N          43.6040  -53.4900   -6.2020 N.am      7 SEP2        0.0000 
      6 N          42.4060  -48.2505   -4.2855 N.am      2 SEC2        0.0000 
      7 N          42.1690  -49.5530   -3.8660 N.am     12 SEL2        0.0000 
      8 N          42.6430  -46.9480   -4.7050 N.am      7 SEP2        0.0000 
      9 N          42.0525  -49.3975   -2.5560 N.am      2 SEC2        0.0000 
     10 N          41.9360  -49.2420   -1.2460 N.am      7 SEP2        0.0000 
     11 Zn         40.0340  -50.1760   -6.5320 Zn        4 ZIC7        0.0000 
     12 Zn         40.7270  -49.7560   -5.8540 Zn       14 ZIL7        0.0000 
     13 Zn         39.3410  -50.5960   -7.2100 Zn        9 ZIP7        0.0000 
     14 NZ         38.0605  -52.6470   -5.4015 N.4       3 LYC4        0.0000 
     15 NZ         38.2620  -51.1420   -5.4210 N.4      13 LYL4        0.0000 
     16 NZ         37.0830  -54.7610   -4.4900 N.4       8 LYP4        0.0000 
     17 Zn         38.8015  -50.8690   -6.3155 Zn        4 ZIC7        0.0000 
     18 Zn         38.2620  -51.1420   -5.4210 Zn       14 ZIL7        0.0000 
     19 N          38.0605  -52.6470   -5.4015 N.am      2 SEC2        0.0000 
     20 N          38.2620  -51.1420   -5.4210 N.am     12 SEL2        0.0000 
     21 N          37.8590  -54.1520   -5.3820 N.am      7 SEP2        0.0000 
     22 NZ         36.9745  -52.7640   -3.2895 N.4       3 LYC4        0.0000 
     23 NZ         37.5640  -51.4860   -2.9620 N.4      13 LYL4        0.0000 
     24 N          38.2585  -52.2975   -2.0220 N.am      2 SEC2        0.0000 
     25 N          37.5640  -51.4860   -2.9620 N.am     12 SEL2        0.0000 
     26 N          38.9530  -53.1090   -1.0820 N.am      7 SEP2        0.0000 
     27 N          36.9745  -52.7640   -3.2895 N.am      2 SEC2        0.0000 
     28 N          36.3850  -54.0420   -3.6170 N.am      7 SEP2        0.0000 
     29 N          39.9340  -48.9745   -2.8140 N.am      2 SEC2        0.0000 
     30 N          39.8630  -50.4480   -3.5600 N.am     12 SEL2        0.0000 
     31 N          40.0050  -47.5010   -2.0680 N.am      7 SEP2        0.0000 
     32 N          40.7915  -51.2205   -2.4830 N.am      2 SEC2        0.0000 
     33 N          41.7200  -51.9930   -1.4060 N.am      7 SEP2        0.0000 
     34 N          35.8390  -46.6625   -6.2140 N.am      2 SEC2        0.0000 
     35 N          36.3220  -47.7100   -5.3330 N.am     12 SEL2        0.0000 
     36 N          35.3560  -45.6150   -7.0950 N.am      7 SEP2        0.0000 
     37 N          36.6200  -46.3535   -5.0325 N.am      2 SEC2        0.0000 
     38 N          36.9180  -44.9970   -4.7320 N.am      7 SEP2        0.0000 
     39 N          36.5500  -48.0305   -1.7710 N.am      2 SEC2        0.0000 
     40 N          35.6440  -48.1920   -2.8660 N.am     12 SEL2        0.0000 
     41 N          37.4560  -47.8690   -0.6760 N.am      7 SEP2        0.0000 
     42 N          34.7385  -47.2285   -2.1170 N.am      2 SEC2        0.0000 
     43 N          33.8330  -46.2650   -1.3680 N.am      7 SEP2        0.0000 
     44 N          38.8910  -48.3295   -2.9770 N.am      2 SEC2        0.0000 
     45 N          37.7770  -49.1580   -3.8860 N.am     12 SEL2        0.0000 
     46 N          37.6165  -48.5135   -2.2810 N.am      2 SEC2        0.0000 
     47 CA         34.3065  -48.6010   -6.9995 C.3       5 GLC5        0.0000 
     48 CA         34.8190  -50.1020   -5.8410 C.3      15 GLL5        0.0000 
     49 CA         33.7940  -47.1000   -8.1580 C.3      10 GLP5        0.0000 
     50 CA         34.2065  -50.5230   -8.6040 C.3       5 GLC5        0.0000 
     51 CA         34.1810  -52.0050   -7.4090 C.3      15 GLL5        0.0000 
     52 CA         34.2320  -49.0410   -9.7990 C.3      10 GLP5        0.0000 
     53 O          35.2455  -53.5880   -8.8965 O.2       1 ALC1        0.0000 
     54 O          35.2490  -52.0040   -8.3540 O.2      11 ALL1        0.0000 
     55 O          35.2420  -55.1720   -9.4390 O.2       6 ALP1        0.0000 
     56 O          34.7140  -52.7370   -9.3380 O.2       1 ALC1        0.0000 
     57 O          34.1790  -53.4700  -10.3220 O.2       6 ALP1        0.0000 
     58 O          34.9025  -54.7795   -8.2665 O.2       1 ALC1        0.0000 
     59 O          34.5630  -54.3870   -7.0940 O.2      11 ALL1        0.0000 
     60 O          34.3710  -53.9285   -8.7080 O.2       1 ALC1        0.0000 
     61 CA         27.8555  -55.1775   -4.5720 C.3       5 GLC5        0.0000 
     62 CA         28.1060  -53.6580   -5.9550 C.3      15 GLL5        0.0000 
     63 CA         27.6050  -56.6970   -3.1890 C.3      10 GLP5        0.0000 
     64 CA         27.7760  -52.4640   -7.8135 C.3       5 GLC5        0.0000 
     65 CA         27.4460  -51.2700   -9.6720 C.3      10 GLP5        0.0000 
     66 CA         26.7495  -54.0845   -7.3385 C.3       5 GLC5        0.0000 
     67 CA         25.3930  -54.5110   -8.7220 C.3      10 GLP5        0.0000 
     68 O          25.7850  -53.9140   -5.3695 O.2       1 ALC1        0.0000 
     69 O          26.9050  -53.0260   -5.8930 O.2      11 ALL1        0.0000 
     70 O          24.6650  -54.8020   -4.8460 O.2       6 ALP1        0.0000 
     71 O          26.2525  -51.5480   -6.2000 O.2       1 ALC1        0.0000 
     72 O          25.6000  -50.0700   -6.5070 O.2       6 ALP1        0.0000 
     73 CA         28.4800  -56.1690   -4.6985 C.3       5 GLC5        0.0000 
     74 CA         29.3550  -55.6410   -6.2080 C.3      15 GLL5        0.0000 
     75 CA         29.3605  -55.3100   -7.9785 C.3       5 GLC5        0.0000 
     76 CA         29.3660  -54.9790   -9.7490 C.3      10 GLP5        0.0000 
     77 CA         32.5285  -52.3235   -8.6973 C.3       5 GLC5        0.0000 
     78 CA         33.5670  -53.3550   -7.1240 C.3      15 GLL5        0.0000 
     79 CA         31.1830  -51.9670  -10.1280 C.3      10 GLP5        0.0000 
     80 CA         29.7279  -53.6531   -3.9072 C.3       5 GLC5        0.0000 
     81 CA         29.3790  -52.9290   -5.7930 C.3      15 GLL5        0.0000 
     82 CA         29.7750  -53.8010   -1.9440 C.3      10 GLP5        0.0000 
     83 CA         29.5234  -54.2421   -7.8098 C.3       5 GLC5        0.0000 
@<TRIPOS>BOND
@<TRIPOS>SUBSTRUCTURE
     1 ALC1       53 GROUP        1 X    ALC  0     ROOT ALC X 1
     2 SEC2        1 GROUP        1 X    SEC  0     **** SEC X 2
     3 LYC4       14 GROUP        1 X    LYC  0     **** LYC X 4
     4 ZIC7       11 GROUP        1 X    ZIC  0     **** ZIC X 5
     5 GLC5       47 GROUP        1 X    GLC  0     **** GLC X 6
     6 ALP1       55 GROUP        1 Y    ALP  0     ROOT ALP Y 8
     7 SEP2        3 GROUP        1 Y    SEP  0     **** SEP Y 9
     8 LYP4       16 GROUP        1 Y    LYP  0     **** LYP Y 11
     9 ZIP7       13 GROUP        1 Y    ZIP  0     **** ZIP Y 12
    10 GLP5       49 GROUP        1 Y    GLP  0     **** GLP Y 13
    11 ALL1       54 GROUP        1 Z    ALL  0     ROOT ALL Z 15
    12 SEL2        2 GROUP        1 Z    SEL  0     **** SEL Z 16
    13 LYL4       15 GROUP        1 Z    LYL  0     **** LYL Z 18
    14 ZIL7       12 GROUP        1 Z    ZIL  0     **** ZIL Z 19
    15 GLL5       48 GROUP        1 Z    GLL  0     **** GLL Z 20
@<TRIPOS>SET

