#    Name: 4fut_ATP_1_ligand
#    Modification time : Mon Mar 24 20:48:34 2014

@<TRIPOS>MOLECULE
4fut_ATP_1_ligand
   43    45     1     0     0
SMALL
NO_CHARGES


@<TRIPOS>ATOM
      1 PG         41.1380  -50.4030   -4.5610 P.3       1 ATP608      0.0000 
      2 O1G        41.5120  -51.8620   -4.7270 O.co2     1 ATP608      0.0000 
      3 O2G        42.1690  -49.5530   -3.8660 O.co2     1 ATP608      0.0000 
      4 O3G        40.7270  -49.7560   -5.8540 O.co2     1 ATP608      0.0000 
      5 PB         38.3210  -50.6930   -3.9760 P.3       1 ATP608      0.0000 
      6 O1B        38.2620  -51.1420   -5.4210 O.co2     1 ATP608      0.0000 
      7 O2B        37.5640  -51.4860   -2.9620 O.co2     1 ATP608      0.0000 
      8 O3B        39.8630  -50.4480   -3.5600 O.3       1 ATP608      0.0000 
      9 PA         36.2620  -48.6620   -4.1620 P.3       1 ATP608      0.0000 
     10 O1A        36.3220  -47.7100   -5.3330 O.co2     1 ATP608      0.0000 
     11 O2A        35.6440  -48.1920   -2.8660 O.co2     1 ATP608      0.0000 
     12 O3A        37.7770  -49.1580   -3.8860 O.3       1 ATP608      0.0000 
     13 O5'        35.4250  -49.9570   -4.5560 O.3       1 ATP608      0.0000 
     14 C5'        34.8190  -50.1020   -5.8410 C.3       1 ATP608      0.0000 
     15 C4'        34.7200  -51.6070   -6.0480 C.3       1 ATP608      0.0000 
     16 O4'        33.7980  -52.1530   -5.1160 O.3       1 ATP608      0.0000 
     17 C3'        34.1810  -52.0050   -7.4090 C.3       1 ATP608      0.0000 
     18 O3'        35.2490  -52.0040   -8.3540 O.3       1 ATP608      0.0000 
     19 C2'        33.5670  -53.3550   -7.1240 C.3       1 ATP608      0.0000 
     20 O2'        34.5630  -54.3870   -7.0940 O.3       1 ATP608      0.0000 
     21 C1'        33.0560  -53.2140   -5.7040 C.3       1 ATP608      0.0000 
     22 N9         31.6160  -52.8600   -5.7030 N.pl3     1 ATP608      0.0000 
     23 C8         31.0990  -51.6230   -5.5430 C.2       1 ATP608      0.0000 
     24 N7         29.7490  -51.6500   -5.5910 N.2       1 ATP608      0.0000 
     25 C5         29.3790  -52.9290   -5.7930 C.ar      1 ATP608      0.0000 
     26 C6         28.1060  -53.6580   -5.9550 C.ar      1 ATP608      0.0000 
     27 N6         26.9050  -53.0260   -5.8930 N.pl3     1 ATP608      0.0000 
     28 N1         28.1740  -54.9930   -6.1540 N.ar      1 ATP608      0.0000 
     29 C2         29.3550  -55.6410   -6.2080 C.ar      1 ATP608      0.0000 
     30 N3         30.5440  -55.0440   -6.0830 N.ar      1 ATP608      0.0000 
     31 C4         30.6190  -53.7170   -5.8670 C.ar      1 ATP608      0.0000 
     32 H          35.4284  -49.6916   -6.6268 H         1 ATP608      0.0000 
     33 H          33.8257  -49.6901   -5.8711 H         1 ATP608      0.0000 
     34 H          35.6894  -52.0524   -5.9210 H         1 ATP608      0.0000 
     35 H          33.3978  -51.3163   -7.6459 H         1 ATP608      0.0000 
     36 H          32.7716  -53.5408   -7.7582 H         1 ATP608      0.0000 
     37 H          33.2159  -54.1321   -5.1906 H         1 ATP608      0.0000 
     38 H          31.6338  -50.8098   -5.4092 H         1 ATP608      0.0000 
     39 H          26.8934  -52.0725   -6.1942 H         1 ATP608      0.0000 
     40 H          26.1386  -53.5701   -5.5516 H         1 ATP608      0.0000 
     41 H          29.3338  -56.7024   -6.3611 H         1 ATP608      0.0000 
     42 H          34.9124  -52.5441   -9.1253 H         1 ATP608      0.0000 
     43 H          35.0902  -54.2623   -7.9345 H         1 ATP608      0.0000 
@<TRIPOS>BOND
     1    2    1 ar   
     2    3    1 ar   
     3    4    1 ar   
     4    8    1 1    
     5    6    5 ar   
     6    7    5 ar   
     7    8    5 1    
     8   12    5 1    
     9   10    9 ar   
    10   11    9 ar   
    11   12    9 1    
    12   13    9 1    
    13   14   13 1    
    14   15   14 1    
    15   32   14 1    
    16   33   14 1    
    17   16   15 1    
    18   17   15 1    
    19   34   15 1    
    20   21   16 1    
    21   18   17 1    
    22   19   17 1    
    23   35   17 1    
    24   42   18 1    
    25   20   19 1    
    26   21   19 1    
    27   36   19 1    
    28   43   20 1    
    29   22   21 1    
    30   37   21 1    
    31   23   22 1    
    32   31   22 1    
    33   24   23 2    
    34   38   23 1    
    35   25   24 1    
    36   26   25 ar   
    37   31   25 ar   
    38   27   26 1    
    39   28   26 ar   
    40   39   27 1    
    41   40   27 1    
    42   29   28 ar   
    43   30   29 ar   
    44   41   29 1    
    45   31   30 ar   
@<TRIPOS>SUBSTRUCTURE
     1 ATP608      1 GROUP   
@<TRIPOS>SET

