#    Name: 3T64_1_CAVITY_N1_6.mol2
#    Modification time : Tue Mar 11 02:45:27 2014

@<TRIPOS>MOLECULE
3T64_1_CAVITY_N1_6.mol2
   90     0     7     0     0
SMALL
NO_CHARGES


@<TRIPOS>ATOM
      1 CA        -10.1124   24.6650   -3.9519 C.3       6 GLY6        0.0000 
      2 CA         -9.4781   25.1459   -5.2232 C.3       6 GLY6        0.0000 
      3 CZ         -8.8438   25.6268   -6.4946 C.ar      5 PHE5        0.0000 
      4 CA         -8.0692   24.3460   -6.5926 C.3       6 GLY6        0.0000 
      5 OD1        -8.9840   27.3884   -7.6680 O.3       3 ASP3        0.0000 
      6 CZ        -10.4043   26.0800   -1.7926 C.ar      5 PHE5        0.0000 
      7 DU         -9.7700   26.5609   -3.0639 H         7 CUB7        0.0000 
      8 OG         -8.9954   25.2801   -3.1619 O.2       1 SER1        0.0000 
      9 CA         -8.2209   23.9993   -3.2599 C.3       6 GLY6        0.0000 
     10 DU         -9.1357   27.0417   -4.3353 H         7 CUB7        0.0000 
     11 CA         -8.3611   25.7609   -4.4333 C.3       6 GLY6        0.0000 
     12 CA         -7.5866   24.4801   -4.5313 C.3       6 GLY6        0.0000 
     13 OD1        -9.2759   28.8034   -5.5087 O.3       3 ASP3        0.0000 
     14 OD1        -8.5013   27.5226   -5.6067 O.3       3 ASP3        0.0000 
     15 CZ         -7.7268   26.2418   -5.7047 C.ar      5 PHE5        0.0000 
     16 CA         -6.9522   24.9610   -5.8027 C.3       6 GLY6        0.0000 
     17 OD1        -7.8670   28.0035   -6.8781 O.3       3 ASP3        0.0000 
     18 CZ         -7.0925   26.7227   -6.9761 C.ar      5 PHE5        0.0000 
     19 CZ         -9.2873   26.6950   -1.0026 C.ar      5 PHE5        0.0000 
     20 CZ         -8.5127   25.4142   -1.1006 C.ar      5 PHE5        0.0000 
     21 OG         -9.4275   28.4567   -2.1760 O.2       1 SER1        0.0000 
     22 DU         -8.6530   27.1759   -2.2740 H         7 CUB7        0.0000 
     23 OG         -7.8784   25.8951   -2.3720 O.2       1 SER1        0.0000 
     24 CA         -7.1039   24.6143   -2.4700 C.3       6 GLY6        0.0000 
     25 OG         -8.7932   28.9376   -3.4474 O.2       1 SER1        0.0000 
     26 OG         -8.0187   27.6568   -3.5454 O.2       1 SER1        0.0000 
     27 DU         -7.2441   26.3760   -3.6434 H         7 CUB7        0.0000 
     28 CA         -6.4695   25.0952   -3.7414 C.3       6 GLY6        0.0000 
     29 OG         -8.1589   29.4185   -4.7188 O.2       1 SER1        0.0000 
     30 OG         -7.3843   28.1377   -4.8168 O.2       1 SER1        0.0000 
     31 DU         -6.6098   26.8569   -4.9148 H         7 CUB7        0.0000 
     32 CA         -5.8352   25.5761   -5.0128 C.3       6 GLY6        0.0000 
     33 N          -6.7500   28.6186   -6.0881 N.2       2 ALA2        0.0000 
     34 CZ         -5.9755   27.3378   -6.1861 C.ar      5 PHE5        0.0000 
     35 CZ         -5.2009   26.0570   -6.2841 C.ar      5 PHE5        0.0000 
     36 CZ        -10.2135   27.6292    2.4281 C.ar      5 PHE5        0.0000 
     37 CZ         -8.8046   26.8292    1.0587 C.ar      5 PHE5        0.0000 
     38 CZ         -8.0300   25.5484    0.9607 C.ar      5 PHE5        0.0000 
     39 DU         -8.9448   28.5909   -0.1147 H         7 CUB7        0.0000 
     40 CZ         -8.1703   27.3101   -0.2127 C.ar      5 PHE5        0.0000 
     41 CZ         -7.3957   26.0293   -0.3107 C.ar      5 PHE5        0.0000 
     42 CA         -6.6212   24.7485   -0.4087 C.3       6 GLY6        0.0000 
     43 OG         -8.3105   29.0718   -1.3861 O.2       1 SER1        0.0000 
     44 OG         -7.5360   27.7910   -1.4841 O.2       1 SER1        0.0000 
     45 DU         -6.7614   26.5102   -1.5821 H         7 CUB7        0.0000 
     46 CA         -5.9869   25.2294   -1.6801 C.3       6 GLY6        0.0000 
     47 OG         -6.9017   28.2719   -2.7554 O.2       1 SER1        0.0000 
     48 CA         -6.1271   26.9911   -2.8534 C.3       6 GLY6        0.0000 
     49 N          -5.3525   25.7103   -2.9514 N.2       2 ALA2        0.0000 
     50 CA         -5.4928   27.4719   -4.1248 C.3       6 GLY6        0.0000 
     51 N          -4.7182   26.1911   -4.2228 N.2       2 ALA2        0.0000 
     52 CA         -4.0839   26.6720   -5.4942 C.3       6 GLY6        0.0000 
     53 NZ         -9.0965   28.2442    3.2180 N.2       4 LYS4        0.0000 
     54 CA         -8.3219   26.9634    3.1200 C.3       6 GLY6        0.0000 
     55 N          -7.6876   27.4443    1.8486 N.2       2 ALA2        0.0000 
     56 DU         -7.8278   29.2060    0.6752 H         7 CUB7        0.0000 
     57 N          -7.0533   27.9252    0.5772 N.2       2 ALA2        0.0000 
     58 CA         -6.2787   26.6444    0.4792 C.3       6 GLY6        0.0000 
     59 OG         -7.1935   29.6868   -0.5961 O.2       1 SER1        0.0000 
     60 OG         -6.4190   28.4060   -0.6941 O.2       1 SER1        0.0000 
     61 N          -5.6444   27.1252   -0.7921 N.2       2 ALA2        0.0000 
     62 CA         -4.8698   25.8444   -0.8901 C.3       6 GLY6        0.0000 
     63 CA         -4.0953   24.5636   -0.9881 C.3       6 GLY6        0.0000 
     64 CA         -5.0101   27.6061   -2.0635 C.3       6 GLY6        0.0000 
     65 O          -4.2355   26.3253   -2.1615 O.2       2 ALA2        0.0000 
     66 N          -3.4610   25.0445   -2.2595 N.2       2 ALA2        0.0000 
     67 O          -3.6012   26.8062   -3.4329 O.2       2 ALA2        0.0000 
     68 N          -2.8267   25.5254   -3.5309 N.2       2 ALA2        0.0000 
     69 NZ         -8.8943   31.9018    2.9326 N.2       4 LYS4        0.0000 
     70 NZ         -8.2599   32.3826    1.6612 N.2       4 LYS4        0.0000 
     71 NZ         -7.4854   31.1018    1.5632 N.2       4 LYS4        0.0000 
     72 N          -6.7108   29.8210    1.4652 N.2       2 ALA2        0.0000 
     73 O          -8.4002   34.1443    0.4878 O.2       2 ALA2        0.0000 
     74 DU         -7.6256   32.8635    0.3898 H         7 CUB7        0.0000 
     75 OG         -6.8511   31.5827    0.2918 O.2       1 SER1        0.0000 
     76 OG         -6.0765   30.3019    0.1938 O.2       1 SER1        0.0000 
     77 N          -5.3020   29.0211    0.0958 N.2       2 ALA2        0.0000 
     78 N          -4.5274   27.7403   -0.0022 N.2       2 ALA2        0.0000 
     79 CA         -3.7528   26.4595   -0.1002 C.3       6 GLY6        0.0000 
     80 OG         -6.9913   33.3444   -0.8816 O.2       1 SER1        0.0000 
     81 CA         -3.8931   28.2212   -1.2736 C.3       6 GLY6        0.0000 
     82 CA         -3.1185   26.9404   -1.3716 C.3       6 GLY6        0.0000 
     83 CA         -2.3440   25.6596   -1.4696 C.3       6 GLY6        0.0000 
     84 NZ         -7.1429   32.9977    2.4511 N.2       4 LYS4        0.0000 
     85 NZ         -6.3684   31.7169    2.3531 N.2       4 LYS4        0.0000 
     86 O          -5.7341   32.1978    1.0817 O.2       2 ALA2        0.0000 
     87 N          -4.9595   30.9170    0.9837 N.2       2 ALA2        0.0000 
     88 O          -5.0997   32.6786   -0.1896 O.2       2 ALA2        0.0000 
     89 O          -4.3252   31.3978   -0.2876 O.2       2 ALA2        0.0000 
     90 O          -3.5506   30.1170   -0.3856 O.2       2 ALA2        0.0000 
@<TRIPOS>BOND
@<TRIPOS>SUBSTRUCTURE
     1 SER1        8 GROUP   
     2 ALA2       33 GROUP   
     3 ASP3        5 GROUP   
     4 LYS4       53 GROUP   
     5 PHE5        3 GROUP   
     6 GLY6        1 GROUP   
     7 CUB7        7 GROUP   
@<TRIPOS>SET

