#    Name: 3t64_DU3_1_INTS_M
#    Modification time : Mon Mar 24 19:12:09 2014

@<TRIPOS>MOLECULE
3t64_DU3_1_INTS_M
   48     0     9     0     0
SMALL
NO_CHARGES


@<TRIPOS>ATOM
      1 N          -5.9275   22.3425   -2.3675 N.am      2 SEC2        0.0000 
      2 N          -6.1020   23.6150   -1.6120 N.am      8 SEL2        0.0000 
      3 N          -5.7530   21.0700   -3.1230 N.am      5 SEP2        0.0000 
      4 O          -3.9425   23.7475   -3.0525 O.2       1 ALC1        0.0000 
      5 O          -4.1800   24.7290   -2.1160 O.2       7 ALL1        0.0000 
      6 O          -3.7050   22.7660   -3.9890 O.2       4 ALP1        0.0000 
      7 N          -1.9565   27.3145   -3.0375 N.am      2 SEC2        0.0000 
      8 N          -2.3450   25.9210   -2.5750 N.am      8 SEL2        0.0000 
      9 N          -1.5680   28.7080   -3.5000 N.am      5 SEP2        0.0000 
     10 CA         -2.1395   27.2590   -0.9140 C.3       3 GLC5        0.0000 
     11 CA         -3.9510   27.0320   -1.3800 C.3       9 GLL5        0.0000 
     12 CA         -0.3280   27.4860   -0.4480 C.3       6 GLP5        0.0000 
     13 CA         -8.7490   24.6160    0.0120 C.3       3 GLC5        0.0000 
     14 CA         -7.3370   25.6430   -0.3210 C.3       9 GLL5        0.0000 
     15 CA        -10.1610   23.5890    0.3450 C.3       6 GLP5        0.0000 
     16 CA         -9.2425   25.9605    1.3360 C.3       3 GLC5        0.0000 
     17 CA         -7.7150   26.8020    0.5760 C.3       9 GLL5        0.0000 
     18 CA        -10.7700   25.1190    2.0960 C.3       6 GLP5        0.0000 
     19 CA         -4.4320   28.9845   -7.4425 C.3       3 GLC5        0.0000 
     20 CA         -5.2150   27.9510   -5.8340 C.3       9 GLL5        0.0000 
     21 CA         -3.6490   30.0180   -9.0510 C.3       6 GLP5        0.0000 
     22 CA         -4.3662   25.7268    0.2893 C.3       3 GLC5        0.0000 
     23 CA         -5.2280   26.9610   -0.7950 C.3       9 GLL5        0.0000 
     24 CA         -4.1430   24.4570    1.6660 C.3       6 GLP5        0.0000 
     25 CA         -4.9228   28.6822   -2.1182 C.3       3 GLC5        0.0000 
     26 CA         -5.2560   30.3680   -3.1490 C.3       6 GLP5        0.0000 
     27 CA         -5.8345   25.3398    0.8967 C.3       3 GLC5        0.0000 
     28 CA        -10.0352   28.8550   -8.7457 C.3       3 GLC5        0.0000 
     29 CA         -9.4420   27.2280   -7.7440 C.3       9 GLL5        0.0000 
     30 CA        -10.4000   30.8020   -9.1740 C.3       6 GLP5        0.0000 
     31 CA         -8.6514   24.4400   -9.1735 C.3       3 GLC5        0.0000 
     32 CA         -9.8990   26.5880   -8.8910 C.3       9 GLL5        0.0000 
     33 CA         -7.0810   23.6030  -10.1310 C.3       6 GLP5        0.0000 
     34 CA         -9.6092   23.4825   -6.1765 C.3       3 GLC5        0.0000 
     35 CA        -10.3250   24.6220   -7.5830 C.3       9 GLL5        0.0000 
     36 CA         -9.1190   22.0210   -5.3430 C.3       6 GLP5        0.0000 
     37 CA         -6.1285   29.0012   -4.3490 C.3       3 GLC5        0.0000 
     38 CA         -7.4060   27.1260   -5.2960 C.3       9 GLL5        0.0000 
     39 CA         -3.8262   26.8050   -7.0380 C.3       3 GLC5        0.0000 
     40 CA         -2.7190   26.2550   -8.4660 C.3       6 GLP5        0.0000 
     41 CA         -5.0948   28.8615   -4.3795 C.3       3 GLC5        0.0000 
     42 CA         -4.6520   26.7590   -5.3860 C.3       9 GLL5        0.0000 
     43 CA         -6.1627   24.2418   -5.7188 C.3       3 GLC5        0.0000 
     44 CA         -5.4650   25.7480   -4.9060 C.3       9 GLL5        0.0000 
     45 CA         -6.1720   22.6490   -6.5570 C.3       6 GLP5        0.0000 
     46 CA         -9.8538   25.9845   -0.0512 C.3       3 GLC5        0.0000 
     47 CA         -9.0440   26.9030   -1.4640 C.3       9 GLL5        0.0000 
     48 CA        -10.9390   24.6450    0.7900 C.3       6 GLP5        0.0000 
@<TRIPOS>BOND
@<TRIPOS>SUBSTRUCTURE
     1 ALC1        4 GROUP        1 X    ALC  0     ROOT ALC X 1
     2 SEC2        1 GROUP        1 X    SEC  0     **** SEC X 2
     3 GLC5       10 GROUP        1 X    GLC  0     **** GLC X 6
     4 ALP1        6 GROUP        1 Y    ALP  0     ROOT ALP Y 8
     5 SEP2        3 GROUP        1 Y    SEP  0     **** SEP Y 9
     6 GLP5       12 GROUP        1 Y    GLP  0     **** GLP Y 13
     7 ALL1        5 GROUP        1 Z    ALL  0     ROOT ALL Z 15
     8 SEL2        2 GROUP        1 Z    SEL  0     **** SEL Z 16
     9 GLL5       11 GROUP        1 Z    GLL  0     **** GLL Z 20
@<TRIPOS>SET

