#    Name: 3t64_DU3_1_ligand
#    Modification time : Mon Mar 24 19:12:09 2014

@<TRIPOS>MOLECULE
3t64_DU3_1_ligand
   51    54     1     0     0
SMALL
NO_CHARGES


@<TRIPOS>ATOM
      1 N1         -5.9640   25.7710   -0.8820 N.am      1 DU3201      0.0000 
      2 C2         -5.4540   24.6600   -1.5370 C.2       1 DU3201      0.0000 
      3 O2         -6.1020   23.6150   -1.6120 O.2       1 DU3201      0.0000 
      4 N3         -4.1800   24.7290   -2.1160 N.am      1 DU3201      0.0000 
      5 C4         -3.4520   25.9080   -2.0460 C.2       1 DU3201      0.0000 
      6 O4         -2.3450   25.9210   -2.5750 O.2       1 DU3201      0.0000 
      7 C5         -3.9510   27.0320   -1.3800 C.2       1 DU3201      0.0000 
      8 C6         -5.2280   26.9610   -0.7950 C.2       1 DU3201      0.0000 
      9 C1'        -7.3370   25.6430   -0.3210 C.3       1 DU3201      0.0000 
     10 C17        -8.9150   27.3350   -5.2680 C.3       1 DU3201      0.0000 
     11 C18        -9.4370   26.5790   -6.5100 C.ar      1 DU3201      0.0000 
     12 C19        -9.4420   27.2280   -7.7440 C.ar      1 DU3201      0.0000 
     13 C2'        -7.7150   26.8020    0.5760 C.3       1 DU3201      0.0000 
     14 C20        -9.8990   26.5880   -8.8910 C.ar      1 DU3201      0.0000 
     15 C21       -10.3380   25.2760   -8.8070 C.ar      1 DU3201      0.0000 
     16 C22       -10.3250   24.6220   -7.5830 C.ar      1 DU3201      0.0000 
     17 C23        -9.8740   25.2660   -6.4370 C.ar      1 DU3201      0.0000 
     18 C24        -7.4060   27.1260   -5.2960 C.ar      1 DU3201      0.0000 
     19 C25        -6.5960   28.1430   -5.8020 C.ar      1 DU3201      0.0000 
     20 C26        -5.2150   27.9510   -5.8340 C.ar      1 DU3201      0.0000 
     21 C27        -4.6520   26.7590   -5.3860 C.ar      1 DU3201      0.0000 
     22 C28        -5.4650   25.7480   -4.9060 C.ar      1 DU3201      0.0000 
     23 C29        -6.8420   25.9210   -4.8550 C.ar      1 DU3201      0.0000 
     24 C3'        -8.4930   27.7450   -0.3210 C.3       1 DU3201      0.0000 
     25 O3'        -9.5870   28.2850    0.4360 O.3       1 DU3201      0.0000 
     26 C4'        -9.0440   26.9030   -1.4640 C.3       1 DU3201      0.0000 
     27 O4'        -8.1510   25.7350   -1.5210 O.3       1 DU3201      0.0000 
     28 C5'        -9.1460   27.7540   -2.8030 C.3       1 DU3201      0.0000 
     29 N5'        -9.5240   26.8980   -3.9780 N.4       1 DU3201      0.0000 
     30 H          -3.7915   23.9057   -2.5896 H         1 DU3201      0.0000 
     31 H          -3.4040   27.8856   -1.3179 H         1 DU3201      0.0000 
     32 H          -5.6147   27.7720   -0.3105 H         1 DU3201      0.0000 
     33 H          -7.4683   24.7262    0.1481 H         1 DU3201      0.0000 
     34 H          -9.0940   28.3935   -5.4417 H         1 DU3201      0.0000 
     35 H          -9.0993   28.2032   -7.8059 H         1 DU3201      0.0000 
     36 H          -6.8350   27.2869    0.9342 H         1 DU3201      0.0000 
     37 H          -8.3401   26.4592    1.3694 H         1 DU3201      0.0000 
     38 H          -9.9102   27.0829   -9.7877 H         1 DU3201      0.0000 
     39 H         -10.6722   24.7884   -9.6479 H         1 DU3201      0.0000 
     40 H         -10.6548   23.6434   -7.5220 H         1 DU3201      0.0000 
     41 H          -9.8653   24.7676   -5.5376 H         1 DU3201      0.0000 
     42 H          -7.0066   29.0112   -6.1423 H         1 DU3201      0.0000 
     43 H          -4.6043   28.7016   -6.1940 H         1 DU3201      0.0000 
     44 H          -3.6309   26.6340   -5.4136 H         1 DU3201      0.0000 
     45 H          -5.0489   24.8604   -4.5838 H         1 DU3201      0.0000 
     46 H          -7.4470   25.1757   -4.4981 H         1 DU3201      0.0000 
     47 H          -7.8507   28.4805   -0.7015 H         1 DU3201      0.0000 
     48 H         -10.0425   26.5940   -1.1829 H         1 DU3201      0.0000 
     49 H          -8.1761   28.2231   -2.9630 H         1 DU3201      0.0000 
     50 H          -9.8902   28.5316   -2.6363 H         1 DU3201      0.0000 
     51 H          -9.5745   29.2664    0.2446 H         1 DU3201      0.0000 
@<TRIPOS>BOND
     1    2    1 1    
     2    8    1 1    
     3    9    1 1    
     4    3    2 2    
     5    4    2 1    
     6    5    4 1    
     7   30    4 1    
     8    6    5 2    
     9    7    5 1    
    10    8    7 2    
    11   31    7 1    
    12   32    8 1    
    13   13    9 1    
    14   27    9 1    
    15   33    9 1    
    16   11   10 1    
    17   18   10 1    
    18   29   10 1    
    19   34   10 1    
    20   12   11 ar   
    21   17   11 ar   
    22   14   12 ar   
    23   35   12 1    
    24   24   13 1    
    25   36   13 1    
    26   37   13 1    
    27   15   14 ar   
    28   38   14 1    
    29   16   15 ar   
    30   39   15 1    
    31   17   16 ar   
    32   40   16 1    
    33   41   17 1    
    34   19   18 ar   
    35   23   18 ar   
    36   20   19 ar   
    37   42   19 1    
    38   21   20 ar   
    39   43   20 1    
    40   22   21 ar   
    41   44   21 1    
    42   23   22 ar   
    43   45   22 1    
    44   46   23 1    
    45   25   24 1    
    46   26   24 1    
    47   47   24 1    
    48   51   25 1    
    49   27   26 1    
    50   28   26 1    
    51   48   26 1    
    52   29   28 1    
    53   49   28 1    
    54   50   28 1    
@<TRIPOS>SUBSTRUCTURE
     1 DU3201      1 GROUP   
@<TRIPOS>SET

