#    Name: 3o9z_NAD_3_INTS_M
#    Modification time : Tue Mar 25 03:29:24 2014

@<TRIPOS>MOLECULE
3o9z_NAD_3_INTS_M
  119     0    12     0     0
SMALL
NO_CHARGES


@<TRIPOS>ATOM
      1 N          51.9105   52.0105   37.0400 N.am      2 SEC2        0.0000 
      2 N          50.7900   51.5510   36.2930 N.am     10 SEL2        0.0000 
      3 N          53.0310   52.4700   37.7870 N.am      6 SEP2        0.0000 
      4 N          47.6815   51.9035   34.0695 N.am      2 SEC2        0.0000 
      5 N          48.3950   51.5440   35.1720 N.am     10 SEL2        0.0000 
      6 N          46.9680   52.2630   32.9670 N.am      6 SEP2        0.0000 
      7 CA         46.7575   55.4565   35.4850 C.3       4 GLC5        0.0000 
      8 CA         48.2420   54.1440   36.4830 C.3      12 GLL5        0.0000 
      9 CA         45.2730   56.7690   34.4870 C.3       8 GLP5        0.0000 
     10 CA         48.1985   56.6580   38.5455 C.3       4 GLC5        0.0000 
     11 CA         47.7530   54.8550   37.7570 C.3      12 GLL5        0.0000 
     12 CA         48.6440   58.4610   39.3340 C.3       8 GLP5        0.0000 
     13 O          46.5120   54.4915   40.7860 O.2       1 ALC1        0.0000 
     14 O          47.6110   53.6530   39.8410 O.2       9 ALL1        0.0000 
     15 O          45.4130   55.3300   41.7310 O.2       5 ALP1        0.0000 
     16 O          47.5455   54.7920   40.5670 O.2       1 ALC1        0.0000 
     17 O          47.4800   55.9310   41.2930 O.2       5 ALP1        0.0000 
     18 O          45.1320   54.5665   40.7195 O.2       1 ALC1        0.0000 
     19 O          44.8510   53.8030   39.7080 O.2       9 ALL1        0.0000 
     20 CA         47.2000   57.0985   38.8765 C.3       4 GLC5        0.0000 
     21 CA         45.7560   55.7360   38.4190 C.3      12 GLL5        0.0000 
     22 CA         44.2690   56.3590   39.8230 C.3       4 GLC5        0.0000 
     23 CA         42.7820   56.9820   41.2270 C.3       8 GLP5        0.0000 
     24 CA         45.5145   56.2525   36.4530 C.3       4 GLC5        0.0000 
     25 CA         42.9190   61.1205   39.6065 C.3       4 GLC5        0.0000 
     26 CA         42.7300   59.4360   38.1860 C.3      12 GLL5        0.0000 
     27 CA         43.1080   62.8050   41.0270 C.3       8 GLP5        0.0000 
     28 O          41.1070   61.2635   37.7485 O.2       1 ALC1        0.0000 
     29 O          41.4880   59.8950   37.7980 O.2       9 ALL1        0.0000 
     30 O          40.7260   62.6320   37.6990 O.2       5 ALP1        0.0000 
     31 O          40.1225   59.7290   37.5460 O.2       1 ALC1        0.0000 
     32 O          38.7570   59.5630   37.2940 O.2       5 ALP1        0.0000 
     33 N          43.5215   61.4875   37.9930 N.am      2 SEC2        0.0000 
     34 N          43.6060   60.1840   38.8290 N.am     10 SEL2        0.0000 
     35 N          43.4370   62.7910   37.1570 N.am      6 SEP2        0.0000 
     36 CA         45.9355   61.2410   38.9940 C.3       4 GLC5        0.0000 
     37 CA         44.7940   59.7940   39.2200 C.3      12 GLL5        0.0000 
     38 CA         47.0770   62.6880   38.7680 C.3       8 GLP5        0.0000 
     39 CA         46.7190   59.1275   39.2770 C.3       4 GLC5        0.0000 
     40 CA         44.1955   60.8180   40.6590 C.3       4 GLC5        0.0000 
     41 CA         43.5970   61.8420   42.0980 C.3       8 GLP5        0.0000 
     42 CA         44.9150   58.8780   41.0380 C.3       4 GLC5        0.0000 
     43 CA         45.0360   57.9620   42.8560 C.3       8 GLP5        0.0000 
     44 CA         43.7880   58.3880   40.2235 C.3       4 GLC5        0.0000 
     45 CA         45.4545   59.7830   37.2915 C.3       4 GLC5        0.0000 
     46 CA         46.1150   59.7720   35.3630 C.3       8 GLP5        0.0000 
     47 CA         46.5330   58.1115   38.8825 C.3       4 GLC5        0.0000 
     48 CA         44.4220   57.7620   38.4310 C.3      12 GLL5        0.0000 
     49 CA         44.7290   57.8620   40.6435 C.3       4 GLC5        0.0000 
     50 NZ         51.8475   52.1465   32.2985 N.4       3 LYC4        0.0000 
     51 NZ         52.5400   52.8490   33.3510 N.4      11 LYL4        0.0000 
     52 NZ         51.1550   51.4440   31.2460 N.4       7 LYP4        0.0000 
     53 N          51.8475   52.1465   32.2985 N.am      2 SEC2        0.0000 
     54 N          52.5400   52.8490   33.3510 N.am     10 SEL2        0.0000 
     55 N          51.1550   51.4440   31.2460 N.am      6 SEP2        0.0000 
     56 N          53.5725   54.3280   36.0770 N.am      2 SEC2        0.0000 
     57 N          52.1930   54.3080   35.4740 N.am     10 SEL2        0.0000 
     58 N          54.9520   54.3480   36.6800 N.am      6 SEP2        0.0000 
     59 CA         49.5865   54.9135   32.4930 C.3       4 GLC5        0.0000 
     60 CA         50.9900   56.0700   33.6320 C.3      12 GLL5        0.0000 
     61 CA         48.1830   53.7570   31.3540 C.3       8 GLP5        0.0000 
     62 CA         49.8565   58.8805   30.5230 C.3       4 GLC5        0.0000 
     63 CA         50.4790   56.9390   31.1980 C.3      12 GLL5        0.0000 
     64 CA         49.2340   60.8220   29.8480 C.3       8 GLP5        0.0000 
     65 O          49.0655   58.3765   31.6955 O.2       1 ALC1        0.0000 
     66 O          50.2020   58.2080   30.6010 O.2       9 ALL1        0.0000 
     67 O          47.9290   58.5450   32.7900 O.2       5 ALP1        0.0000 
     68 O          49.3855   59.3565   30.7760 O.2       1 ALC1        0.0000 
     69 O          48.5690   60.5050   30.9510 O.2       5 ALP1        0.0000 
     70 N          50.0845   56.9340   28.7810 N.am      2 SEC2        0.0000 
     71 N          51.5390   56.4290   29.0190 N.am     10 SEL2        0.0000 
     72 N          48.6300   57.4390   28.5430 N.am      6 SEP2        0.0000 
     73 N          52.5150   56.3620   27.9590 N.am      2 SEC2        0.0000 
     74 N          53.4910   56.2950   26.8990 N.am      6 SEP2        0.0000 
     75 O          51.6890   57.8910   28.5405 O.2       1 ALC1        0.0000 
     76 O          51.5390   56.4290   29.0190 O.2       9 ALL1        0.0000 
     77 O          51.8390   59.3530   28.0620 O.2       5 ALP1        0.0000 
     78 CA         53.6165   57.0445   33.1100 C.3       4 GLC5        0.0000 
     79 CA         52.8610   56.9470   31.0100 C.3      12 GLL5        0.0000 
     80 CA         54.3720   57.1420   35.2100 C.3       8 GLP5        0.0000 
     81 CA         52.8455   58.8345   31.2400 C.3       4 GLC5        0.0000 
     82 CA         52.8300   60.7220   31.4700 C.3       8 GLP5        0.0000 
     83 CA         53.7965   57.6805   29.2040 C.3       4 GLC5        0.0000 
     84 CA         54.7320   58.4140   27.3980 C.3       8 GLP5        0.0000 
     85 CA         55.9705   56.8160   32.4945 C.3       4 GLC5        0.0000 
     86 CA         55.1600   56.8020   30.5160 C.3      12 GLL5        0.0000 
     87 CA         56.7810   56.8300   34.4730 C.3       8 GLP5        0.0000 
     88 CA         54.4890   58.5740   31.5475 C.3       4 GLC5        0.0000 
     89 CA         53.8180   60.3460   32.5790 C.3       8 GLP5        0.0000 
     90 N          56.4675   59.0335   30.2995 N.am      2 SEC2        0.0000 
     91 N          57.6070   58.1770   29.8200 N.am     10 SEL2        0.0000 
     92 N          55.3280   59.8900   30.7790 N.am      6 SEP2        0.0000 
     93 N          58.8340   58.7785   29.1070 N.am      2 SEC2        0.0000 
     94 N          60.0610   59.3800   28.3940 N.am      6 SEP2        0.0000 
     95 O          59.8325   56.8135   29.1550 O.2       1 ALC1        0.0000 
     96 O          58.5410   56.1690   29.4580 O.2       9 ALL1        0.0000 
     97 O          61.1240   57.4580   28.8520 O.2       5 ALP1        0.0000 
     98 CA         54.8655   55.5330   33.2425 C.3       4 GLC5        0.0000 
     99 CA         54.1880   54.9350   31.4640 C.3      12 GLL5        0.0000 
    100 CA         55.5430   56.1310   35.0210 C.3       8 GLP5        0.0000 
    101 CA         49.3884   53.6536   38.5075 C.3       4 GLC5        0.0000 
    102 CA         51.2670   53.1920   39.1920 C.3       8 GLP5        0.0000 
    103 CA         44.5282   57.3513   36.3433 C.3       4 GLC5        0.0000 
    104 CA         43.1450   58.1050   37.9680 C.3      12 GLL5        0.0000 
    105 CA         42.4098   58.7933   36.2205 C.3       4 GLC5        0.0000 
    106 CA         41.8820   58.8160   34.3640 C.3       8 GLP5        0.0000 
    107 CA         43.2309   57.6241   39.7405 C.3       4 GLC5        0.0000 
    108 CA         44.8974   59.0191   36.8085 C.3       4 GLC5        0.0000 
    109 CA         52.7057   56.8858   34.1595 C.3       4 GLC5        0.0000 
    110 CA         50.9352   58.3922   34.2885 C.3       4 GLC5        0.0000 
    111 CA         50.8310   60.1550   35.4680 C.3       8 GLP5        0.0000 
    112 CA         51.8070   58.8930   31.6810 C.3       4 GLC5        0.0000 
    113 CA         51.0890   57.1890   32.5860 C.3      12 GLL5        0.0000 
    114 CA         49.5670   55.4447   30.4625 C.3       4 GLC5        0.0000 
    115 CA         48.0820   54.3030   30.1080 C.3       8 GLP5        0.0000 
    116 CA         55.2590   57.4540   28.9435 C.3       4 GLC5        0.0000 
    117 CA         56.8997   55.3806   32.5335 C.3       4 GLC5        0.0000 
    118 CA         56.4120   56.1860   30.4620 C.3      12 GLL5        0.0000 
    119 CA         57.8570   55.8630   34.0140 C.3       8 GLP5        0.0000 
@<TRIPOS>BOND
@<TRIPOS>SUBSTRUCTURE
     1 ALC1       13 GROUP        1 X    ALC  0     ROOT ALC X 1
     2 SEC2        1 GROUP        1 X    SEC  0     **** SEC X 2
     3 LYC4       50 GROUP        1 X    LYC  0     **** LYC X 4
     4 GLC5        7 GROUP        1 X    GLC  0     **** GLC X 6
     5 ALP1       15 GROUP        1 Y    ALP  0     ROOT ALP Y 8
     6 SEP2        3 GROUP        1 Y    SEP  0     **** SEP Y 9
     7 LYP4       52 GROUP        1 Y    LYP  0     **** LYP Y 11
     8 GLP5        9 GROUP        1 Y    GLP  0     **** GLP Y 13
     9 ALL1       14 GROUP        1 Z    ALL  0     ROOT ALL Z 15
    10 SEL2        2 GROUP        1 Z    SEL  0     **** SEL Z 16
    11 LYL4       51 GROUP        1 Z    LYL  0     **** LYL Z 18
    12 GLL5        8 GROUP        1 Z    GLL  0     **** GLL Z 20
@<TRIPOS>SET

