#    Name: 3o9z_NAD_3_ligand
#    Modification time : Tue Mar 25 03:29:25 2014

@<TRIPOS>MOLECULE
3o9z_NAD_3_ligand
   70    74     1     0     0
SMALL
NO_CHARGES


@<TRIPOS>ATOM
      1 PA         49.6580   52.3010   35.6360 P.3       1 NAD311      0.0000 
      2 O1A        50.7900   51.5510   36.2930 O.co2     1 NAD311      0.0000 
      3 O2A        48.3950   51.5440   35.1720 O.co2     1 NAD311      0.0000 
      4 O5B        49.3990   53.3850   36.7380 O.3       1 NAD311      0.0000 
      5 C5B        48.2420   54.1440   36.4830 C.3       1 NAD311      0.0000 
      6 C4B        47.7530   54.8550   37.7570 C.3       1 NAD311      0.0000 
      7 O4B        46.7510   55.8240   37.3980 O.3       1 NAD311      0.0000 
      8 C3B        47.0220   53.7310   38.5260 C.3       1 NAD311      0.0000 
      9 O3B        47.6110   53.6530   39.8410 O.3       1 NAD311      0.0000 
     10 C2B        45.5520   54.2100   38.5260 C.3       1 NAD311      0.0000 
     11 O2B        44.8510   53.8030   39.7080 O.3       1 NAD311      0.0000 
     12 C1B        45.7560   55.7360   38.4190 C.3       1 NAD311      0.0000 
     13 N9A        44.5510   56.4580   38.0640 N.pl3     1 NAD311      0.0000 
     14 C8A        43.4260   56.0610   37.3770 C.2       1 NAD311      0.0000 
     15 N7A        42.5520   57.0190   37.3560 N.2       1 NAD311      0.0000 
     16 C5A        43.1450   58.1050   37.9680 C.ar      1 NAD311      0.0000 
     17 C6A        42.7300   59.4360   38.1860 C.ar      1 NAD311      0.0000 
     18 N6A        41.4880   59.8950   37.7980 N.pl3     1 NAD311      0.0000 
     19 N1A        43.6060   60.1840   38.8290 N.ar      1 NAD311      0.0000 
     20 C2A        44.7940   59.7940   39.2200 C.ar      1 NAD311      0.0000 
     21 N3A        45.2450   58.5700   39.0990 N.ar      1 NAD311      0.0000 
     22 C4A        44.4220   57.7620   38.4310 C.ar      1 NAD311      0.0000 
     23 O3         50.2500   52.9860   34.3300 O.3       1 NAD311      0.0000 
     24 PN         51.6290   53.7450   34.1760 P.3       1 NAD311      0.0000 
     25 O1N        52.5400   52.8490   33.3510 O.co2     1 NAD311      0.0000 
     26 O2N        52.1930   54.3080   35.4740 O.co2     1 NAD311      0.0000 
     27 O5D        51.3340   54.8560   33.0370 O.3       1 NAD311      0.0000 
     28 C5D        50.9900   56.0700   33.6320 C.3       1 NAD311      0.0000 
     29 C4D        51.0890   57.1890   32.5860 C.3       1 NAD311      0.0000 
     30 O4D        52.5320   57.2500   32.3840 O.3       1 NAD311      0.0000 
     31 C3D        50.4790   56.9390   31.1980 C.3       1 NAD311      0.0000 
     32 O3D        50.2020   58.2080   30.6010 O.3       1 NAD311      0.0000 
     33 C2D        51.6250   56.2340   30.4360 C.3       1 NAD311      0.0000 
     34 O2D        51.5390   56.4290   29.0190 O.3       1 NAD311      0.0000 
     35 C1D        52.8610   56.9470   31.0100 C.3       1 NAD311      0.0000 
     36 N1N        54.1110   56.1760   30.9680 N.pl3     1 NAD311      0.0000 
     37 C2N        55.1600   56.8020   30.5160 C.ar      1 NAD311      0.0000 
     38 C3N        56.4120   56.1860   30.4620 C.ar      1 NAD311      0.0000 
     39 C7N        57.5460   56.9420   29.9090 C.2       1 NAD311      0.0000 
     40 O7N        57.6070   58.1770   29.8200 O.2       1 NAD311      0.0000 
     41 N7N        58.5410   56.1690   29.4580 N.am      1 NAD311      0.0000 
     42 C4N        56.5460   54.8570   30.8960 C.ar      1 NAD311      0.0000 
     43 C5N        55.4060   54.2750   31.4270 C.ar      1 NAD311      0.0000 
     44 C6N        54.1880   54.9350   31.4640 C.ar      1 NAD311      0.0000 
     45 H          47.4057   53.5227   36.1189 H         1 NAD311      0.0000 
     46 H          48.4132   54.9255   35.7228 H         1 NAD311      0.0000 
     47 H          48.5333   55.2034   38.3040 H         1 NAD311      0.0000 
     48 H          47.1026   52.8530   37.9609 H         1 NAD311      0.0000 
     49 H          45.1179   53.8810   37.6140 H         1 NAD311      0.0000 
     50 H          46.1681   56.0580   39.3568 H         1 NAD311      0.0000 
     51 H          43.3408   55.1679   36.9756 H         1 NAD311      0.0000 
     52 H          41.4260   60.8702   37.5854 H         1 NAD311      0.0000 
     53 H          40.7579   59.2126   37.7631 H         1 NAD311      0.0000 
     54 H          45.4458   60.5316   39.6728 H         1 NAD311      0.0000 
     55 H          51.6579   56.3416   34.4593 H         1 NAD311      0.0000 
     56 H          49.9623   56.0780   34.0169 H         1 NAD311      0.0000 
     57 H          50.7580   58.0986   32.9960 H         1 NAD311      0.0000 
     58 H          49.6743   56.3020   31.2846 H         1 NAD311      0.0000 
     59 H          51.6558   55.2292   30.7451 H         1 NAD311      0.0000 
     60 H          52.9739   57.8843   30.4673 H         1 NAD311      0.0000 
     61 H          55.1050   57.7968   30.1737 H         1 NAD311      0.0000 
     62 H          58.4137   55.1826   29.5621 H         1 NAD311      0.0000 
     63 H          59.3226   56.6471   29.0574 H         1 NAD311      0.0000 
     64 H          57.4141   54.3690   30.8224 H         1 NAD311      0.0000 
     65 H          55.4668   53.3052   31.8128 H         1 NAD311      0.0000 
     66 H          53.3693   54.4603   31.8704 H         1 NAD311      0.0000 
     67 H          47.4912   54.5653   40.2326 H         1 NAD311      0.0000 
     68 H          44.7396   54.6400   40.2438 H         1 NAD311      0.0000 
     69 H          49.3482   58.5119   31.0236 H         1 NAD311      0.0000 
     70 H          51.6197   57.4172   28.8885 H         1 NAD311      0.0000 
@<TRIPOS>BOND
     1    2    1 ar   
     2    3    1 ar   
     3    4    1 1    
     4   23    1 1    
     5    5    4 1    
     6    6    5 1    
     7   45    5 1    
     8   46    5 1    
     9    7    6 1    
    10    8    6 1    
    11   47    6 1    
    12   12    7 1    
    13    9    8 1    
    14   10    8 1    
    15   48    8 1    
    16   67    9 1    
    17   11   10 1    
    18   12   10 1    
    19   49   10 1    
    20   68   11 1    
    21   13   12 1    
    22   50   12 1    
    23   14   13 1    
    24   22   13 1    
    25   15   14 2    
    26   51   14 1    
    27   16   15 1    
    28   17   16 ar   
    29   22   16 ar   
    30   18   17 1    
    31   19   17 ar   
    32   52   18 1    
    33   53   18 1    
    34   20   19 ar   
    35   21   20 ar   
    36   54   20 1    
    37   22   21 ar   
    38   24   23 1    
    39   25   24 ar   
    40   26   24 ar   
    41   27   24 1    
    42   28   27 1    
    43   29   28 1    
    44   55   28 1    
    45   56   28 1    
    46   30   29 1    
    47   31   29 1    
    48   57   29 1    
    49   35   30 1    
    50   32   31 1    
    51   33   31 1    
    52   58   31 1    
    53   69   32 1    
    54   34   33 1    
    55   35   33 1    
    56   59   33 1    
    57   70   34 1    
    58   36   35 1    
    59   60   35 1    
    60   37   36 ar   
    61   44   36 ar   
    62   38   37 ar   
    63   61   37 1    
    64   39   38 1    
    65   42   38 ar   
    66   40   39 2    
    67   41   39 am   
    68   62   41 1    
    69   63   41 1    
    70   43   42 ar   
    71   64   42 1    
    72   44   43 ar   
    73   65   43 1    
    74   66   44 1    
@<TRIPOS>SUBSTRUCTURE
     1 NAD311      1 GROUP   
@<TRIPOS>SET

