#    Name: 1x0x_NAD_1_INTS_M
#    Modification time : Tue Mar 25 09:31:00 2014

@<TRIPOS>MOLECULE
1x0x_NAD_1_INTS_M
   83     0    12     0     0
SMALL
NO_CHARGES


@<TRIPOS>ATOM
      1 N         -69.4055   37.8120 -115.9450 N.am      2 SEC2        0.0000 
      2 N         -68.8970   38.5140 -114.5360 N.am     10 SEL2        0.0000 
      3 N         -69.9140   37.1100 -117.3540 N.am      6 SEP2        0.0000 
      4 N         -69.7385   39.6485 -115.1980 N.am      2 SEC2        0.0000 
      5 N         -70.5800   40.7830 -115.8600 N.am      6 SEP2        0.0000 
      6 N         -70.6300   35.4000 -113.1915 N.am      2 SEC2        0.0000 
      7 N         -70.5160   36.6380 -113.8040 N.am     10 SEL2        0.0000 
      8 N         -70.7440   34.1620 -112.5790 N.am      6 SEP2        0.0000 
      9 CA        -71.4425   39.8200 -113.4395 C.3       4 GLC5        0.0000 
     10 CA        -70.2250   39.9270 -111.7340 C.3      12 GLL5        0.0000 
     11 CA        -72.6600   39.7130 -115.1450 C.3       8 GLP5        0.0000 
     12 CA        -69.7340   41.2575 -112.8600 C.3       4 GLC5        0.0000 
     13 CA        -69.2430   42.5880 -113.9860 C.3       8 GLP5        0.0000 
     14 O         -71.5805   39.0720 -106.2365 O.2       1 ALC1        0.0000 
     15 O         -70.4400   39.1690 -106.9280 O.2       9 ALL1        0.0000 
     16 O         -72.7210   38.9750 -105.5450 O.2       5 ALP1        0.0000 
     17 CA        -68.4455   42.2895 -109.3830 C.3       4 GLC5        0.0000 
     18 CA        -69.5640   40.6950 -108.4940 C.3      12 GLL5        0.0000 
     19 CA        -67.3270   43.8840 -110.2720 C.3       8 GLP5        0.0000 
     20 CA        -68.5615   42.0475 -104.7225 C.3       4 GLC5        0.0000 
     21 CA        -67.3920   43.2440 -105.6880 C.3      12 GLL5        0.0000 
     22 CA        -69.7310   40.8510 -103.7570 C.3       8 GLP5        0.0000 
     23 CA        -65.8255   43.4925 -106.8400 C.3       4 GLC5        0.0000 
     24 CA        -64.2590   43.7410 -107.9920 C.3       8 GLP5        0.0000 
     25 CA        -69.4005   41.8235 -105.5740 C.3       4 GLC5        0.0000 
     26 CA        -69.0700   42.7960 -107.3910 C.3      12 GLL5        0.0000 
     27 NZ        -68.5760   36.1640 -116.7205 N.4       3 LYC4        0.0000 
     28 NZ        -67.9290   35.4610 -114.9840 N.4      11 LYL4        0.0000 
     29 NZ        -69.2230   36.8670 -118.4570 N.4       7 LYP4        0.0000 
     30 N         -68.2790   33.9910 -114.4685 N.am      2 SEC2        0.0000 
     31 N         -67.9290   35.4610 -114.9840 N.am     10 SEL2        0.0000 
     32 N         -68.6290   32.5210 -113.9530 N.am      6 SEP2        0.0000 
     33 N         -67.2540   33.4570 -112.1035 N.am      2 SEC2        0.0000 
     34 N         -67.3580   34.8210 -112.6140 N.am     10 SEL2        0.0000 
     35 N         -67.1500   32.0930 -111.5930 N.am      6 SEP2        0.0000 
     36 CA        -65.5240   34.3395 -113.9000 C.3       4 GLC5        0.0000 
     37 CA        -64.7950   36.3530 -113.2400 C.3      12 GLL5        0.0000 
     38 CA        -66.2530   32.3260 -114.5600 C.3       8 GLP5        0.0000 
     39 CA        -64.3605   37.2910 -111.6805 C.3       4 GLC5        0.0000 
     40 CA        -63.9260   38.2290 -110.1210 C.3       8 GLP5        0.0000 
     41 CA        -65.4215   38.1160 -112.2745 C.3       4 GLC5        0.0000 
     42 CA        -66.0480   39.8790 -111.3090 C.3       8 GLP5        0.0000 
     43 CA        -64.1350   39.2320 -114.0525 C.3       4 GLC5        0.0000 
     44 CA        -63.8330   37.5440 -115.3210 C.3      12 GLL5        0.0000 
     45 CA        -64.4370   40.9200 -112.7840 C.3       8 GLP5        0.0000 
     46 N         -61.1615   37.9690 -116.0805 N.am      2 SEC2        0.0000 
     47 N         -62.6180   38.1600 -115.4980 N.am     10 SEL2        0.0000 
     48 N         -59.7050   37.7780 -116.6630 N.am      6 SEP2        0.0000 
     49 CA        -64.2305   38.9025 -117.5180 C.3       4 GLC5        0.0000 
     50 CA        -64.2310   36.8740 -116.6600 C.3      12 GLL5        0.0000 
     51 CA        -64.2300   40.9310 -118.3760 C.3       8 GLP5        0.0000 
     52 CA        -63.7000   33.6860 -115.5925 C.3       4 GLC5        0.0000 
     53 CA        -63.6960   35.4550 -116.4080 C.3      12 GLL5        0.0000 
     54 CA        -63.7040   31.9170 -114.7770 C.3       8 GLP5        0.0000 
     55 CA        -62.3380   35.2785 -118.0825 C.3       4 GLC5        0.0000 
     56 CA        -60.9800   35.1020 -119.7570 C.3       8 GLP5        0.0000 
     57 N         -68.4650   30.9480 -119.0865 N.am      2 SEC2        0.0000 
     58 N         -68.0980   32.4490 -119.0330 N.am     10 SEL2        0.0000 
     59 N         -68.8320   29.4470 -119.1400 N.am      6 SEP2        0.0000 
     60 CA        -65.6795   32.1000 -116.5720 C.3       4 GLC5        0.0000 
     61 CA        -65.1060   31.8740 -118.5840 C.3      12 GLL5        0.0000 
     62 CA        -62.0085   32.8940 -119.1255 C.3       4 GLC5        0.0000 
     63 CA        -63.6140   32.1080 -118.3220 C.3      12 GLL5        0.0000 
     64 CA        -60.4030   33.6800 -119.9290 C.3       8 GLP5        0.0000 
     65 CA        -64.7125   32.8295 -116.0745 C.3       4 GLC5        0.0000 
     66 CA        -63.1720   33.3330 -117.5890 C.3      12 GLL5        0.0000 
     67 CA        -62.0760   34.2175 -118.6730 C.3       4 GLC5        0.0000 
     68 CA        -72.0367   38.9853 -111.0155 C.3       4 GLC5        0.0000 
     69 CA        -74.0480   38.2860 -110.9700 C.3       8 GLP5        0.0000 
     70 CA        -68.3752   40.1043 -111.7755 C.3       4 GLC5        0.0000 
     71 CA        -66.7250   40.5240 -112.4900 C.3       8 GLP5        0.0000 
     72 CA        -70.3000   37.1457 -110.1587 C.3       4 GLC5        0.0000 
     73 CA        -69.8260   39.4420 -110.3880 C.3      12 GLL5        0.0000 
     74 CA        -70.2020   35.0860 -110.4250 C.3       8 GLP5        0.0000 
     75 CA        -72.6375   38.9817 -109.2117 C.3       4 GLC5        0.0000 
     76 CA        -70.9700   38.9690 -109.3970 C.3      12 GLL5        0.0000 
     77 CA        -74.4150   38.5600 -109.6560 C.3       8 GLP5        0.0000 
     78 CA        -63.8585   34.8955 -112.5907 C.3       4 GLC5        0.0000 
     79 CA        -63.4740   33.3910 -111.4130 C.3       8 GLP5        0.0000 
     80 CA        -66.0798   32.9273 -116.1412 C.3       4 GLC5        0.0000 
     81 CA        -65.6940   34.1010 -117.3770 C.3      12 GLL5        0.0000 
     82 CA        -64.0235   29.9305 -118.9920 C.3       4 GLC5        0.0000 
     83 CA        -63.6870   27.8700 -119.5310 C.3       8 GLP5        0.0000 
@<TRIPOS>BOND
@<TRIPOS>SUBSTRUCTURE
     1 ALC1       14 GROUP        1 X    ALC  0     ROOT ALC X 1
     2 SEC2        1 GROUP        1 X    SEC  0     **** SEC X 2
     3 LYC4       27 GROUP        1 X    LYC  0     **** LYC X 4
     4 GLC5        9 GROUP        1 X    GLC  0     **** GLC X 6
     5 ALP1       16 GROUP        1 Y    ALP  0     ROOT ALP Y 8
     6 SEP2        3 GROUP        1 Y    SEP  0     **** SEP Y 9
     7 LYP4       29 GROUP        1 Y    LYP  0     **** LYP Y 11
     8 GLP5       11 GROUP        1 Y    GLP  0     **** GLP Y 13
     9 ALL1       15 GROUP        1 Z    ALL  0     ROOT ALL Z 15
    10 SEL2        2 GROUP        1 Z    SEL  0     **** SEL Z 16
    11 LYL4       28 GROUP        1 Z    LYL  0     **** LYL Z 18
    12 GLL5       10 GROUP        1 Z    GLL  0     **** GLL Z 20
@<TRIPOS>SET

