#    Name: 1x0x_NAD_1_ligand
#    Modification time : Tue Mar 25 09:31:00 2014

@<TRIPOS>MOLECULE
1x0x_NAD_1_ligand
   68    72     1     0     0
SMALL
NO_CHARGES


@<TRIPOS>ATOM
      1 PA        -69.8890   37.9310 -113.6430 P.3       1 NAD2001     0.0000 
      2 O1A       -68.8970   38.5140 -114.5360 O.co2     1 NAD2001     0.0000 
      3 O2A       -70.5160   36.6380 -113.8040 O.co2     1 NAD2001     0.0000 
      4 O5B       -70.4480   38.7010 -112.3410 O.3       1 NAD2001     0.0000 
      5 C5B       -70.2250   39.9270 -111.7340 C.3       1 NAD2001     0.0000 
      6 C4B       -69.8260   39.4420 -110.3880 C.3       1 NAD2001     0.0000 
      7 O4B       -69.0760   40.4780 -109.7420 O.3       1 NAD2001     0.0000 
      8 C3B       -70.9700   38.9690 -109.3970 C.3       1 NAD2001     0.0000 
      9 O3B       -70.8130   37.5930 -109.0300 O.3       1 NAD2001     0.0000 
     10 C2B       -70.7500   39.8380 -108.1380 C.3       1 NAD2001     0.0000 
     11 O2B       -70.4400   39.1690 -106.9280 O.3       1 NAD2001     0.0000 
     12 C1B       -69.5640   40.6950 -108.4940 C.3       1 NAD2001     0.0000 
     13 N9A       -69.8070   42.1060 -108.2960 N.pl3     1 NAD2001     0.0000 
     14 C8A       -70.7260   42.9670 -108.8780 C.2       1 NAD2001     0.0000 
     15 N7A       -70.5790   44.1590 -108.3500 N.2       1 NAD2001     0.0000 
     16 C5A       -69.5440   44.0920 -107.4040 C.ar      1 NAD2001     0.0000 
     17 C6A       -68.8900   45.0140 -106.4830 C.ar      1 NAD2001     0.0000 
     18 N6A       -69.2800   46.2770 -106.4200 N.pl3     1 NAD2001     0.0000 
     19 N1A       -67.8280   44.5540 -105.6550 N.ar      1 NAD2001     0.0000 
     20 C2A       -67.3920   43.2440 -105.6880 C.ar      1 NAD2001     0.0000 
     21 N3A       -68.0220   42.3920 -106.5490 N.ar      1 NAD2001     0.0000 
     22 C4A       -69.0700   42.7960 -107.3910 C.ar      1 NAD2001     0.0000 
     23 O3        -68.7420   37.1430 -113.1100 O.3       1 NAD2001     0.0000 
     24 PN        -67.4670   35.9380 -113.6740 P.3       1 NAD2001     0.0000 
     25 O1N       -67.9290   35.4610 -114.9840 O.co2     1 NAD2001     0.0000 
     26 O2N       -67.3580   34.8210 -112.6140 O.co2     1 NAD2001     0.0000 
     27 O5D       -66.0460   36.6350 -113.8880 O.3       1 NAD2001     0.0000 
     28 C5D       -64.7950   36.3530 -113.2400 C.3       1 NAD2001     0.0000 
     29 C4D       -63.6910   36.4470 -114.2970 C.3       1 NAD2001     0.0000 
     30 O4D       -63.9020   35.2230 -115.0470 O.3       1 NAD2001     0.0000 
     31 C3D       -63.8330   37.5440 -115.3210 C.3       1 NAD2001     0.0000 
     32 O3D       -62.6180   38.1600 -115.4980 O.3       1 NAD2001     0.0000 
     33 C2D       -64.2310   36.8740 -116.6600 C.3       1 NAD2001     0.0000 
     34 O2D       -63.8220   37.4610 -117.8390 O.3       1 NAD2001     0.0000 
     35 C1D       -63.6960   35.4550 -116.4080 C.3       1 NAD2001     0.0000 
     36 N1N       -64.2120   34.2950 -117.1350 N.pl3     1 NAD2001     0.0000 
     37 C2N       -65.6940   34.1010 -117.3770 C.ar      1 NAD2001     0.0000 
     38 C3N       -66.1190   32.9560 -118.0680 C.ar      1 NAD2001     0.0000 
     39 C7N       -67.6360   33.1270 -118.1010 C.2       1 NAD2001     0.0000 
     40 O7N       -68.0980   32.4490 -119.0330 O.2       1 NAD2001     0.0000 
     41 N7N       -68.5140   33.8400 -117.3390 N.am      1 NAD2001     0.0000 
     42 C4N       -65.1060   31.8740 -118.5840 C.ar      1 NAD2001     0.0000 
     43 C5N       -63.6140   32.1080 -118.3220 C.ar      1 NAD2001     0.0000 
     44 C6N       -63.1720   33.3330 -117.5890 C.ar      1 NAD2001     0.0000 
     45 H         -71.1067   40.5155 -111.6429 H         1 NAD2001     0.0000 
     46 H         -69.4135   40.4650 -112.1630 H         1 NAD2001     0.0000 
     47 H         -69.1529   38.5660 -110.5095 H         1 NAD2001     0.0000 
     48 H         -71.8906   39.2138 -109.8176 H         1 NAD2001     0.0000 
     49 H         -71.5938   40.5065 -108.0483 H         1 NAD2001     0.0000 
     50 H         -68.7569   40.4110 -107.7348 H         1 NAD2001     0.0000 
     51 H         -71.3554   42.6908 -109.5598 H         1 NAD2001     0.0000 
     52 H         -70.0591   46.5262 -106.9953 H         1 NAD2001     0.0000 
     53 H         -68.7603   46.8677 -105.8028 H         1 NAD2001     0.0000 
     54 H         -66.6301   42.9331 -105.0908 H         1 NAD2001     0.0000 
     55 H         -64.7739   35.3510 -112.8206 H         1 NAD2001     0.0000 
     56 H         -64.5734   37.0739 -112.4580 H         1 NAD2001     0.0000 
     57 H         -62.7513   36.4364 -113.8519 H         1 NAD2001     0.0000 
     58 H         -64.6170   38.1937 -115.0374 H         1 NAD2001     0.0000 
     59 H         -65.3395   36.7532 -116.5804 H         1 NAD2001     0.0000 
     60 H         -62.5857   35.5122 -116.5577 H         1 NAD2001     0.0000 
     61 H         -66.3149   34.8010 -117.0326 H         1 NAD2001     0.0000 
     62 H         -65.4262   31.0982 -119.0460 H         1 NAD2001     0.0000 
     63 H         -62.9611   31.4426 -118.6427 H         1 NAD2001     0.0000 
     64 H         -62.2201   33.4957 -117.4133 H         1 NAD2001     0.0000 
     65 H         -70.5992   37.6085 -108.0533 H         1 NAD2001     0.0000 
     66 H         -71.3048   39.1251 -106.4278 H         1 NAD2001     0.0000 
     67 H         -62.4946   38.7273 -114.6838 H         1 NAD2001     0.0000 
     68 H         -63.2564   38.2368 -117.5592 H         1 NAD2001     0.0000 
@<TRIPOS>BOND
     1    2    1 ar   
     2    3    1 ar   
     3    4    1 1    
     4   23    1 1    
     5    5    4 1    
     6    6    5 1    
     7   45    5 1    
     8   46    5 1    
     9    7    6 1    
    10    8    6 1    
    11   47    6 1    
    12   12    7 1    
    13    9    8 1    
    14   10    8 1    
    15   48    8 1    
    16   65    9 1    
    17   11   10 1    
    18   12   10 1    
    19   49   10 1    
    20   66   11 1    
    21   13   12 1    
    22   50   12 1    
    23   14   13 1    
    24   22   13 1    
    25   15   14 2    
    26   51   14 1    
    27   16   15 1    
    28   17   16 ar   
    29   22   16 ar   
    30   18   17 1    
    31   19   17 ar   
    32   52   18 1    
    33   53   18 1    
    34   20   19 ar   
    35   21   20 ar   
    36   54   20 1    
    37   22   21 ar   
    38   24   23 1    
    39   25   24 ar   
    40   26   24 ar   
    41   27   24 1    
    42   28   27 1    
    43   29   28 1    
    44   55   28 1    
    45   56   28 1    
    46   30   29 1    
    47   31   29 1    
    48   57   29 1    
    49   35   30 1    
    50   32   31 1    
    51   33   31 1    
    52   58   31 1    
    53   67   32 1    
    54   34   33 1    
    55   35   33 1    
    56   59   33 1    
    57   68   34 1    
    58   36   35 1    
    59   60   35 1    
    60   37   36 ar   
    61   44   36 ar   
    62   38   37 ar   
    63   61   37 1    
    64   39   38 1    
    65   42   38 ar   
    66   40   39 2    
    67   41   39 am   
    68   43   42 ar   
    69   62   42 1    
    70   44   43 ar   
    71   63   43 1    
    72   64   44 1    
@<TRIPOS>SUBSTRUCTURE
     1 NAD2001     1 GROUP   
@<TRIPOS>SET

