#    Name: 3nrc_TCL_2_INTS_M
#    Modification time : Tue Mar 25 01:58:51 2014

@<TRIPOS>MOLECULE
3nrc_TCL_2_INTS_M
   56     0     9     0     0
SMALL
NO_CHARGES


@<TRIPOS>ATOM
      1 CA        -14.6340  -42.7685  -32.2665 C.3       3 GLC5        0.0000 
      2 CA        -16.0620  -42.6170  -33.8700 C.3       9 GLL5        0.0000 
      3 CA        -13.2060  -42.9200  -30.6630 C.3       6 GLP5        0.0000 
      4 CA        -19.3895  -43.0090  -36.9195 C.3       3 GLC5        0.0000 
      5 CA        -18.5600  -43.0900  -35.1780 C.3       9 GLL5        0.0000 
      6 CA        -20.2190  -42.9280  -38.6610 C.3       6 GLP5        0.0000 
      7 CA        -18.4765  -43.8390  -37.4315 C.3       3 GLC5        0.0000 
      8 CA        -17.3210  -43.3970  -35.8410 C.3       9 GLL5        0.0000 
      9 CA        -19.6320  -44.2810  -39.0220 C.3       6 GLP5        0.0000 
     10 CA        -17.4580  -41.3990  -36.7090 C.3       3 GLC5        0.0000 
     11 CA        -17.5950  -39.4010  -37.5770 C.3       6 GLP5        0.0000 
     12 CA        -13.0415  -43.3115  -35.2615 C.3       3 GLC5        0.0000 
     13 CA        -14.6430  -43.5190  -35.9590 C.3       9 GLL5        0.0000 
     14 CA        -11.4400  -43.1040  -34.5640 C.3       6 GLP5        0.0000 
     15 CA        -14.1655  -45.4830  -36.4015 C.3       3 GLC5        0.0000 
     16 CA        -13.6880  -47.4470  -36.8440 C.3       6 GLP5        0.0000 
     17 CA        -15.4160  -44.2975  -37.5450 C.3       3 GLC5        0.0000 
     18 CA        -16.1890  -45.0760  -39.1310 C.3       6 GLP5        0.0000 
     19 CA        -15.2100  -44.7715  -34.3810 C.3       3 GLC5        0.0000 
     20 CA        -15.7770  -46.0240  -32.8030 C.3       6 GLP5        0.0000 
     21 CA        -23.0980  -36.9300  -32.0725 C.3       3 GLC5        0.0000 
     22 CA        -22.5800  -37.0950  -33.9270 C.3       9 GLL5        0.0000 
     23 CA        -23.6160  -36.7650  -30.2180 C.3       6 GLP5        0.0000 
     24 CA        -22.3575  -35.3225  -32.7315 C.3       3 GLC5        0.0000 
     25 CA        -22.1350  -33.5500  -31.5360 C.3       6 GLP5        0.0000 
     26 CA        -21.2565  -36.2235  -34.9205 C.3       3 GLC5        0.0000 
     27 CA        -19.9330  -35.3520  -35.9140 C.3       6 GLP5        0.0000 
     28 CA        -21.7650  -41.0915  -30.3225 C.3       3 GLC5        0.0000 
     29 CA        -22.3560  -42.0370  -31.8030 C.3       9 GLL5        0.0000 
     30 CA        -21.1740  -40.1460  -28.8420 C.3       6 GLP5        0.0000 
     31 CA        -22.7235  -42.2985  -33.5005 C.3       3 GLC5        0.0000 
     32 CA        -23.0910  -42.5600  -35.1980 C.3       6 GLP5        0.0000 
     33 CA        -21.6000  -43.0500  -30.6440 C.3       3 GLC5        0.0000 
     34 CA        -20.8440  -44.0630  -29.4850 C.3       6 GLP5        0.0000 
     35 N         -18.1575  -42.1650  -31.0475 N.am      2 SEC2        0.0000 
     36 N         -17.2920  -41.7830  -31.9380 N.am      8 SEL2        0.0000 
     37 N         -19.0230  -42.5470  -30.1570 N.am      5 SEP2        0.0000 
     38 O         -16.3860  -41.0000  -31.4630 O.2       1 ALC1        0.0000 
     39 O         -17.2920  -41.7830  -31.9380 O.2       7 ALL1        0.0000 
     40 O         -15.4800  -40.2170  -30.9880 O.2       4 ALP1        0.0000 
     41 CA        -18.7767  -43.1205  -31.9533 C.3       3 GLC5        0.0000 
     42 CA        -17.2820  -42.3070  -33.2000 C.3       9 GLL5        0.0000 
     43 CA        -19.6530  -43.8160  -30.3830 C.3       6 GLP5        0.0000 
     44 CA        -22.8077  -37.9100  -31.7830 C.3       3 GLC5        0.0000 
     45 CA        -22.2950  -39.5780  -32.9500 C.3       9 GLL5        0.0000 
     46 CA        -20.4997  -36.9880  -34.9815 C.3       3 GLC5        0.0000 
     47 CA        -21.7040  -38.5320  -33.7460 C.3       9 GLL5        0.0000 
     48 CA        -21.5635  -40.1700  -30.8485 C.3       3 GLC5        0.0000 
     49 CA        -22.5220  -41.3770  -34.0265 C.3       3 GLC5        0.0000 
     50 CA        -21.6110  -40.8100  -32.7600 C.3       9 GLL5        0.0000 
     51 CA        -20.3095  -42.3598  -31.7250 C.3       3 GLC5        0.0000 
     52 CA        -21.5588  -41.5145  -34.4860 C.3       3 GLC5        0.0000 
     53 CA        -20.3210  -40.9970  -33.3740 C.3       9 GLL5        0.0000 
     54 CA        -18.8447  -38.7467  -35.4810 C.3       3 GLC5        0.0000 
     55 CA        -19.7320  -39.9410  -34.1740 C.3       9 GLL5        0.0000 
     56 CA        -17.6090  -38.1650  -36.6990 C.3       6 GLP5        0.0000 
@<TRIPOS>BOND
@<TRIPOS>SUBSTRUCTURE
     1 ALC1       38 GROUP        1 X    ALC  0     ROOT ALC X 1
     2 SEC2       35 GROUP        1 X    SEC  0     **** SEC X 2
     3 GLC5        1 GROUP        1 X    GLC  0     **** GLC X 6
     4 ALP1       40 GROUP        1 Y    ALP  0     ROOT ALP Y 8
     5 SEP2       37 GROUP        1 Y    SEP  0     **** SEP Y 9
     6 GLP5        3 GROUP        1 Y    GLP  0     **** GLP Y 13
     7 ALL1       39 GROUP        1 Z    ALL  0     ROOT ALL Z 15
     8 SEL2       36 GROUP        1 Z    SEL  0     **** SEL Z 16
     9 GLL5        2 GROUP        1 Z    GLL  0     **** GLL Z 20
@<TRIPOS>SET

