#    Name: 3nrc_TCL_2_ligand
#    Modification time : Tue Mar 25 01:58:51 2014

@<TRIPOS>MOLECULE
3nrc_TCL_2_ligand
   24    25     1     0     0
SMALL
NO_CHARGES


@<TRIPOS>ATOM
      1 C1        -16.0620  -42.6170  -33.8700 C.ar      1 TCL262      0.0000 
      2 C2        -16.0910  -43.1600  -35.1900 C.ar      1 TCL262      0.0000 
      3 C6        -17.2820  -42.3070  -33.2000 C.ar      1 TCL262      0.0000 
      4 C5        -18.5190  -42.5430  -33.8470 C.ar      1 TCL262      0.0000 
      5 C4        -18.5600  -43.0900  -35.1780 C.ar      1 TCL262      0.0000 
      6 C3        -17.3210  -43.3970  -35.8410 C.ar      1 TCL262      0.0000 
      7 C11       -21.7040  -38.5320  -33.7460 C.ar      1 TCL262      0.0000 
      8 C10       -22.2950  -39.5780  -32.9500 C.ar      1 TCL262      0.0000 
      9 C9        -21.6110  -40.8100  -32.7600 C.ar      1 TCL262      0.0000 
     10 C8        -20.3210  -40.9970  -33.3740 C.ar      1 TCL262      0.0000 
     11 C12       -20.4290  -38.7160  -34.3520 C.ar      1 TCL262      0.0000 
     12 C13       -19.7320  -39.9410  -34.1740 C.ar      1 TCL262      0.0000 
     13 O7        -19.6960  -42.2290  -33.1580 O.3       1 TCL262      0.0000 
     14 CL14      -14.6430  -43.5190  -35.9590 Cl        1 TCL262      0.0000 
     15 CL15      -22.5800  -37.0950  -33.9270 Cl        1 TCL262      0.0000 
     16 CL16      -22.3560  -42.0370  -31.8030 Cl        1 TCL262      0.0000 
     17 O17       -17.2920  -41.7830  -31.9380 O.3       1 TCL262      0.0000 
     18 H         -15.1719  -42.4517  -33.4086 H         1 TCL262      0.0000 
     19 H         -19.4386  -43.2542  -35.6352 H         1 TCL262      0.0000 
     20 H         -17.3437  -43.7856  -36.7815 H         1 TCL262      0.0000 
     21 H         -23.2068  -39.4259  -32.5253 H         1 TCL262      0.0000 
     22 H         -20.0195  -37.9718  -34.9105 H         1 TCL262      0.0000 
     23 H         -18.8253  -40.0889  -34.5995 H         1 TCL262      0.0000 
     24 H         -16.4601  -41.2311  -31.8805 H         1 TCL262      0.0000 
@<TRIPOS>BOND
     1    2    1 ar   
     2    3    1 ar   
     3   18    1 1    
     4    6    2 ar   
     5   14    2 1    
     6    4    3 ar   
     7   17    3 1    
     8    5    4 ar   
     9   13    4 1    
    10    6    5 ar   
    11   19    5 1    
    12   20    6 1    
    13    8    7 ar   
    14   11    7 ar   
    15   15    7 1    
    16    9    8 ar   
    17   21    8 1    
    18   10    9 ar   
    19   16    9 1    
    20   12   10 ar   
    21   13   10 1    
    22   12   11 ar   
    23   22   11 1    
    24   23   12 1    
    25   24   17 1    
@<TRIPOS>SUBSTRUCTURE
     1 TCL262      1 GROUP   
@<TRIPOS>SET

