#    Name: 4l2y_XXK_1_INTS_M
#    Modification time : Tue Mar 25 09:46:50 2014

@<TRIPOS>MOLECULE
4l2y_XXK_1_INTS_M
   70     0     9     0     0
SMALL
NO_CHARGES


@<TRIPOS>ATOM
      1 N         -28.7205   41.3335  -40.4085 N.am      2 SEC2        0.0000 
      2 N         -28.4260   41.6630  -39.0440 N.am      8 SEL2        0.0000 
      3 N         -29.0150   41.0040  -41.7730 N.am      5 SEP2        0.0000 
      4 O         -28.7410   40.6285  -38.3675 O.2       1 ALC1        0.0000 
      5 O         -28.4260   41.6630  -39.0440 O.2       7 ALL1        0.0000 
      6 O         -29.0560   39.5940  -37.6910 O.2       4 ALP1        0.0000 
      7 CA        -32.6230   44.7415  -41.3005 C.3       3 GLC5        0.0000 
      8 CA        -31.1000   45.5060  -40.2890 C.3       9 GLL5        0.0000 
      9 CA        -34.1460   43.9770  -42.3120 C.3       6 GLP5        0.0000 
     10 CA        -30.4550   49.4150  -45.0645 C.3       3 GLC5        0.0000 
     11 CA        -30.3250   47.3940  -44.7030 C.3       9 GLL5        0.0000 
     12 CA        -30.5850   51.4360  -45.4260 C.3       6 GLP5        0.0000 
     13 CA        -29.5785   48.3755  -43.1905 C.3       3 GLC5        0.0000 
     14 CA        -28.8320   49.3570  -41.6780 C.3       6 GLP5        0.0000 
     15 CA        -28.5040   48.6975  -44.7610 C.3       3 GLC5        0.0000 
     16 CA        -26.6830   50.0010  -44.8190 C.3       6 GLP5        0.0000 
     17 CA        -28.7220   48.4805  -46.6465 C.3       3 GLC5        0.0000 
     18 CA        -29.9110   47.0190  -46.1280 C.3       9 GLL5        0.0000 
     19 CA        -27.5330   49.9420  -47.1650 C.3       6 GLP5        0.0000 
     20 CA        -28.6485   46.6495  -47.7740 C.3       3 GLC5        0.0000 
     21 CA        -27.3860   46.2800  -49.4200 C.3       6 GLP5        0.0000 
     22 N         -28.3970   46.2100  -47.1620 N.am      2 SEC2        0.0000 
     23 N         -29.6180   45.6340  -46.2540 N.am      8 SEL2        0.0000 
     24 N         -27.1760   46.7860  -48.0700 N.am      5 SEP2        0.0000 
     25 CA        -27.4360   43.4365  -45.0835 C.3       3 GLC5        0.0000 
     26 CA        -28.6040   45.2330  -45.3390 C.3       9 GLL5        0.0000 
     27 CA        -26.2680   41.6400  -44.8280 C.3       6 GLP5        0.0000 
     28 CA        -27.3625   46.6370  -45.8135 C.3       3 GLC5        0.0000 
     29 CA        -26.1210   48.0410  -46.2880 C.3       6 GLP5        0.0000 
     30 CA        -28.0845   44.5680  -46.9570 C.3       3 GLC5        0.0000 
     31 CA        -27.5650   43.9030  -48.5750 C.3       6 GLP5        0.0000 
     32 CA        -29.7805   43.6180  -46.3030 C.3       3 GLC5        0.0000 
     33 CA        -30.9570   42.0030  -47.2670 C.3       6 GLP5        0.0000 
     34 CA        -28.0675   43.5765  -43.2270 C.3       3 GLC5        0.0000 
     35 CA        -29.1680   45.1990  -43.9280 C.3       9 GLL5        0.0000 
     36 CA        -26.9670   41.9540  -42.5260 C.3       6 GLP5        0.0000 
     37 CA        -27.7610   45.2930  -42.6090 C.3       3 GLC5        0.0000 
     38 CA        -26.3540   45.3870  -41.2900 C.3       6 GLP5        0.0000 
     39 CA        -28.1778   44.2390  -38.0697 C.3       3 GLC5        0.0000 
     40 CA        -29.2090   42.7040  -38.6510 C.3       9 GLL5        0.0000 
     41 CA        -27.0090   45.6650  -38.1620 C.3       6 GLP5        0.0000 
     42 CA        -28.2395   43.3987  -36.0400 C.3       3 GLC5        0.0000 
     43 CA        -29.4840   42.9220  -37.3040 C.3       9 GLL5        0.0000 
     44 CA        -26.5900   43.3400  -34.9670 C.3       6 GLP5        0.0000 
     45 CA        -30.3035   45.9162  -36.1020 C.3       3 GLC5        0.0000 
     46 CA        -30.2940   43.9930  -36.9220 C.3       9 GLL5        0.0000 
     47 CA        -30.0490   47.4130  -34.8020 C.3       6 GLP5        0.0000 
     48 CA        -28.7835   45.0422  -37.7820 C.3       3 GLC5        0.0000 
     49 CA        -28.5712   44.8807  -38.7897 C.3       3 GLC5        0.0000 
     50 CA        -30.5280   44.6370  -39.2260 C.3       9 GLL5        0.0000 
     51 CA        -31.2722   43.0897  -40.8747 C.3       3 GLC5        0.0000 
     52 CA        -29.7390   43.5560  -39.6090 C.3       9 GLL5        0.0000 
     53 CA        -32.4110   42.0830  -42.3320 C.3       6 GLP5        0.0000 
     54 CA        -30.9879   42.0102  -38.4881 C.3       3 GLC5        0.0000 
     55 CA        -32.4330   40.8360  -38.1830 C.3       6 GLP5        0.0000 
     56 CA        -32.0340   43.1961  -38.0730 C.3       3 GLC5        0.0000 
     57 CA        -33.5250   41.8640  -37.8320 C.3       6 GLP5        0.0000 
     58 CA        -34.0674   50.0926  -40.8810 C.3       3 GLC5        0.0000 
     59 CA        -35.0030   48.0510  -40.2460 C.3       9 GLL5        0.0000 
     60 CA        -32.4280   51.2430  -40.4810 C.3       6 GLP5        0.0000 
     61 CA        -30.1690   48.0117  -42.0650 C.3       3 GLC5        0.0000 
     62 CA        -32.1410   47.0410  -42.3500 C.3       9 GLL5        0.0000 
     63 CA        -32.8260   45.3218  -42.3820 C.3       3 GLC5        0.0000 
     64 CA        -30.8710   46.2920  -42.5540 C.3       9 GLL5        0.0000 
     65 CA        -33.0415   49.5261  -41.1376 C.3       3 GLC5        0.0000 
     66 CA        -32.7810   46.9180  -41.0320 C.3       9 GLL5        0.0000 
     67 CA        -33.9005   45.8931  -42.0531 C.3       3 GLC5        0.0000 
     68 CA        -33.9810   47.7490  -41.1330 C.3       9 GLL5        0.0000 
     69 CA        -30.2175   43.8195  -44.0877 C.3       3 GLC5        0.0000 
     70 CA        -31.5490   42.4230  -43.5420 C.3       6 GLP5        0.0000 
@<TRIPOS>BOND
@<TRIPOS>SUBSTRUCTURE
     1 ALC1        4 GROUP        1 X    ALC  0     ROOT ALC X 1
     2 SEC2        1 GROUP        1 X    SEC  0     **** SEC X 2
     3 GLC5        7 GROUP        1 X    GLC  0     **** GLC X 6
     4 ALP1        6 GROUP        1 Y    ALP  0     ROOT ALP Y 8
     5 SEP2        3 GROUP        1 Y    SEP  0     **** SEP Y 9
     6 GLP5        9 GROUP        1 Y    GLP  0     **** GLP Y 13
     7 ALL1        5 GROUP        1 Z    ALL  0     ROOT ALL Z 15
     8 SEL2        2 GROUP        1 Z    SEL  0     **** SEL Z 16
     9 GLL5        8 GROUP        1 Z    GLL  0     **** GLL Z 20
@<TRIPOS>SET

