#    Name: 4l2y_XXK_1_ligand
#    Modification time : Tue Mar 25 09:46:50 2014

@<TRIPOS>MOLECULE
4l2y_XXK_1_ligand
   44    48     1     0     0
SMALL
NO_CHARGES


@<TRIPOS>ATOM
      1 O25       -28.4260   41.6630  -39.0440 O.3       1 XXK1101     0.0000 
      2 C24       -29.2090   42.7040  -38.6510 C.ar      1 XXK1101     0.0000 
      3 C23       -29.4840   42.9220  -37.3040 C.ar      1 XXK1101     0.0000 
      4 C22       -30.2940   43.9930  -36.9220 C.ar      1 XXK1101     0.0000 
      5 C21       -30.8220   44.8460  -37.8820 C.ar      1 XXK1101     0.0000 
      6 C26       -29.7390   43.5560  -39.6090 C.ar      1 XXK1101     0.0000 
      7 C20       -30.5280   44.6370  -39.2260 C.ar      1 XXK1101     0.0000 
      8 C19       -31.1000   45.5060  -40.2890 C.ar      1 XXK1101     0.0000 
      9 N10       -32.2720   46.1620  -40.0420 N.ar      1 XXK1101     0.0000 
     10 C09       -32.7810   46.9180  -41.0320 C.ar      1 XXK1101     0.0000 
     11 C05       -33.9810   47.7490  -41.1330 C.ar      1 XXK1101     0.0000 
     12 C04       -35.0030   48.0510  -40.2460 C.ar      1 XXK1101     0.0000 
     13 C03       -35.9860   48.9080  -40.7480 C.ar      1 XXK1101     0.0000 
     14 C02       -35.9190   49.4050  -42.0650 C.ar      1 XXK1101     0.0000 
     15 N18       -30.4470   45.5670  -41.4890 N.ar      1 XXK1101     0.0000 
     16 C11       -30.8710   46.2920  -42.5540 C.ar      1 XXK1101     0.0000 
     17 C08       -32.1410   47.0410  -42.3500 C.ar      1 XXK1101     0.0000 
     18 O07       -32.8430   47.8470  -43.1700 O.3       1 XXK1101     0.0000 
     19 C06       -33.9290   48.2850  -42.5060 C.ar      1 XXK1101     0.0000 
     20 N01       -34.9190   49.1100  -42.9300 N.ar      1 XXK1101     0.0000 
     21 N12       -30.1230   46.2960  -43.7470 N.3       1 XXK1101     0.0000 
     22 C17       -30.3250   47.3940  -44.7030 C.3       1 XXK1101     0.0000 
     23 C16       -29.9110   47.0190  -46.1280 C.3       1 XXK1101     0.0000 
     24 O15       -29.6180   45.6340  -46.2540 O.3       1 XXK1101     0.0000 
     25 C14       -28.6040   45.2330  -45.3390 C.3       1 XXK1101     0.0000 
     26 C13       -29.1680   45.1990  -43.9280 C.3       1 XXK1101     0.0000 
     27 N28       -30.5960   44.2380  -35.4830 N.pl3     1 XXK1101     0.0000 
     28 H         -29.0921   42.2964  -36.5901 H         1 XXK1101     0.0000 
     29 H         -31.4263   45.6272  -37.6031 H         1 XXK1101     0.0000 
     30 H         -29.5492   43.3899  -40.6079 H         1 XXK1101     0.0000 
     31 H         -35.0387   47.6883  -39.3222 H         1 XXK1101     0.0000 
     32 H         -36.7785   49.1854  -40.1466 H         1 XXK1101     0.0000 
     33 H         -36.7041   50.0423  -42.3743 H         1 XXK1101     0.0000 
     34 H         -29.7436   48.2811  -44.4003 H         1 XXK1101     0.0000 
     35 H         -31.3852   47.6975  -44.7236 H         1 XXK1101     0.0000 
     36 H         -29.0395   47.6473  -46.3941 H         1 XXK1101     0.0000 
     37 H         -30.7337   47.3259  -46.8018 H         1 XXK1101     0.0000 
     38 H         -27.7532   45.9265  -45.3449 H         1 XXK1101     0.0000 
     39 H         -28.2186   44.2319  -45.5718 H         1 XXK1101     0.0000 
     40 H         -29.6542   44.2331  -43.7712 H         1 XXK1101     0.0000 
     41 H         -28.3399   45.2864  -43.2205 H         1 XXK1101     0.0000 
     42 H         -31.1878   45.0193  -35.2844 H         1 XXK1101     0.0000 
     43 H         -30.1825   43.6014  -34.8320 H         1 XXK1101     0.0000 
     44 H         -28.6957   40.9002  -38.4563 H         1 XXK1101     0.0000 
@<TRIPOS>BOND
     1    2    1 1    
     2   44    1 1    
     3    3    2 ar   
     4    6    2 ar   
     5    4    3 ar   
     6   28    3 1    
     7    5    4 ar   
     8   27    4 1    
     9    7    5 ar   
    10   29    5 1    
    11    7    6 ar   
    12   30    6 1    
    13    8    7 1    
    14    9    8 ar   
    15   15    8 ar   
    16   10    9 ar   
    17   11   10 1    
    18   17   10 ar   
    19   12   11 ar   
    20   19   11 ar   
    21   13   12 ar   
    22   31   12 1    
    23   14   13 ar   
    24   32   13 1    
    25   20   14 ar   
    26   33   14 1    
    27   16   15 ar   
    28   17   16 ar   
    29   21   16 1    
    30   18   17 1    
    31   19   18 1    
    32   20   19 ar   
    33   22   21 1    
    34   26   21 1    
    35   23   22 1    
    36   34   22 1    
    37   35   22 1    
    38   24   23 1    
    39   36   23 1    
    40   37   23 1    
    41   25   24 1    
    42   26   25 1    
    43   38   25 1    
    44   39   25 1    
    45   40   26 1    
    46   41   26 1    
    47   42   27 1    
    48   43   27 1    
@<TRIPOS>SUBSTRUCTURE
     1 XXK1101     1 GROUP   
@<TRIPOS>SET

