#    Name: 2wa2_SAM_1_INTS_M
#    Modification time : Tue Mar 25 03:49:39 2014

@<TRIPOS>MOLECULE
2wa2_SAM_1_INTS_M
   62     0    12     0     0
SMALL
NO_CHARGES


@<TRIPOS>ATOM
      1 OD1        15.2735    7.8215   39.6145 O.co2     3 ASC3        0.0000 
      2 OD1        15.5380    6.8690   40.6230 O.co2    11 ASL3        0.0000 
      3 OD1        15.0090    8.7740   38.6060 O.co2     7 ASP3        0.0000 
      4 O          15.2735    7.8215   39.6145 O.2       1 ALC1        0.0000 
      5 O          15.5380    6.8690   40.6230 O.2       9 ALL1        0.0000 
      6 O          15.0090    8.7740   38.6060 O.2       5 ALP1        0.0000 
      7 O          14.3980    6.5450   41.2690 O.2       1 ALC1        0.0000 
      8 O          13.2580    6.2210   41.9150 O.2       5 ALP1        0.0000 
      9 N          18.0790    6.5125   42.7360 N.am      2 SEC2        0.0000 
     10 N          18.1370    6.3700   41.1170 N.am     10 SEL2        0.0000 
     11 N          18.0210    6.6550   44.3550 N.am      6 SEP2        0.0000 
     12 N          18.6480    4.2755   41.9305 N.am      2 SEC2        0.0000 
     13 N          18.2320    4.4140   40.2880 N.am     10 SEL2        0.0000 
     14 N          19.0640    4.1370   43.5730 N.am      6 SEP2        0.0000 
     15 CA         14.6580    2.3570   38.6640 C.3       4 GLC5        0.0000 
     16 CA         14.4370    4.0300   37.5110 C.3      12 GLL5        0.0000 
     17 CA         14.8790    0.6840   39.8170 C.3       8 GLP5        0.0000 
     18 CA         11.0055    5.4185   36.7265 C.3       4 GLC5        0.0000 
     19 CA         12.7230    4.0740   36.9480 C.3      12 GLL5        0.0000 
     20 CA          9.2880    6.7630   36.5050 C.3       8 GLP5        0.0000 
     21 CA         10.9900    2.9375   38.8945 C.3       4 GLC5        0.0000 
     22 CA         12.1480    2.6890   37.2450 C.3      12 GLL5        0.0000 
     23 CA          9.8320    3.1860   40.5440 C.3       8 GLP5        0.0000 
     24 N          10.9905   -1.2480   34.8590 N.am      2 SEC2        0.0000 
     25 N          11.4390   -0.4480   35.8990 N.am     10 SEL2        0.0000 
     26 N          10.5420   -2.0480   33.8190 N.am      6 SEP2        0.0000 
     27 CA         10.0710    2.2895   38.7765 C.3       4 GLC5        0.0000 
     28 CA         10.3100    1.3930   37.0090 C.3      12 GLL5        0.0000 
     29 CA          9.1860    3.2625   37.5040 C.3       4 GLC5        0.0000 
     30 CA          8.0620    5.1320   37.9990 C.3       8 GLP5        0.0000 
     31 CA          4.4175   -0.7555   38.5450 C.3       4 GLC5        0.0000 
     32 CA          5.5370    0.7190   37.4120 C.3      12 GLL5        0.0000 
     33 CA          3.2980   -2.2300   39.6780 C.3       8 GLP5        0.0000 
     34 CA          5.0685    1.8220   38.9820 C.3       4 GLC5        0.0000 
     35 CA          4.6000    2.9250   40.5520 C.3       8 GLP5        0.0000 
     36 O           3.2265    0.1550   37.3265 O.2       1 ALC1        0.0000 
     37 O           4.3690    0.8300   36.8060 O.2       9 ALL1        0.0000 
     38 O           2.0840   -0.5200   37.8470 O.2       5 ALP1        0.0000 
     39 N           4.5575    0.1050   39.6515 N.am      2 SEC2        0.0000 
     40 N           5.5910    0.2130   38.6970 N.am     10 SEL2        0.0000 
     41 N           3.5240   -0.0030   40.6060 N.am      6 SEP2        0.0000 
     42 CA          8.2950   -0.5685   40.3915 C.3       4 GLC5        0.0000 
     43 CA          6.7850    0.0650   39.3510 C.3      12 GLL5        0.0000 
     44 CA          9.8050   -1.2020   41.4320 C.3       8 GLP5        0.0000 
     45 CA          6.9155   -1.3385   38.0385 C.3       4 GLC5        0.0000 
     46 CA          7.0460   -2.7420   36.7260 C.3       8 GLP5        0.0000 
     47 CA          5.0415   -1.0825   39.5145 C.3       4 GLC5        0.0000 
     48 CA          6.1770    0.7310   40.8455 C.3       4 GLC5        0.0000 
     49 CA          5.5690    1.3970   42.3400 C.3       8 GLP5        0.0000 
     50 N           8.5305   -0.9925   39.1100 N.am      2 SEC2        0.0000 
     51 N           7.9770    0.4350   38.7600 N.am     10 SEL2        0.0000 
     52 N           9.0840   -2.4200   39.4600 N.am      6 SEP2        0.0000 
     53 CA          8.8745    2.0615   39.0160 C.3       4 GLC5        0.0000 
     54 CA          7.9170    0.9370   37.4880 C.3      12 GLL5        0.0000 
     55 CA         14.1555    7.1639   39.0140 C.3       4 GLC5        0.0000 
     56 CA         14.8080    5.7680   37.8000 C.3      12 GLL5        0.0000 
     57 CA         12.8210    8.5640   39.5240 C.3       8 GLP5        0.0000 
     58 CA         13.6005    1.4360   38.2565 C.3       4 GLC5        0.0000 
     59 CA          7.0356   -0.9091   37.0110 C.3       4 GLC5        0.0000 
     60 CA          6.7300    1.1020   36.7960 C.3      12 GLL5        0.0000 
     61 CA          6.8886    2.7459   37.8535 C.3       4 GLC5        0.0000 
     62 CA          6.7520    4.5680   38.4110 C.3       8 GLP5        0.0000 
@<TRIPOS>BOND
@<TRIPOS>SUBSTRUCTURE
     1 ALC1        4 GROUP        1 X    ALC  0     ROOT ALC X 1
     2 SEC2        9 GROUP        1 X    SEC  0     **** SEC X 2
     3 ASC3        1 GROUP        1 X    ASC  0     **** ASC X 3
     4 GLC5       15 GROUP        1 X    GLC  0     **** GLC X 6
     5 ALP1        6 GROUP        1 Y    ALP  0     ROOT ALP Y 8
     6 SEP2       11 GROUP        1 Y    SEP  0     **** SEP Y 9
     7 ASP3        3 GROUP        1 Y    ASP  0     **** ASP Y 10
     8 GLP5       17 GROUP        1 Y    GLP  0     **** GLP Y 13
     9 ALL1        5 GROUP        1 Z    ALL  0     ROOT ALL Z 15
    10 SEL2       10 GROUP        1 Z    SEL  0     **** SEL Z 16
    11 ASL3        2 GROUP        1 Z    ASL  0     **** ASL Z 17
    12 GLL5       16 GROUP        1 Z    GLL  0     **** GLL Z 20
@<TRIPOS>SET

