#    Name: 2wa2_SAM_1_ligand
#    Modification time : Tue Mar 25 03:49:39 2014

@<TRIPOS>MOLECULE
2wa2_SAM_1_ligand
   50    52     1     0     0
SMALL
NO_CHARGES


@<TRIPOS>ATOM
      1 N          15.5380    6.8690   40.6230 N.4       1 SAM1248     0.0000 
      2 CA         16.1600    5.6710   39.9670 C.3       1 SAM1248     0.0000 
      3 C          17.5860    5.4600   40.4860 C.2       1 SAM1248     0.0000 
      4 O          18.1370    6.3700   41.1170 O.co2     1 SAM1248     0.0000 
      5 OXT        18.2320    4.4140   40.2880 O.co2     1 SAM1248     0.0000 
      6 CB         16.1840    5.8480   38.4490 C.3       1 SAM1248     0.0000 
      7 CG         14.8080    5.7680   37.8000 C.3       1 SAM1248     0.0000 
      8 SD         14.4370    4.0300   37.5110 S.3       1 SAM1248     0.0000 
      9 CE         15.2260    3.8460   35.8790 C.3       1 SAM1248     0.0000 
     10 C5'        12.7230    4.0740   36.9480 C.3       1 SAM1248     0.0000 
     11 C4'        12.1480    2.6890   37.2450 C.3       1 SAM1248     0.0000 
     12 O4'        10.7460    2.7010   37.3220 O.3       1 SAM1248     0.0000 
     13 C3'        12.4960    1.6870   36.1470 C.3       1 SAM1248     0.0000 
     14 O3'        13.4650    0.8140   36.6730 O.3       1 SAM1248     0.0000 
     15 C2'        11.2080    0.9380   35.8550 C.3       1 SAM1248     0.0000 
     16 O2'        11.4390   -0.4480   35.8990 O.3       1 SAM1248     0.0000 
     17 C1'        10.3100    1.3930   37.0090 C.3       1 SAM1248     0.0000 
     18 N9          8.8910    1.3780   36.6700 N.pl3     1 SAM1248     0.0000 
     19 C8          8.3190    1.8120   35.4970 C.2       1 SAM1248     0.0000 
     20 N7          6.9940    1.6500   35.5780 N.2       1 SAM1248     0.0000 
     21 C5          6.7300    1.1020   36.7960 C.ar      1 SAM1248     0.0000 
     22 C6          5.5370    0.7190   37.4120 C.ar      1 SAM1248     0.0000 
     23 N6          4.3690    0.8300   36.8060 N.pl3     1 SAM1248     0.0000 
     24 N1          5.5910    0.2130   38.6970 N.ar      1 SAM1248     0.0000 
     25 C2          6.7850    0.0650   39.3510 C.ar      1 SAM1248     0.0000 
     26 N3          7.9770    0.4350   38.7600 N.ar      1 SAM1248     0.0000 
     27 C4          7.9170    0.9370   37.4880 C.ar      1 SAM1248     0.0000 
     28 H          15.5801    4.7909   40.1996 H         1 SAM1248     0.0000 
     29 H          16.8341    5.0740   38.0104 H         1 SAM1248     0.0000 
     30 H          16.6376    6.8236   38.2113 H         1 SAM1248     0.0000 
     31 H          14.7718    6.1777   36.8303 H         1 SAM1248     0.0000 
     32 H          14.0223    6.0713   38.4325 H         1 SAM1248     0.0000 
     33 H          12.8205    4.2794   35.9282 H         1 SAM1248     0.0000 
     34 H          12.3083    4.8357   37.5308 H         1 SAM1248     0.0000 
     35 H          12.5868    2.3201   38.1650 H         1 SAM1248     0.0000 
     36 H          12.8038    2.2132   35.2956 H         1 SAM1248     0.0000 
     37 H          10.8066    1.3004   34.9564 H         1 SAM1248     0.0000 
     38 H          10.5113    0.7271   37.8437 H         1 SAM1248     0.0000 
     39 H           8.8129    2.1717   34.7493 H         1 SAM1248     0.0000 
     40 H           3.5703    0.5409   37.3337 H         1 SAM1248     0.0000 
     41 H           4.3893    1.1931   35.8745 H         1 SAM1248     0.0000 
     42 H           6.7997   -0.3342   40.3138 H         1 SAM1248     0.0000 
     43 H          16.1645    7.3061   41.2684 H         1 SAM1248     0.0000 
     44 H          15.2745    7.5639   39.9539 H         1 SAM1248     0.0000 
     45 H          14.7132    6.6264   41.1338 H         1 SAM1248     0.0000 
     46 H          16.2236    3.8727   35.9436 H         1 SAM1248     0.0000 
     47 H          14.9835    2.9783   35.4450 H         1 SAM1248     0.0000 
     48 H          14.9534    4.5744   35.2504 H         1 SAM1248     0.0000 
     49 H          14.2018    0.8077   35.9969 H         1 SAM1248     0.0000 
     50 H          12.3967   -0.5421   36.1709 H         1 SAM1248     0.0000 
@<TRIPOS>BOND
     1    2    1 1    
     2   43    1 1    
     3   44    1 1    
     4   45    1 1    
     5    3    2 1    
     6    6    2 1    
     7   28    2 1    
     8    4    3 ar   
     9    5    3 ar   
    10    7    6 1    
    11   29    6 1    
    12   30    6 1    
    13    8    7 1    
    14   31    7 1    
    15   32    7 1    
    16    9    8 1    
    17   10    8 1    
    18   46    9 1    
    19   47    9 1    
    20   48    9 1    
    21   11   10 1    
    22   33   10 1    
    23   34   10 1    
    24   12   11 1    
    25   13   11 1    
    26   35   11 1    
    27   17   12 1    
    28   14   13 1    
    29   15   13 1    
    30   36   13 1    
    31   49   14 1    
    32   16   15 1    
    33   17   15 1    
    34   37   15 1    
    35   50   16 1    
    36   18   17 1    
    37   38   17 1    
    38   19   18 1    
    39   27   18 1    
    40   20   19 2    
    41   39   19 1    
    42   21   20 1    
    43   22   21 ar   
    44   27   21 ar   
    45   23   22 1    
    46   24   22 ar   
    47   40   23 1    
    48   41   23 1    
    49   25   24 ar   
    50   26   25 ar   
    51   42   25 1    
    52   27   26 ar   
@<TRIPOS>SUBSTRUCTURE
     1 SAM1248     1 GROUP   
@<TRIPOS>SET

