#    Name: 2y7l_ALA_LYS_GLN_ALA_GLY_ASP_VAL_1_INTS_M
#    Modification time : Tue Mar 25 07:46:05 2014

@<TRIPOS>MOLECULE
2y7l_ALA_LYS_GLN_ALA_GLY_ASP_VAL_1_INTS_M
   82     0     9     0     0
SMALL
NO_CHARGES


@<TRIPOS>ATOM
      1 O          -0.7810   41.0280  -10.8475 O.2       1 ALC1        0.0000 
      2 O          -0.1690   42.1200   -9.6430 O.2       7 ALL1        0.0000 
      3 O          -1.3930   39.9360  -12.0520 O.2       4 ALP1        0.0000 
      4 O          -1.8215   40.1505  -10.4830 O.2       1 ALC1        0.0000 
      5 O          -2.2500   40.3650   -8.9140 O.2       7 ALL1        0.0000 
      6 N          -0.2420   37.0990   -9.4975 N.am      2 SEC2        0.0000 
      7 N          -1.4310   37.7660   -8.8630 N.am      8 SEL2        0.0000 
      8 N           0.9470   36.4320  -10.1320 N.am      5 SEP2        0.0000 
      9 CA         -0.7675   34.1475   -5.5005 C.3       3 GLC5        0.0000 
     10 CA         -2.2000   35.6970   -5.4610 C.3       9 GLL5        0.0000 
     11 CA          0.6650   32.5980   -5.5400 C.3       6 GLP5        0.0000 
     12 N           0.9525   35.1765   -5.1665 N.am      2 SEC2        0.0000 
     13 N           0.6380   36.5650   -5.2950 N.am      8 SEL2        0.0000 
     14 N           1.2670   33.7880   -5.0380 N.am      5 SEP2        0.0000 
     15 O          -1.0785   33.9805   -8.3565 O.2       1 ALC1        0.0000 
     16 O          -2.4540   33.7640   -8.1220 O.2       7 ALL1        0.0000 
     17 O           0.2970   34.1970   -8.5910 O.2       4 ALP1        0.0000 
     18 CA         -3.4380   32.1195   -6.9065 C.3       3 GLC5        0.0000 
     19 CA         -3.1740   32.6860   -8.7610 C.3       9 GLL5        0.0000 
     20 CA         -3.7020   31.5530   -5.0520 C.3       6 GLP5        0.0000 
     21 CA         -2.1575   31.6335  -10.4000 C.3       3 GLC5        0.0000 
     22 CA         -1.1410   30.5810  -12.0390 C.3       6 GLP5        0.0000 
     23 N           0.0395   30.8800   -7.9255 N.am      2 SEC2        0.0000 
     24 N          -1.3000   31.3840   -8.0220 N.am      8 SEL2        0.0000 
     25 N           1.3790   30.3760   -7.8290 N.am      5 SEP2        0.0000 
     26 CA         -3.1745   34.2185  -12.1620 C.3       3 GLC5        0.0000 
     27 CA         -3.2430   32.9640  -10.3390 C.3       9 GLL5        0.0000 
     28 CA         -3.1060   35.4730  -13.9850 C.3       6 GLP5        0.0000 
     29 CA         -2.7965   31.7350  -11.4880 C.3       3 GLC5        0.0000 
     30 CA         -2.3500   30.5060  -12.6370 C.3       6 GLP5        0.0000 
     31 CA         -2.4830   27.3065   -7.1140 C.3       3 GLC5        0.0000 
     32 CA         -2.5390   28.9200   -8.2470 C.3       9 GLL5        0.0000 
     33 CA         -2.4270   25.6930   -5.9810 C.3       6 GLP5        0.0000 
     34 CA         -3.1205   30.2365   -6.6495 C.3       3 GLC5        0.0000 
     35 CA         -4.0975   27.9700   -8.5480 C.3       3 GLC5        0.0000 
     36 CA         -5.6560   27.0200   -8.8490 C.3       6 GLP5        0.0000 
     37 CA         -1.8400   29.7505  -10.1430 C.3       3 GLC5        0.0000 
     38 O          -0.3175   27.4915   -8.2675 O.2       1 ALC1        0.0000 
     39 O          -1.2320   27.2670   -9.3330 O.2       7 ALL1        0.0000 
     40 O           0.5970   27.7160   -7.2020 O.2       4 ALP1        0.0000 
     41 CA          2.1410   24.4895  -10.7220 C.3       3 GLC5        0.0000 
     42 CA          0.5410   25.7860  -10.2380 C.3       9 GLL5        0.0000 
     43 CA          3.7410   23.1930  -11.2060 C.3       6 GLP5        0.0000 
     44 CA          1.5835   25.8785   -8.3565 C.3       3 GLC5        0.0000 
     45 CA          2.6260   25.9710   -6.4750 C.3       6 GLP5        0.0000 
     46 CA          0.4800   23.8310   -9.2470 C.3       3 GLC5        0.0000 
     47 CA          0.4190   21.8760   -8.2560 C.3       6 GLP5        0.0000 
     48 N           1.4890   27.9335  -12.6775 N.am      2 SEC2        0.0000 
     49 N           1.3900   27.7420  -11.2610 N.am      8 SEL2        0.0000 
     50 N           1.5880   28.1250  -14.0940 N.am      5 SEP2        0.0000 
     51 O          -1.5220   25.1645  -12.4920 O.2       1 ALC1        0.0000 
     52 O          -1.9910   24.4480  -11.3530 O.2       7 ALL1        0.0000 
     53 O          -1.0530   25.8810  -13.6310 O.2       4 ALP1        0.0000 
     54 CA         -1.0235   22.4455   -9.7965 C.3       3 GLC5        0.0000 
     55 CA         -2.4660   23.0150  -11.3370 C.3       9 GLL5        0.0000 
     56 N           0.2945   21.0135  -11.9535 N.am      2 SEC2        0.0000 
     57 N          -0.2300   22.5330  -11.8130 N.am      8 SEL2        0.0000 
     58 N           0.8190   19.4940  -12.0940 N.am      5 SEP2        0.0000 
     59 N           0.9205   22.6075  -12.7180 N.am      2 SEC2        0.0000 
     60 N           2.0710   22.6820  -13.6230 N.am      5 SEP2        0.0000 
     61 CA         -6.2335   24.8815  -10.8325 C.3       3 GLC5        0.0000 
     62 CA         -4.8960   23.7830  -11.6910 C.3       9 GLL5        0.0000 
     63 CA         -7.5710   25.9800   -9.9740 C.3       6 GLP5        0.0000 
     64 CA         -6.0590   22.3890  -10.6105 C.3       3 GLC5        0.0000 
     65 CA         -7.2220   20.9950   -9.5300 C.3       6 GLP5        0.0000 
     66 CA         -1.9650   23.0380  -14.8155 C.3       3 GLC5        0.0000 
     67 CA         -3.4670   23.1950  -13.7350 C.3       9 GLL5        0.0000 
     68 CA         -0.4630   22.8810  -15.8960 C.3       6 GLP5        0.0000 
     69 N          -0.3870   20.1565  -11.9725 N.am      2 SEC2        0.0000 
     70 N          -1.5930   20.8190  -11.8510 N.am      8 SEL2        0.0000 
     71 CA         -3.5518   38.1813  -10.4335 C.3       3 GLC5        0.0000 
     72 CA         -4.4490   39.2730   -9.2180 C.3       9 GLL5        0.0000 
     73 CA         -3.2930   37.0400  -12.0820 C.3       6 GLP5        0.0000 
     74 CA         -4.7160   37.6655  -10.7070 C.3       3 GLC5        0.0000 
     75 CA         -5.5480   38.2760   -8.8240 C.3       9 GLL5        0.0000 
     76 CA         -2.6705   34.7075   -4.1780 C.3       3 GLC5        0.0000 
     77 CA         -3.4470   33.1240   -3.3030 C.3       6 GLP5        0.0000 
     78 CA         -4.1756   22.2920  -10.1433 C.3       3 GLC5        0.0000 
     79 CA         -4.3520   21.1990   -8.5430 C.3       6 GLP5        0.0000 
     80 CA         -5.3626   21.9720  -13.4320 C.3       3 GLC5        0.0000 
     81 CA         -3.7390   22.9590  -12.2550 C.3       9 GLL5        0.0000 
     82 CA         -6.8330   20.6610  -14.0100 C.3       6 GLP5        0.0000 
@<TRIPOS>BOND
@<TRIPOS>SUBSTRUCTURE
     1 ALC1        1 GROUP        1 X    ALC  0     ROOT ALC X 1
     2 SEC2        6 GROUP        1 X    SEC  0     **** SEC X 2
     3 GLC5        9 GROUP        1 X    GLC  0     **** GLC X 6
     4 ALP1        3 GROUP        1 Y    ALP  0     ROOT ALP Y 8
     5 SEP2        8 GROUP        1 Y    SEP  0     **** SEP Y 9
     6 GLP5       11 GROUP        1 Y    GLP  0     **** GLP Y 13
     7 ALL1        2 GROUP        1 Z    ALL  0     ROOT ALL Z 15
     8 SEL2        7 GROUP        1 Z    SEL  0     **** SEL Z 16
     9 GLL5       10 GROUP        1 Z    GLL  0     **** GLL Z 20
@<TRIPOS>SET

