#    Name: 2y7l_ALA_LYS_GLN_ALA_GLY_ASP_VAL_1_ligand
#    Modification time : Tue Mar 25 07:46:05 2014

@<TRIPOS>MOLECULE
2y7l_ALA_LYS_GLN_ALA_GLY_ASP_VAL_1_ligand
   98    97     7     0     0
SMALL
NO_CHARGES


@<TRIPOS>ATOM
      1 N          -0.1690   42.1200   -9.6430 N.4       1 ALA12       0.0000
      2 CA         -1.3500   42.6950   -8.9940 C.3       1 ALA12       0.0000
      3 C          -2.3380   41.6440   -8.4950 C.2       1 ALA12       0.0000
      4 O          -3.1660   41.9980   -7.6800 O.2       1 ALA12       0.0000
      5 CB         -2.0570   43.7350   -9.8890 C.3       1 ALA12       0.0000
      6 HA         -1.0123   43.2626   -8.0870 H         1 ALA12       0.0000
      7 H           0.4629   42.8278   -9.9587 H         1 ALA12       0.0000
      8 H           0.3429   41.5254   -9.0230 H         1 ALA12       0.0000
      9 H          -0.4147   41.5695  -10.4409 H         1 ALA12       0.0000
     10 HB1        -1.4520   44.4961  -10.1230 H         1 ALA12       0.0000
     11 HB2        -2.3690   43.3332  -10.7499 H         1 ALA12       0.0000
     12 HB3        -2.8603   44.1264   -9.4401 H         1 ALA12       0.0000
     13 N          -2.2500   40.3650   -8.9140 N.am      2 LYS13       0.0000
     14 CA         -3.1720   39.3720   -8.3520 C.3       2 LYS13       0.0000
     15 C          -2.4350   38.0350   -8.1840 C.2       2 LYS13       0.0000
     16 O          -1.4310   37.7660   -8.8630 O.2       2 LYS13       0.0000
     17 CB         -4.4490   39.2730   -9.2180 C.3       2 LYS13       0.0000
     18 CG         -5.5480   38.2760   -8.8240 C.3       2 LYS13       0.0000
     19 CD         -6.7300   38.3060   -9.8400 C.3       2 LYS13       0.0000
     20 CE         -7.7130   37.1310   -9.6510 C.3       2 LYS13       0.0000
     21 NZ         -8.5160   37.1380   -8.4050 N.4       2 LYS13       0.0000
     22 HNCA       -1.5774   40.0415   -9.6026 H         2 LYS13       0.0000
     23 HA         -3.4789   39.7065   -7.3510 H         2 LYS13       0.0000
     24 HB2        -4.1342   39.0529  -10.2744 H         2 LYS13       0.0000
     25 HB3        -4.9065   40.2980   -9.2779 H         2 LYS13       0.0000
     26 HG2        -5.9313   38.5282   -7.8391 H         2 LYS13       0.0000
     27 HG3        -5.1358   37.2709   -8.8017 H         2 LYS13       0.0000
     28 HD2        -6.3199   38.2715  -10.8519 H         2 LYS13       0.0000
     29 HD3        -7.2694   39.2482   -9.7185 H         2 LYS13       0.0000
     30 HE2        -7.1229   36.1853   -9.7176 H         2 LYS13       0.0000
     31 HE3        -8.3897   37.1129  -10.5391 H         2 LYS13       0.0000
     32 HZ1        -7.9371   37.1140   -7.5900 H         2 LYS13       0.0000
     33 HZ2        -9.0864   37.9564   -8.3354 H         2 LYS13       0.0000
     34 HZ3        -9.1280   36.3489   -8.3532 H         2 LYS13       0.0000
     35 N          -2.9360   37.2520   -7.2350 N.am      3 GLN14       0.0000
     36 CA         -2.3230   35.9360   -6.9620 C.3       3 GLN14       0.0000
     37 C          -3.1510   34.8090   -7.6080 C.2       3 GLN14       0.0000
     38 O          -4.3860   34.8820   -7.6270 O.2       3 GLN14       0.0000
     39 CB         -2.2000   35.6970   -5.4610 C.3       3 GLN14       0.0000
     40 CG         -1.5880   36.8850   -4.6450 C.3       3 GLN14       0.0000
     41 CD         -0.2680   37.3490   -5.1300 C.2       3 GLN14       0.0000
     42 OE1         0.6380   36.5650   -5.2950 O.2       3 GLN14       0.0000
     43 NE2        -0.1510   38.6380   -5.3820 N.am      3 GLN14       0.0000
     44 HNCA       -3.7463   37.5008   -6.6557 H         3 GLN14       0.0000
     45 HA         -1.3260   35.8987   -7.3927 H         3 GLN14       0.0000
     46 HB2        -1.5746   34.8050   -5.2807 H         3 GLN14       0.0000
     47 HB3        -3.1970   35.4761   -5.0409 H         3 GLN14       0.0000
     48 HG2        -1.5209   36.5573   -3.5903 H         3 GLN14       0.0000
     49 HG3        -2.3231   37.7117   -4.6692 H         3 GLN14       0.0000
     50 HE21       -0.9697   39.1920   -5.2308 H         3 GLN14       0.0000
     51 HE22        0.7458   38.9443   -5.7014 H         3 GLN14       0.0000
     52 N          -2.4540   33.7640   -8.1220 N.am      4 ALA15       0.0000
     53 CA         -3.1740   32.6860   -8.7610 C.3       4 ALA15       0.0000
     54 C          -2.4600   31.3670   -8.4130 C.2       4 ALA15       0.0000
     55 O          -1.3000   31.3840   -8.0220 O.2       4 ALA15       0.0000
     56 CB         -3.2430   32.9640  -10.3390 C.3       4 ALA15       0.0000
     57 H          -1.4378   33.7029   -8.0783 H         4 ALA15       0.0000
     58 HA         -4.1863   32.6389   -8.4021 H         4 ALA15       0.0000
     59 HB1        -2.3315   33.0177  -10.7468 H         4 ALA15       0.0000
     60 HB2        -3.7381   32.2418  -10.8220 H         4 ALA15       0.0000
     61 HB3        -3.7073   33.8256  -10.5444 H         4 ALA15       0.0000
     62 N          -3.1290   30.2370   -8.5720 N.am      5 GLY16       0.0000
     63 CA         -2.5390   28.9200   -8.2470 C.3       5 GLY16       0.0000
     64 C          -2.2790   28.0570   -9.4370 C.2       5 GLY16       0.0000
     65 O          -3.0290   28.0750  -10.4000 O.2       5 GLY16       0.0000
     66 HNCA       -4.1063   30.2032   -8.9334 H         5 GLY16       0.0000
     67 HA2        -3.2104   28.3759   -7.5468 H         5 GLY16       0.0000
     68 HA3        -1.5856   29.0676   -7.6934 H         5 GLY16       0.0000
     69 N          -1.2320   27.2670   -9.3330 N.am      6 ASP17       0.0000
     70 CA         -0.9210   26.2770  -10.3400 C.3       6 ASP17       0.0000
     71 C          -1.7860   25.0630  -10.2110 C.2       6 ASP17       0.0000
     72 O          -2.1720   24.6270   -9.1150 O.2       6 ASP17       0.0000
     73 CB          0.5410   25.7860  -10.2380 C.3       6 ASP17       0.0000
     74 CG          1.5560   26.8540  -10.4760 C.2       6 ASP17       0.0000
     75 OD1         1.3900   27.7420  -11.2610 O.co2     6 ASP17       0.0000
     76 OD2         2.5930   26.7650   -9.7230 O.co2     6 ASP17       0.0000
     77 HNCA       -0.5732   27.3125   -8.5220 H         6 ASP17       0.0000
     78 HA         -1.0472   26.6776  -11.3410 H         6 ASP17       0.0000
     79 HB2         0.6762   24.9667  -10.9660 H         6 ASP17       0.0000
     80 HB3         0.6828   25.3461   -9.2351 H         6 ASP17       0.0000
     81 N          -1.9910   24.4480  -11.3530 N.am      7 VAL18       0.0000
     82 CA         -2.4660   23.0150  -11.3370 C.3       7 VAL18       0.0000
     83 C          -1.3710   21.9420  -11.6730 C.2       7 VAL18       0.0000
     84 O          -0.2300   22.5330  -11.8130 O.2       7 VAL18       0.0000
     85 CB         -3.7390   22.9590  -12.2550 C.3       7 VAL18       0.0000
     86 CG1        -4.8960   23.7830  -11.6910 C.3       7 VAL18       0.0000
     87 CG2        -3.4670   23.1950  -13.7350 C.3       7 VAL18       0.0000
     88 OXT        -1.5930   20.8190  -11.8510 O.3       7 VAL18       0.0000
     89 HNCA       -1.8583   24.8510  -12.2782 H         7 VAL18       0.0000
     90 HA         -2.8381   22.8056  -10.3086 H         7 VAL18       0.0000
     91 HB         -4.0893   21.8648  -12.1747 H         7 VAL18       0.0000
     92 H          -5.1772   23.4588  -10.7878 H         7 VAL18       0.0000
     93 H          -4.6518   24.7478  -11.5932 H         7 VAL18       0.0000
     94 H          -5.7025   23.7431  -12.2809 H         7 VAL18       0.0000
     95 HG21       -3.0618   24.0943  -13.8994 H         7 VAL18       0.0000
     96 HG22       -2.8354   22.5161  -14.1094 H         7 VAL18       0.0000
     97 HG23       -4.3048   23.1472  -14.2788 H         7 VAL18       0.0000
     98 H          -2.2057   20.7985  -12.6411 H         7 VAL18       0.0000
@<TRIPOS>BOND
     1    2    1 1
     2    7    1 1
     3    8    1 1
     4    9    1 1
     5    3    2 1
     6    5    2 1
     7    6    2 1
     8    4    3 2
     9   10    5 1
    10   11    5 1
    11   12    5 1
    12   14   13 1
    13   22   13 1
    14   15   14 1
    15   17   14 1
    16   23   14 1
    17   16   15 2
    18   18   17 1
    19   24   17 1
    20   25   17 1
    21   19   18 1
    22   26   18 1
    23   27   18 1
    24   20   19 1
    25   28   19 1
    26   29   19 1
    27   21   20 1
    28   30   20 1
    29   31   20 1
    30   32   21 1
    31   33   21 1
    32   34   21 1
    33   36   35 1
    34   44   35 1
    35   37   36 1
    36   39   36 1
    37   45   36 1
    38   38   37 2
    39   40   39 1
    40   46   39 1
    41   47   39 1
    42   41   40 1
    43   48   40 1
    44   49   40 1
    45   42   41 2
    46   43   41 am
    47   50   43 1
    48   51   43 1
    49   53   52 1
    50   57   52 1
    51   54   53 1
    52   56   53 1
    53   58   53 1
    54   55   54 2
    55   59   56 1
    56   60   56 1
    57   61   56 1
    58   63   62 1
    59   66   62 1
    60   64   63 1
    61   67   63 1
    62   68   63 1
    63   65   64 2
    64   70   69 1
    65   77   69 1
    66   71   70 1
    67   73   70 1
    68   78   70 1
    69   72   71 2
    70   74   73 1
    71   79   73 1
    72   80   73 1
    73   75   74 ar
    74   76   74 ar
    75   82   81 1
    76   89   81 1
    77   83   82 1
    78   85   82 1
    79   90   82 1
    80   84   83 2
    81   88   83 1
    82   86   85 1
    83   87   85 1
    84   91   85 1
    85   92   86 1
    86   93   86 1
    87   94   86 1
    88   95   87 1
    89   96   87 1
    90   97   87 1
    91   98   88 1
    92   13    3 am
    93   35   15 am
    94   52   37 am
    95   62   54 am
    96   69   64 am
    97   81   71 am
@<TRIPOS>SUBSTRUCTURE
     1 ALA12       1 RESIDUE
     2 LYS13      13 RESIDUE
     3 GLN14      35 RESIDUE
     4 ALA15      52 RESIDUE
     5 GLY16      62 RESIDUE
     6 ASP17      69 RESIDUE
     7 VAL18      81 RESIDUE
@<TRIPOS>SET

