#    Name: 1oon_BEL_1_INTS_M
#    Modification time : Mon Mar 24 20:21:32 2014

@<TRIPOS>MOLECULE
1oon_BEL_1_INTS_M
   24     0     6     0     0
SMALL
NO_CHARGES


@<TRIPOS>ATOM
      1 CA        -14.0525  -15.3120   49.4765 C.3       2 GLC5        0.0000 
      2 CA        -12.6180  -14.1160   48.7640 C.3       6 GLL5        0.0000 
      3 CA        -15.4870  -16.5080   50.1890 C.3       4 GLP5        0.0000 
      4 CA        -11.2155  -15.4075   44.6010 C.3       2 GLC5        0.0000 
      5 CA        -12.1020  -14.6330   46.1660 C.3       6 GLL5        0.0000 
      6 CA        -10.3290  -16.1820   43.0360 C.3       4 GLP5        0.0000 
      7 CA        -14.1560  -13.3935   51.6475 C.3       2 GLC5        0.0000 
      8 CA        -12.8380  -11.6720   51.0730 C.3       6 GLL5        0.0000 
      9 CA        -15.4740  -15.1150   52.2220 C.3       4 GLP5        0.0000 
     10 N          -7.6470  -15.4675   45.6595 N.am      1 SEC2        0.0000 
     11 N          -6.8410  -14.9130   46.6620 N.am      5 SEL2        0.0000 
     12 N          -8.4530  -16.0220   44.6570 N.am      3 SEP2        0.0000 
     13 N          -6.0755  -10.9910   42.9275 N.am      1 SEC2        0.0000 
     14 N          -6.9880  -10.8470   43.9260 N.am      5 SEL2        0.0000 
     15 N          -5.1630  -11.1350   41.9290 N.am      3 SEP2        0.0000 
     16 N          -4.0365  -15.4940   49.6625 N.am      1 SEC2        0.0000 
     17 N          -5.4820  -15.6650   49.1050 N.am      5 SEL2        0.0000 
     18 N          -2.5910  -15.3230   50.2200 N.am      3 SEP2        0.0000 
     19 CA         -6.2557  -14.6322   51.2993 C.3       2 GLC5        0.0000 
     20 CA         -7.6170  -15.0730   49.8020 C.3       6 GLL5        0.0000 
     21 CA         -4.4440  -14.1080   52.2650 C.3       4 GLP5        0.0000 
     22 CA        -10.8172  -11.1880   51.9235 C.3       2 GLC5        0.0000 
     23 CA        -11.8510  -11.9880   49.9510 C.3       6 GLL5        0.0000 
     24 CA         -9.2900  -10.5460   53.3350 C.3       4 GLP5        0.0000 
@<TRIPOS>BOND
@<TRIPOS>SUBSTRUCTURE
     1 SEC2       10 GROUP        1 X    SEC  0     ROOT SEC X 2
     2 GLC5        1 GROUP        1 X    GLC  0     **** GLC X 6
     3 SEP2       12 GROUP        1 Y    SEP  0     ROOT SEP Y 9
     4 GLP5        3 GROUP        1 Y    GLP  0     **** GLP Y 13
     5 SEL2       11 GROUP        1 Z    SEL  0     ROOT SEL Z 16
     6 GLL5        2 GROUP        1 Z    GLL  0     **** GLL Z 20
@<TRIPOS>SET

