#    Name: 1oon_BEL_1_ligand
#    Modification time : Mon Mar 24 20:21:32 2014

@<TRIPOS>MOLECULE
1oon_BEL_1_ligand
   42    42     1     0     0
SMALL
NO_CHARGES


@<TRIPOS>ATOM
      1 O1        -11.0080  -14.2090   52.7960 O.2       1 BEL362      0.0000 
      2 N1        -10.6520  -15.0890   52.0250 N.pl3     1 BEL362      0.0000 
      3 O2        -10.9160  -16.2750   52.1740 O.2       1 BEL362      0.0000 
      4 C1         -9.8280  -14.7060   50.8470 C.ar      1 BEL362      0.0000 
      5 C2         -8.5180  -15.2400   50.8650 C.ar      1 BEL362      0.0000 
      6 C3         -7.6170  -15.0730   49.8020 C.ar      1 BEL362      0.0000 
      7 C4         -8.0830  -14.3290   48.6180 C.ar      1 BEL362      0.0000 
      8 C5         -9.3870  -13.8090   48.6030 C.ar      1 BEL362      0.0000 
      9 C6        -10.3080  -13.9500   49.6780 C.ar      1 BEL362      0.0000 
     10 N2        -11.6170  -13.4050   49.5970 N.4       1 BEL362      0.0000 
     11 C7        -12.6180  -14.1160   48.7640 C.3       1 BEL362      0.0000 
     12 C8        -12.9640  -13.6630   47.4400 C.3       1 BEL362      0.0000 
     13 BR1       -12.1020  -14.6330   46.1660 Br        1 BEL362      0.0000 
     14 C9        -11.8510  -11.9880   49.9510 C.3       1 BEL362      0.0000 
     15 C10       -12.8380  -11.6720   51.0730 C.3       1 BEL362      0.0000 
     16 BR2       -14.3250  -10.9180   50.3690 Br        1 BEL362      0.0000 
     17 C11        -7.2740  -14.0270   47.3740 C.2       1 BEL362      0.0000 
     18 O3         -6.8410  -14.9130   46.6620 O.2       1 BEL362      0.0000 
     19 N3         -7.0960  -12.7060   47.1110 N.am      1 BEL362      0.0000 
     20 C12        -7.6310  -12.0760   45.8930 C.3       1 BEL362      0.0000 
     21 C13        -6.9310  -10.8290   45.3560 C.2       1 BEL362      0.0000 
     22 O4         -6.9880  -10.8470   43.9260 O.2       1 BEL362      0.0000 
     23 C14        -5.5070  -10.6080   45.9160 C.2       1 BEL362      0.0000 
     24 O5         -4.6080  -11.6430   45.5370 O.2       1 BEL362      0.0000 
     25 N4         -6.3170  -15.7800   49.9640 N.pl3     1 BEL362      0.0000 
     26 O6         -6.1620  -16.4770   50.9570 O.2       1 BEL362      0.0000 
     27 O7         -5.4820  -15.6650   49.1050 O.2       1 BEL362      0.0000 
     28 H          -8.2144  -15.7781   51.7032 H         1 BEL362      0.0000 
     29 H          -9.7078  -13.2851   47.7537 H         1 BEL362      0.0000 
     30 H         -12.0556  -13.9025   50.7600 H         1 BEL362      0.0000 
     31 H         -13.5809  -14.2098   49.3902 H         1 BEL362      0.0000 
     32 H         -12.2953  -15.2209   48.7083 H         1 BEL362      0.0000 
     33 H         -12.6431  -12.6634   47.1880 H         1 BEL362      0.0000 
     34 H         -13.9929  -13.8107   47.1482 H         1 BEL362      0.0000 
     35 H         -12.1868  -11.4233   49.0339 H         1 BEL362      0.0000 
     36 H         -10.8685  -11.5008   50.2155 H         1 BEL362      0.0000 
     37 H         -12.4969  -10.9261   51.7425 H         1 BEL362      0.0000 
     38 H         -13.2229  -12.5318   51.5561 H         1 BEL362      0.0000 
     39 H          -6.5765  -12.0844   47.7552 H         1 BEL362      0.0000 
     40 H          -8.7170  -11.8132   46.0490 H         1 BEL362      0.0000 
     41 H          -7.6606  -12.8333   45.0573 H         1 BEL362      0.0000 
     42 H          -5.3189   -9.8497   46.4447 H         1 BEL362      0.0000 
@<TRIPOS>BOND
     1    2    1 2    
     2    3    2 2    
     3    4    2 1    
     4    5    4 ar   
     5    9    4 ar   
     6    6    5 ar   
     7   28    5 1    
     8    7    6 ar   
     9   25    6 1    
    10    8    7 ar   
    11   17    7 1    
    12    9    8 ar   
    13   29    8 1    
    14   10    9 1    
    15   11   10 1    
    16   14   10 1    
    17   30   10 1    
    18   12   11 1    
    19   31   11 1    
    20   32   11 1    
    21   13   12 1    
    22   33   12 1    
    23   34   12 1    
    24   15   14 1    
    25   35   14 1    
    26   36   14 1    
    27   16   15 1    
    28   37   15 1    
    29   38   15 1    
    30   18   17 2    
    31   19   17 am   
    32   20   19 1    
    33   39   19 1    
    34   21   20 1    
    35   40   20 1    
    36   41   20 1    
    37   22   21 2    
    38   23   21 1    
    39   24   23 2    
    40   42   23 1    
    41   26   25 2    
    42   27   25 2    
@<TRIPOS>SUBSTRUCTURE
     1 BEL362      1 GROUP   
@<TRIPOS>SET

