#    Name: 3pe6_ZYH_1_INTS_M
#    Modification time : Tue Mar 25 06:24:41 2014

@<TRIPOS>MOLECULE
3pe6_ZYH_1_INTS_M
  101     0     9     0     0
SMALL
NO_CHARGES


@<TRIPOS>ATOM
      1 N         -13.4860   22.0780   -4.8875 N.am      2 SEC2        0.0000 
      2 N         -12.8940   20.8220   -4.9860 N.am      8 SEL2        0.0000 
      3 N         -14.0780   23.3340   -4.7890 N.am      5 SEP2        0.0000 
      4 N         -13.0910   19.9815   -3.8130 N.am      2 SEC2        0.0000 
      5 N         -13.2880   19.1410   -2.6400 N.am      5 SEP2        0.0000 
      6 CA        -10.9205   22.8625   -8.7905 C.3       3 GLC5        0.0000 
      7 CA        -10.3850   21.4620   -7.3850 C.3       9 GLL5        0.0000 
      8 CA        -11.4560   24.2630  -10.1960 C.3       6 GLP5        0.0000 
      9 CA         -9.6645   22.5840   -9.2970 C.3       3 GLC5        0.0000 
     10 CA         -8.9980   21.5270   -7.6330 C.3       9 GLL5        0.0000 
     11 CA        -10.3310   23.6410  -10.9610 C.3       6 GLP5        0.0000 
     12 CA        -10.1110   18.9080   -7.1475 C.3       3 GLC5        0.0000 
     13 CA        -10.1100   19.9530   -5.4880 C.3       9 GLL5        0.0000 
     14 CA        -10.1120   17.8630   -8.8070 C.3       6 GLP5        0.0000 
     15 CA         -4.6560   17.0810   -4.6040 C.3       3 GLC5        0.0000 
     16 CA         -5.2880   19.0460   -5.2970 C.3       9 GLL5        0.0000 
     17 CA         -4.0240   15.1160   -3.9110 C.3       6 GLP5        0.0000 
     18 CA         -3.4225   16.9475   -4.8435 C.3       3 GLC5        0.0000 
     19 CA         -2.8210   18.7790   -5.7760 C.3       9 GLL5        0.0000 
     20 CA         -2.3125   17.5045   -7.4365 C.3       3 GLC5        0.0000 
     21 CA         -1.8040   16.2300   -9.0970 C.3       6 GLP5        0.0000 
     22 CA         -3.8145   17.1075   -3.6755 C.3       3 GLC5        0.0000 
     23 CA         -3.6050   19.0990   -3.4400 C.3       9 GLL5        0.0000 
     24 CA        -15.3515   21.3650   -5.7140 C.3       3 GLC5        0.0000 
     25 CA        -14.6700   20.6010   -7.3120 C.3       9 GLL5        0.0000 
     26 CA        -16.0330   22.1290   -4.1160 C.3       6 GLP5        0.0000 
     27 CA        -11.5220   19.0470   -8.6910 C.3       3 GLC5        0.0000 
     28 CA        -12.9320   20.2310   -8.5750 C.3       9 GLL5        0.0000 
     29 O         -15.1195   21.8745   -9.8265 O.2       1 ALC1        0.0000 
     30 O         -15.1290   20.4600   -9.8480 O.2       7 ALL1        0.0000 
     31 O         -15.1100   23.2890   -9.8050 O.2       4 ALP1        0.0000 
     32 CA        -14.7440   20.7190  -14.4680 C.3       3 GLC5        0.0000 
     33 CA        -15.1860   20.5900  -12.2890 C.3       9 GLL5        0.0000 
     34 CA        -14.3020   20.8480  -16.6470 C.3       6 GLP5        0.0000 
     35 CA        -15.5815   22.2835  -12.7285 C.3       3 GLC5        0.0000 
     36 CA        -15.9770   23.9770  -13.1680 C.3       6 GLP5        0.0000 
     37 CA        -17.2835   22.2375  -11.8395 C.3       3 GLC5        0.0000 
     38 CA        -17.3060   20.7080  -10.9980 C.3       9 GLL5        0.0000 
     39 CA        -17.2610   23.7670  -12.6810 C.3       6 GLP5        0.0000 
     40 CA        -17.3070   21.9105   -8.5865 C.3       3 GLC5        0.0000 
     41 CA        -16.5730   20.2070   -9.7740 C.3       9 GLL5        0.0000 
     42 CA        -18.0410   23.6140   -7.3990 C.3       6 GLP5        0.0000 
     43 CA        -17.1085   19.0535   -8.2390 C.3       3 GLC5        0.0000 
     44 CA        -17.6440   17.9000   -6.7040 C.3       6 GLP5        0.0000 
     45 CA        -18.1530   21.1670  -14.5780 C.3       3 GLC5        0.0000 
     46 CA        -17.2850   19.7100  -13.3360 C.3       9 GLL5        0.0000 
     47 CA        -19.0210   22.6240  -15.8200 C.3       6 GLP5        0.0000 
     48 CA        -16.9455   18.1700  -12.4110 C.3       3 GLC5        0.0000 
     49 CA        -16.6060   16.6300  -11.4860 C.3       6 GLP5        0.0000 
     50 CA        -15.7255   19.7570  -15.9810 C.3       3 GLC5        0.0000 
     51 CA        -17.1490   18.6660  -15.3150 C.3       9 GLL5        0.0000 
     52 CA        -17.0415   18.1465  -17.2450 C.3       3 GLC5        0.0000 
     53 CA        -16.9340   17.6270  -19.1750 C.3       6 GLP5        0.0000 
     54 CA        -16.8775   17.6480  -13.4005 C.3       3 GLC5        0.0000 
     55 CA        -20.2700   17.9540  -16.4345 C.3       3 GLC5        0.0000 
     56 CA        -18.5180   18.5320  -15.3840 C.3       9 GLL5        0.0000 
     57 CA        -22.0220   17.3760  -17.4850 C.3       6 GLP5        0.0000 
     58 CA        -18.4950   19.0865  -17.2890 C.3       3 GLC5        0.0000 
     59 CA        -18.4720   19.6410  -19.1940 C.3       6 GLP5        0.0000 
     60 CA        -19.1180   17.8195  -12.6530 C.3       3 GLC5        0.0000 
     61 CA        -19.2390   19.0490  -14.3440 C.3       9 GLL5        0.0000 
     62 CA        -18.9970   16.5900  -10.9620 C.3       6 GLP5        0.0000 
     63 CA        -11.2287   22.6255   -6.0292 C.3       3 GLC5        0.0000 
     64 CA        -10.9200   20.7120   -6.3120 C.3       9 GLL5        0.0000 
     65 CA        -11.8050   24.1640   -5.2100 C.3       6 GLP5        0.0000 
     66 CA         -7.6472   23.0400   -7.2328 C.3       3 GLC5        0.0000 
     67 CA         -6.7110   24.9230   -7.2570 C.3       6 GLP5        0.0000 
     68 CA         -9.9686   19.5850   -8.0239 C.3       3 GLC5        0.0000 
     69 CA         -7.7705   21.7147   -4.9640 C.3       3 GLC5        0.0000 
     70 CA         -8.1690   20.7870   -6.7840 C.3       9 GLL5        0.0000 
     71 CA         -7.0730   23.0190   -3.6460 C.3       6 GLP5        0.0000 
     72 CA         -8.0475   18.9797   -7.4630 C.3       3 GLC5        0.0000 
     73 CA         -7.6270   17.5490   -8.6440 C.3       6 GLP5        0.0000 
     74 CA         -6.1800   18.3457   -7.2212 C.3       3 GLC5        0.0000 
     75 CA         -1.1092   17.8908   -5.2470 C.3       3 GLC5        0.0000 
     76 CA          0.4420   16.6750   -5.3800 C.3       6 GLP5        0.0000 
     77 CA         -0.9183   20.1127   -5.6925 C.3       3 GLC5        0.0000 
     78 CA          0.8240   21.1190   -6.2710 C.3       6 GLP5        0.0000 
     79 CA         -1.9007   19.3212   -2.4990 C.3       3 GLC5        0.0000 
     80 CA         -2.5000   19.4340   -4.4520 C.3       9 GLL5        0.0000 
     81 CA         -0.7490   19.3760   -1.0520 C.3       6 GLP5        0.0000 
     82 CA         -5.1580   20.7770   -2.5927 C.3       3 GLC5        0.0000 
     83 CA         -6.0240   22.2000   -1.4900 C.3       6 GLP5        0.0000 
     84 CA        -16.0983   19.0790   -7.3532 C.3       3 GLC5        0.0000 
     85 CA        -14.3908   19.0140   -6.4953 C.3       3 GLC5        0.0000 
     86 CA        -14.2290   17.7700   -4.9880 C.3       6 GLP5        0.0000 
     87 CA        -13.6303   18.0495   -8.8420 C.3       3 GLC5        0.0000 
     88 CA        -14.4350   19.9150   -8.6930 C.3       9 GLL5        0.0000 
     89 CA        -13.5770   16.0260   -9.0500 C.3       6 GLP5        0.0000 
     90 CA        -13.2647   21.2630  -12.1393 C.3       3 GLC5        0.0000 
     91 CA        -14.5170   19.9880  -11.0920 C.3       9 GLL5        0.0000 
     92 CA        -11.6780   22.2370  -12.5880 C.3       6 GLP5        0.0000 
     93 CA        -13.3253   19.3375  -12.1647 C.3       3 GLC5        0.0000 
     94 CA        -11.7990   18.3860  -12.6390 C.3       6 GLP5        0.0000 
     95 CA        -15.7288   18.4595  -11.5883 C.3       3 GLC5        0.0000 
     96 CA        -16.7728   18.5437  -10.9360 C.3       3 GLC5        0.0000 
     97 CA        -17.7512   16.7660  -15.7542 C.3       3 GLC5        0.0000 
     98 CA        -17.6690   14.9330  -16.1590 C.3       6 GLP5        0.0000 
     99 CA        -20.3263   17.6502  -14.1360 C.3       3 GLC5        0.0000 
    100 CA        -21.7740   16.5100  -13.4080 C.3       6 GLP5        0.0000 
    101 CA        -18.7786   20.7240  -15.3334 C.3       3 GLC5        0.0000 
@<TRIPOS>BOND
@<TRIPOS>SUBSTRUCTURE
     1 ALC1       29 GROUP        1 X    ALC  0     ROOT ALC X 1
     2 SEC2        1 GROUP        1 X    SEC  0     **** SEC X 2
     3 GLC5        6 GROUP        1 X    GLC  0     **** GLC X 6
     4 ALP1       31 GROUP        1 Y    ALP  0     ROOT ALP Y 8
     5 SEP2        3 GROUP        1 Y    SEP  0     **** SEP Y 9
     6 GLP5        8 GROUP        1 Y    GLP  0     **** GLP Y 13
     7 ALL1       30 GROUP        1 Z    ALL  0     ROOT ALL Z 15
     8 SEL2        2 GROUP        1 Z    SEL  0     **** SEL Z 16
     9 GLL5        7 GROUP        1 Z    GLL  0     **** GLL Z 20
@<TRIPOS>SET

