#    Name: 3pe6_ZYH_1_ligand
#    Modification time : Tue Mar 25 06:24:41 2014

@<TRIPOS>MOLECULE
3pe6_ZYH_1_ligand
   64    69     1     0     0
SMALL
NO_CHARGES


@<TRIPOS>ATOM
      1 O01       -12.8940   20.8220   -4.9860 O.2       1 ZYH304      0.0000 
      2 C02       -12.4020   20.7480   -6.1150 C.2       1 ZYH304      0.0000 
      3 C03       -10.9200   20.7120   -6.3120 C.ar      1 ZYH304      0.0000 
      4 C04       -10.3850   21.4620   -7.3850 C.ar      1 ZYH304      0.0000 
      5 C05        -8.9980   21.5270   -7.6330 C.ar      1 ZYH304      0.0000 
      6 C06        -8.1690   20.7870   -6.7840 C.ar      1 ZYH304      0.0000 
      7 N07        -6.7570   20.5930   -6.7650 N.2       1 ZYH304      0.0000 
      8 C08        -6.5480   19.7470   -5.8030 C.2       1 ZYH304      0.0000 
      9 O09        -7.7070   19.3750   -5.1310 O.3       1 ZYH304      0.0000 
     10 C10        -8.7670   20.0340   -5.7800 C.ar      1 ZYH304      0.0000 
     11 C11       -10.1100   19.9530   -5.4880 C.ar      1 ZYH304      0.0000 
     12 C12        -5.2880   19.0460   -5.2970 C.3       1 ZYH304      0.0000 
     13 C13        -4.1780   19.2390   -6.3000 C.3       1 ZYH304      0.0000 
     14 C14        -2.8210   18.7790   -5.7760 C.3       1 ZYH304      0.0000 
     15 C15        -2.5000   19.4340   -4.4520 C.3       1 ZYH304      0.0000 
     16 C16        -3.6050   19.0990   -3.4400 C.3       1 ZYH304      0.0000 
     17 C17        -4.9790   19.6090   -3.9510 C.3       1 ZYH304      0.0000 
     18 N18       -13.1870   20.6870   -7.1920 N.am      1 ZYH304      0.0000 
     19 C19       -14.6700   20.6010   -7.3120 C.3       1 ZYH304      0.0000 
     20 C20       -14.4350   19.9150   -8.6930 C.3       1 ZYH304      0.0000 
     21 C21       -12.9320   20.2310   -8.5750 C.3       1 ZYH304      0.0000 
     22 N22       -15.1290   20.4600   -9.8480 N.4       1 ZYH304      0.0000 
     23 C23       -14.5170   19.9880  -11.0920 C.3       1 ZYH304      0.0000 
     24 C24       -15.1860   20.5900  -12.2890 C.3       1 ZYH304      0.0000 
     25 N25       -16.6010   20.2620  -12.2430 N.3       1 ZYH304      0.0000 
     26 C26       -17.3060   20.7080  -10.9980 C.3       1 ZYH304      0.0000 
     27 C27       -16.5730   20.2070   -9.7740 C.3       1 ZYH304      0.0000 
     28 C28       -17.2850   19.7100  -13.3360 C.ar      1 ZYH304      0.0000 
     29 N29       -16.4940   19.2310  -14.3140 N.ar      1 ZYH304      0.0000 
     30 C30       -17.1490   18.6660  -15.3150 C.ar      1 ZYH304      0.0000 
     31 C31       -18.5180   18.5320  -15.3840 C.ar      1 ZYH304      0.0000 
     32 C32       -19.2390   19.0490  -14.3440 C.ar      1 ZYH304      0.0000 
     33 N33       -18.6490   19.6420  -13.2840 N.ar      1 ZYH304      0.0000 
     34 H         -11.0323   21.9784   -8.0064 H         1 ZYH304      0.0000 
     35 H          -8.6298   22.0789   -8.3834 H         1 ZYH304      0.0000 
     36 H         -10.4697   19.3966   -4.7478 H         1 ZYH304      0.0000 
     37 H          -5.5182   17.9952   -5.2075 H         1 ZYH304      0.0000 
     38 H          -4.1106   20.3023   -6.5722 H         1 ZYH304      0.0000 
     39 H          -4.4116   18.6796   -7.2174 H         1 ZYH304      0.0000 
     40 H          -2.0517   19.0349   -6.5071 H         1 ZYH304      0.0000 
     41 H          -2.8356   17.6943   -5.6538 H         1 ZYH304      0.0000 
     42 H          -2.4491   20.5090   -4.5747 H         1 ZYH304      0.0000 
     43 H          -1.5542   19.0630   -4.0763 H         1 ZYH304      0.0000 
     44 H          -3.3849   19.5763   -2.4927 H         1 ZYH304      0.0000 
     45 H          -3.6585   18.0254   -3.3048 H         1 ZYH304      0.0000 
     46 H          -5.7403   19.3123   -3.2286 H         1 ZYH304      0.0000 
     47 H          -4.9421   20.6982   -3.9915 H         1 ZYH304      0.0000 
     48 H         -15.0785   21.5055   -7.4700 H         1 ZYH304      0.0000 
     49 H         -15.0507   19.9206   -6.6780 H         1 ZYH304      0.0000 
     50 H         -14.5246   18.8775   -8.5105 H         1 ZYH304      0.0000 
     51 H         -12.4113   19.3637   -8.5905 H         1 ZYH304      0.0000 
     52 H         -12.7096   21.0055   -9.1869 H         1 ZYH304      0.0000 
     53 H         -14.9875   21.5777   -9.8151 H         1 ZYH304      0.0000 
     54 H         -14.5863   18.8911  -11.1584 H         1 ZYH304      0.0000 
     55 H         -13.4472   20.2478  -11.1127 H         1 ZYH304      0.0000 
     56 H         -14.7244   20.1896  -13.1932 H         1 ZYH304      0.0000 
     57 H         -15.0379   21.6711  -12.2730 H         1 ZYH304      0.0000 
     58 H         -18.3252   20.3183  -10.9912 H         1 ZYH304      0.0000 
     59 H         -17.3505   21.7979  -10.9693 H         1 ZYH304      0.0000 
     60 H         -17.0020   20.6975   -8.8836 H         1 ZYH304      0.0000 
     61 H         -16.7668   19.1260   -9.6677 H         1 ZYH304      0.0000 
     62 H         -16.5906   18.2755  -16.1471 H         1 ZYH304      0.0000 
     63 H         -18.9634   18.0727  -16.1679 H         1 ZYH304      0.0000 
     64 H         -20.2902   18.9789  -14.3773 H         1 ZYH304      0.0000 
@<TRIPOS>BOND
     1    2    1 2    
     2    3    2 1    
     3   18    2 am   
     4    4    3 ar   
     5   11    3 ar   
     6    5    4 ar   
     7   34    4 1    
     8    6    5 ar   
     9   35    5 1    
    10    7    6 1    
    11   10    6 ar   
    12    8    7 2    
    13    9    8 1    
    14   12    8 1    
    15   10    9 1    
    16   11   10 ar   
    17   36   11 1    
    18   13   12 1    
    19   17   12 1    
    20   37   12 1    
    21   14   13 1    
    22   38   13 1    
    23   39   13 1    
    24   15   14 1    
    25   40   14 1    
    26   41   14 1    
    27   16   15 1    
    28   42   15 1    
    29   43   15 1    
    30   17   16 1    
    31   44   16 1    
    32   45   16 1    
    33   46   17 1    
    34   47   17 1    
    35   19   18 1    
    36   21   18 1    
    37   20   19 1    
    38   48   19 1    
    39   49   19 1    
    40   21   20 1    
    41   22   20 1    
    42   50   20 1    
    43   51   21 1    
    44   52   21 1    
    45   23   22 1    
    46   27   22 1    
    47   53   22 1    
    48   24   23 1    
    49   54   23 1    
    50   55   23 1    
    51   25   24 1    
    52   56   24 1    
    53   57   24 1    
    54   26   25 1    
    55   28   25 1    
    56   27   26 1    
    57   58   26 1    
    58   59   26 1    
    59   60   27 1    
    60   61   27 1    
    61   29   28 ar   
    62   33   28 ar   
    63   30   29 ar   
    64   31   30 ar   
    65   62   30 1    
    66   32   31 ar   
    67   63   31 1    
    68   33   32 ar   
    69   64   32 1    
@<TRIPOS>SUBSTRUCTURE
     1 ZYH304      1 GROUP   
@<TRIPOS>SET

