#    Name: 1fcy_564_1_INTS_M
#    Modification time : Tue Mar 25 01:04:58 2014

@<TRIPOS>MOLECULE
1fcy_564_1_INTS_M
   86     0     6     0     0
SMALL
NO_CHARGES


@<TRIPOS>ATOM
      1 CA         34.4230   15.2975   86.6840 C.3       2 GLC5        0.0000 
      2 CA         35.6220   16.1120   88.2530 C.3       6 GLL5        0.0000 
      3 CA         33.2240   14.4830   85.1150 C.3       4 GLP5        0.0000 
      4 CA         36.2950   19.7315   85.6570 C.3       2 GLC5        0.0000 
      5 CA         36.3560   17.8050   86.6300 C.3       6 GLL5        0.0000 
      6 CA         36.2340   21.6580   84.6840 C.3       4 GLP5        0.0000 
      7 CA         44.7670   12.1775   78.4495 C.3       2 GLC5        0.0000 
      8 CA         44.6050   13.3080   80.2110 C.3       6 GLL5        0.0000 
      9 CA         44.9290   11.0470   76.6880 C.3       4 GLP5        0.0000 
     10 CA         46.6085   13.3790   79.4270 C.3       2 GLC5        0.0000 
     11 CA         48.6120   13.4500   78.6430 C.3       4 GLP5        0.0000 
     12 CA         46.9805   14.2245   80.1670 C.3       2 GLC5        0.0000 
     13 CA         45.0020   14.7270   80.2690 C.3       6 GLL5        0.0000 
     14 CA         48.9590   13.7220   80.0650 C.3       4 GLP5        0.0000 
     15 CA         46.4535   16.1495   79.3475 C.3       2 GLC5        0.0000 
     16 CA         47.9050   17.5720   78.4260 C.3       4 GLP5        0.0000 
     17 CA         41.1940   14.9730   79.9945 C.3       2 GLC5        0.0000 
     18 CA         42.2110   13.2960   79.5200 C.3       6 GLL5        0.0000 
     19 CA         40.1770   16.6500   80.4690 C.3       4 GLP5        0.0000 
     20 CA         41.1915   12.5085   78.0300 C.3       2 GLC5        0.0000 
     21 CA         40.1720   11.7210   76.5400 C.3       4 GLP5        0.0000 
     22 CA         42.8350   10.4465   82.2220 C.3       2 GLC5        0.0000 
     23 CA         43.1640   11.5340   81.0310 C.3       6 GLL5        0.0000 
     24 CA         42.5060    9.3590   83.4130 C.3       4 GLP5        0.0000 
     25 CA         41.2080   10.9930   80.9230 C.3       2 GLC5        0.0000 
     26 CA         39.2520   10.4520   80.8150 C.3       4 GLP5        0.0000 
     27 CA         43.0180    9.6225   80.3135 C.3       2 GLC5        0.0000 
     28 CA         42.8720    7.7110   79.5960 C.3       4 GLP5        0.0000 
     29 CA         44.4120   10.1915   81.2765 C.3       2 GLC5        0.0000 
     30 CA         45.6600    8.8490   81.5220 C.3       4 GLP5        0.0000 
     31 CA         44.6735   18.2305   80.1130 C.3       2 GLC5        0.0000 
     32 CA         44.8570   16.8250   81.3310 C.3       6 GLL5        0.0000 
     33 CA         44.4900   19.6360   78.8950 C.3       4 GLP5        0.0000 
     34 CA         46.6265   17.5890   80.6310 C.3       2 GLC5        0.0000 
     35 CA         48.3960   18.3530   79.9310 C.3       4 GLP5        0.0000 
     36 CA         46.0635   17.7610   82.4775 C.3       2 GLC5        0.0000 
     37 CA         47.2700   18.6970   83.6240 C.3       4 GLP5        0.0000 
     38 CA         47.4945   14.3715   81.3355 C.3       2 GLC5        0.0000 
     39 CA         46.0300   15.0210   82.6060 C.3       6 GLL5        0.0000 
     40 CA         46.6500   16.8590   83.1150 C.3       2 GLC5        0.0000 
     41 CA         46.0570   15.3875   84.5495 C.3       2 GLC5        0.0000 
     42 CA         46.0840   15.7540   86.4930 C.3       4 GLP5        0.0000 
     43 CA         47.7895   14.4840   83.2875 C.3       2 GLC5        0.0000 
     44 CA         49.5490   13.9470   83.9690 C.3       4 GLP5        0.0000 
     45 N          33.3135   18.7355   90.0230 N.am      1 SEC2        0.0000 
     46 N          34.1880   18.1160   89.4160 N.am      5 SEL2        0.0000 
     47 N          32.4390   19.3550   90.6300 N.am      3 SEP2        0.0000 
     48 N          32.9140   19.6635   87.7505 N.am      1 SEC2        0.0000 
     49 N          34.3400   19.4520   87.6620 N.am      5 SEL2        0.0000 
     50 N          31.4880   19.8750   87.8390 N.am      3 SEP2        0.0000 
     51 CA         40.0040   17.8190   84.6970 C.3       2 GLC5        0.0000 
     52 CA         38.8870   16.3130   84.3900 C.3       6 GLL5        0.0000 
     53 CA         41.1210   19.3250   85.0040 C.3       4 GLP5        0.0000 
     54 CA         42.0470   11.4625   82.9560 C.3       2 GLC5        0.0000 
     55 CA         41.5880   13.5660   82.4990 C.3       6 GLL5        0.0000 
     56 CA         44.5995   15.7250   84.9465 C.3       2 GLC5        0.0000 
     57 CA         43.1150   15.6960   83.4000 C.3       6 GLL5        0.0000 
     58 CA         42.2710   15.4520   86.0065 C.3       2 GLC5        0.0000 
     59 CA         41.9660   15.3780   84.0030 C.3       6 GLL5        0.0000 
     60 CA         42.5760   15.5260   88.0100 C.3       4 GLP5        0.0000 
     61 CA         37.0965   18.2940   88.5938 C.3       2 GLC5        0.0000 
     62 CA         38.2390   18.9650   90.0160 C.3       4 GLP5        0.0000 
     63 CA         36.8405   16.6035   89.4665 C.3       2 GLC5        0.0000 
     64 CA         37.6170   17.5450   90.9720 C.3       4 GLP5        0.0000 
     65 CA         35.8940   14.3470   89.4680 C.3       2 GLC5        0.0000 
     66 CA         35.7240   13.0320   90.9750 C.3       4 GLP5        0.0000 
     67 CA         38.6979   16.1722   87.7172 C.3       2 GLC5        0.0000 
     68 CA         37.2340   16.8700   86.0530 C.3       6 GLL5        0.0000 
     69 CA         40.3240   16.2130   88.8510 C.3       4 GLP5        0.0000 
     70 CA         43.6170   13.3783   83.8803 C.3       2 GLC5        0.0000 
     71 CA         43.5400   14.9400   82.3100 C.3       6 GLL5        0.0000 
     72 CA         44.0740   12.3550   85.6820 C.3       4 GLP5        0.0000 
     73 CA         44.7867   14.9982   78.5385 C.3       2 GLC5        0.0000 
     74 CA         44.7700   15.9790   76.8370 C.3       4 GLP5        0.0000 
     75 CA         39.7037   14.2995   86.8918 C.3       2 GLC5        0.0000 
     76 CA         39.0090   14.9880   84.8700 C.3       6 GLL5        0.0000 
     77 CA         40.8030   13.7800   88.3740 C.3       4 GLP5        0.0000 
     78 CA         36.2514   13.8447   86.1317 C.3       2 GLC5        0.0000 
     79 CA         38.2000   14.6500   85.9490 C.3       6 GLL5        0.0000 
     80 CA         34.9480   12.6680   85.7320 C.3       4 GLP5        0.0000 
     81 CA         38.8220   18.6139   85.8409 C.3       2 GLC5        0.0000 
     82 CA         40.2310   19.9420   86.0330 C.3       4 GLP5        0.0000 
     83 CA         42.7228   13.1513   84.3653 C.3       2 GLC5        0.0000 
     84 CA         41.1550   14.3290   83.5980 C.3       6 GLL5        0.0000 
     85 CA         41.8308   17.4310   84.3528 C.3       2 GLC5        0.0000 
     86 CA         43.3072   13.9460   84.6917 C.3       2 GLC5        0.0000 
@<TRIPOS>BOND
@<TRIPOS>SUBSTRUCTURE
     1 SEC2       45 GROUP        1 X    SEC  0     ROOT SEC X 2
     2 GLC5        1 GROUP        1 X    GLC  0     **** GLC X 6
     3 SEP2       47 GROUP        1 Y    SEP  0     ROOT SEP Y 9
     4 GLP5        3 GROUP        1 Y    GLP  0     **** GLP Y 13
     5 SEL2       46 GROUP        1 Z    SEL  0     ROOT SEL Z 16
     6 GLL5        2 GROUP        1 Z    GLL  0     **** GLL Z 20
@<TRIPOS>SET

