#    Name: 1fcy_564_1_ligand
#    Modification time : Tue Mar 25 01:04:58 2014

@<TRIPOS>MOLECULE
1fcy_564_1_ligand
   54    57     1     0     0
SMALL
NO_CHARGES


@<TRIPOS>ATOM
      1 C1         34.6330   18.3790   88.3370 C.2       1 564450      0.0000 
      2 C2         35.5520   17.4410   87.7130 C.ar      1 564450      0.0000 
      3 C3         35.6220   16.1120   88.2530 C.ar      1 564450      0.0000 
      4 C4         36.5060   15.2120   87.6690 C.ar      1 564450      0.0000 
      5 C5         37.3130   15.5740   86.5590 C.ar      1 564450      0.0000 
      6 C10        37.2340   16.8700   86.0530 C.ar      1 564450      0.0000 
      7 C11        36.3560   17.8050   86.6300 C.ar      1 564450      0.0000 
      8 C15        42.7800   13.8630   81.8470 C.ar      1 564450      0.0000 
      9 C16        43.1920   13.0000   80.6640 C.3       1 564450      0.0000 
     10 C17        44.6050   13.3080   80.2110 C.3       1 564450      0.0000 
     11 C18        45.0020   14.7270   80.2690 C.3       1 564450      0.0000 
     12 C19        44.8770   15.3370   81.6410 C.3       1 564450      0.0000 
     13 C20        43.5400   14.9400   82.3100 C.ar      1 564450      0.0000 
     14 C23        42.2110   13.2960   79.5200 C.3       1 564450      0.0000 
     15 C24        43.1640   11.5340   81.0310 C.3       1 564450      0.0000 
     16 C25        44.8570   16.8250   81.3310 C.3       1 564450      0.0000 
     17 C26        46.0300   15.0210   82.6060 C.3       1 564450      0.0000 
     18 O1         34.1880   18.1160   89.4160 O.co2     1 564450      0.0000 
     19 O2         34.3400   19.4520   87.6620 O.co2     1 564450      0.0000 
     20 C6         38.2000   14.6500   85.9490 C.ar      1 564450      0.0000 
     21 C7         39.0090   14.9880   84.8700 C.ar      1 564450      0.0000 
     22 C8         38.8870   16.3130   84.3900 C.ar      1 564450      0.0000 
     23 C9         38.0310   17.2340   84.9560 C.ar      1 564450      0.0000 
     24 C13        41.1550   14.3290   83.5980 C.ar      1 564450      0.0000 
     25 C14        41.5880   13.5660   82.4990 C.ar      1 564450      0.0000 
     26 C21        43.1150   15.6960   83.4000 C.ar      1 564450      0.0000 
     27 C22        41.9660   15.3780   84.0030 C.ar      1 564450      0.0000 
     28 C12        39.9170   13.9910   84.2450 C.2       1 564450      0.0000 
     29 O3         39.5140   12.7970   84.3100 O.2       1 564450      0.0000 
     30 H          35.0373   15.8596   89.0344 H         1 564450      0.0000 
     31 H          36.5869   14.2503   88.0442 H         1 564450      0.0000 
     32 H          36.3088   18.7577   86.2508 H         1 564450      0.0000 
     33 H          44.7266   12.9250   79.1681 H         1 564450      0.0000 
     34 H          45.3083   12.6945   80.8259 H         1 564450      0.0000 
     35 H          44.3859   15.3196   79.5614 H         1 564450      0.0000 
     36 H          46.0518   14.8386   79.9270 H         1 564450      0.0000 
     37 H          38.2380   13.6819   86.3338 H         1 564450      0.0000 
     38 H          39.4761   16.5908   83.5724 H         1 564450      0.0000 
     39 H          37.9683   18.1899   84.5829 H         1 564450      0.0000 
     40 H          41.0078   12.7752   82.1766 H         1 564450      0.0000 
     41 H          43.6979   16.4852   83.7172 H         1 564450      0.0000 
     42 H          41.6384   15.9462   84.8386 H         1 564450      0.0000 
     43 H          42.2321   14.2593   79.2526 H         1 564450      0.0000 
     44 H          42.4214   12.7601   78.7023 H         1 564450      0.0000 
     45 H          41.2678   13.0832   79.7752 H         1 564450      0.0000 
     46 H          43.4315   10.9535   80.2620 H         1 564450      0.0000 
     47 H          43.7880   11.3279   81.7848 H         1 564450      0.0000 
     48 H          42.2519   11.2401   81.3168 H         1 564450      0.0000 
     49 H          45.7075   17.1260   80.8997 H         1 564450      0.0000 
     50 H          44.1119   17.0647   80.7086 H         1 564450      0.0000 
     51 H          44.7369   17.3750   82.1575 H         1 564450      0.0000 
     52 H          46.9077   15.3481   82.2558 H         1 564450      0.0000 
     53 H          45.8937   15.4479   83.5000 H         1 564450      0.0000 
     54 H          46.1248   14.0378   82.7621 H         1 564450      0.0000 
@<TRIPOS>BOND
     1    2    1 1    
     2   18    1 ar   
     3   19    1 ar   
     4    3    2 ar   
     5    7    2 ar   
     6    4    3 ar   
     7   30    3 1    
     8    5    4 ar   
     9   31    4 1    
    10    6    5 ar   
    11   20    5 ar   
    12    7    6 ar   
    13   23    6 ar   
    14   32    7 1    
    15    9    8 1    
    16   13    8 ar   
    17   25    8 ar   
    18   10    9 1    
    19   14    9 1    
    20   15    9 1    
    21   11   10 1    
    22   33   10 1    
    23   34   10 1    
    24   12   11 1    
    25   35   11 1    
    26   36   11 1    
    27   13   12 1    
    28   16   12 1    
    29   17   12 1    
    30   26   13 ar   
    31   43   14 1    
    32   44   14 1    
    33   45   14 1    
    34   46   15 1    
    35   47   15 1    
    36   48   15 1    
    37   49   16 1    
    38   50   16 1    
    39   51   16 1    
    40   52   17 1    
    41   53   17 1    
    42   54   17 1    
    43   21   20 ar   
    44   37   20 1    
    45   22   21 ar   
    46   28   21 1    
    47   23   22 ar   
    48   38   22 1    
    49   39   23 1    
    50   25   24 ar   
    51   27   24 ar   
    52   28   24 1    
    53   40   25 1    
    54   27   26 ar   
    55   41   26 1    
    56   42   27 1    
    57   29   28 2    
@<TRIPOS>SUBSTRUCTURE
     1 564450      1 GROUP   
@<TRIPOS>SET

