#    Name: 3erk_SB4_1_INTS_M
#    Modification time : Tue Mar 25 02:24:04 2014

@<TRIPOS>MOLECULE
3erk_SB4_1_INTS_M
   56     0    12     0     0
SMALL
NO_CHARGES


@<TRIPOS>ATOM
      1 CA        -13.9770   14.5775   47.5465 C.3       4 GLC5        0.0000 
      2 CA        -13.2530   15.1750   45.8760 C.3      12 GLL5        0.0000 
      3 CA        -14.7010   13.9800   49.2170 C.3       8 GLP5        0.0000 
      4 OD1       -13.6500   16.4435   47.3665 O.co2     3 ASC3        0.0000 
      5 OD1       -13.0720   16.6510   46.1480 O.co2    11 ASL3        0.0000 
      6 OD1       -14.2280   16.2360   48.5850 O.co2     7 ASP3        0.0000 
      7 CA        -15.3415   14.9295   37.9535 C.3       4 GLC5        0.0000 
      8 CA        -14.5360   13.2100   37.9750 C.3      12 GLL5        0.0000 
      9 CA        -16.1470   16.6490   37.9320 C.3       8 GLP5        0.0000 
     10 CA        -15.8620   13.0290   35.4790 C.3       4 GLC5        0.0000 
     11 CA        -14.5580   12.3140   36.8780 C.3      12 GLL5        0.0000 
     12 CA        -17.1660   13.7440   34.0800 C.3       8 GLP5        0.0000 
     13 CA        -15.2230   10.3710   37.3355 C.3       4 GLC5        0.0000 
     14 CA        -15.8880    8.4280   37.7930 C.3       8 GLP5        0.0000 
     15 CA        -11.4435   14.2765   37.2385 C.3       4 GLC5        0.0000 
     16 CA        -12.1350   12.7950   38.2530 C.3      12 GLL5        0.0000 
     17 CA        -10.7520   15.7580   36.2240 C.3       8 GLP5        0.0000 
     18 CA        -15.0035   10.0405   34.3650 C.3       4 GLC5        0.0000 
     19 CA        -13.3820   10.8070   35.4380 C.3      12 GLL5        0.0000 
     20 CA        -16.6250    9.2740   33.2920 C.3       8 GLP5        0.0000 
     21 CA        -16.3480   15.5150   39.8535 C.3       4 GLC5        0.0000 
     22 CA        -16.5490   14.3810   41.7750 C.3      12 GLL5        0.0000 
     23 CA        -17.5180   12.1245   39.8295 C.3       4 GLC5        0.0000 
     24 CA        -16.5450   11.6890   41.3090 C.3      12 GLL5        0.0000 
     25 CA        -18.4910   12.5600   38.3500 C.3       8 GLP5        0.0000 
     26 CA        -17.6165   10.9065   43.0265 C.3       4 GLC5        0.0000 
     27 CA        -18.6880   10.1240   44.7440 C.3       8 GLP5        0.0000 
     28 CA        -15.4950   10.5950   42.6880 C.3       4 GLC5        0.0000 
     29 CA        -14.4450    9.5010   44.0670 C.3       8 GLP5        0.0000 
     30 N         -18.9620   11.4585   42.3360 N.am      2 SEC2        0.0000 
     31 N         -17.6910   12.2340   41.7400 N.am     10 SEL2        0.0000 
     32 N         -20.2330   10.6830   42.9320 N.am      6 SEP2        0.0000 
     33 CA        -19.7650   13.3780   41.5260 C.3       4 GLC5        0.0000 
     34 CA        -17.7110   13.5640   41.9770 C.3      12 GLL5        0.0000 
     35 CA        -21.8190   13.1920   41.0750 C.3       8 GLP5        0.0000 
     36 O         -17.7085    9.7680   40.6440 O.2       1 ALC1        0.0000 
     37 O         -16.5420   10.3960   41.0790 O.2       9 ALL1        0.0000 
     38 O         -18.8750    9.1400   40.2090 O.2       5 ALP1        0.0000 
     39 CA        -15.1280   15.5315   39.4945 C.3       4 GLC5        0.0000 
     40 CA        -14.1090   14.4140   41.0570 C.3      12 GLL5        0.0000 
     41 CA        -13.9123   13.3240   45.2115 C.3       4 GLC5        0.0000 
     42 CA        -12.9880   14.7970   44.3980 C.3      12 GLL5        0.0000 
     43 CA        -14.7040   11.6620   45.2860 C.3       8 GLP5        0.0000 
     44 CA        -16.5190   12.6610   37.8882 C.3       4 GLC5        0.0000 
     45 CA        -12.7792   10.0920   34.6983 C.3       4 GLC5        0.0000 
     46 CA        -13.3690   11.6650   36.4790 C.3      12 GLL5        0.0000 
     47 CA        -12.1830    8.9480   33.4380 C.3       8 GLP5        0.0000 
     48 CA        -13.5422   15.6278   38.4648 C.3       4 GLC5        0.0000 
     49 CA        -13.3220   13.4750   38.6950 C.3      12 GLL5        0.0000 
     50 CA        -13.7930   17.3350   37.6690 C.3       8 GLP5        0.0000 
     51 CA        -13.3092   13.9733   36.4894 C.3       4 GLC5        0.0000 
     52 CA        -12.6840   14.8280   34.9180 C.3       8 GLP5        0.0000 
     53 CA        -12.8790   13.0619   35.5232 C.3       4 GLC5        0.0000 
     54 CA        -13.7685    9.6919   36.7702 C.3       4 GLC5        0.0000 
     55 CA        -14.4630    8.0880   37.4120 C.3       8 GLP5        0.0000 
     56 CA        -17.6609   13.1803   40.0544 C.3       4 GLC5        0.0000 
@<TRIPOS>BOND
@<TRIPOS>SUBSTRUCTURE
     1 ALC1       36 GROUP        1 X    ALC  0     ROOT ALC X 1
     2 SEC2       30 GROUP        1 X    SEC  0     **** SEC X 2
     3 ASC3        4 GROUP        1 X    ASC  0     **** ASC X 3
     4 GLC5        1 GROUP        1 X    GLC  0     **** GLC X 6
     5 ALP1       38 GROUP        1 Y    ALP  0     ROOT ALP Y 8
     6 SEP2       32 GROUP        1 Y    SEP  0     **** SEP Y 9
     7 ASP3        6 GROUP        1 Y    ASP  0     **** ASP Y 10
     8 GLP5        3 GROUP        1 Y    GLP  0     **** GLP Y 13
     9 ALL1       37 GROUP        1 Z    ALL  0     ROOT ALL Z 15
    10 SEL2       31 GROUP        1 Z    SEL  0     **** SEL Z 16
    11 ASL3        5 GROUP        1 Z    ASL  0     **** ASL Z 17
    12 GLL5        2 GROUP        1 Z    GLL  0     **** GLL Z 20
@<TRIPOS>SET

