#    Name: 3erk_SB4_1_ligand
#    Modification time : Tue Mar 25 02:24:04 2014

@<TRIPOS>MOLECULE
3erk_SB4_1_ligand
   43    46     1     0     0
SMALL
NO_CHARGES


@<TRIPOS>ATOM
      1 CA1       -12.9880   14.7970   44.3980 C.3       1 SB4800      0.0000 
      2 CA2       -13.2530   15.1750   45.8760 C.3       1 SB4800      0.0000 
      3 NA3       -13.0720   16.6510   46.1480 N.4       1 SB4800      0.0000 
      4 CA4       -13.7500   17.6150   45.1990 C.3       1 SB4800      0.0000 
      5 CA5       -13.5720   17.2100   43.7000 C.3       1 SB4800      0.0000 
      6 CA6       -13.8090   15.6920   43.4140 C.3       1 SB4800      0.0000 
      7 CB1       -14.5360   13.2100   37.9750 C.ar      1 SB4800      0.0000 
      8 CB2       -14.5580   12.3140   36.8780 C.ar      1 SB4800      0.0000 
      9 CB3       -13.3690   11.6650   36.4790 C.ar      1 SB4800      0.0000 
     10 CB4       -12.1630   11.9040   37.1590 C.ar      1 SB4800      0.0000 
     11 CB5       -12.1350   12.7950   38.2530 C.ar      1 SB4800      0.0000 
     12 CB6       -13.3220   13.4750   38.6950 C.ar      1 SB4800      0.0000 
     13 FB7       -13.3820   10.8070   35.4380 F         1 SB4800      0.0000 
     14 CC1       -16.5490   14.3810   41.7750 C.ar      1 SB4800      0.0000 
     15 CC2       -15.3520   13.6930   41.3060 C.ar      1 SB4800      0.0000 
     16 NC3       -15.4020   12.3420   41.0870 N.ar      1 SB4800      0.0000 
     17 CC4       -16.5450   11.6890   41.3090 C.ar      1 SB4800      0.0000 
     18 NC5       -17.6910   12.2340   41.7400 N.ar      1 SB4800      0.0000 
     19 CC6       -17.7110   13.5640   41.9770 C.ar      1 SB4800      0.0000 
     20 NC7       -16.5420   10.3960   41.0790 N.pl3     1 SB4800      0.0000 
     21 ND1       -13.4740   15.2840   42.0050 N.pl3     1 SB4800      0.0000 
     22 CD2       -12.3750   15.6630   41.2650 C.2       1 SB4800      0.0000 
     23 ND3       -12.1510   15.2100   40.0160 N.2       1 SB4800      0.0000 
     24 CD4       -13.2610   14.3660   39.8260 C.2       1 SB4800      0.0000 
     25 CD5       -14.1090   14.4140   41.0570 C.2       1 SB4800      0.0000 
     26 H         -13.2667   13.7587   44.2384 H         1 SB4800      0.0000 
     27 H         -11.9304   14.9211   44.1807 H         1 SB4800      0.0000 
     28 H         -12.5686   14.5949   46.5080 H         1 SB4800      0.0000 
     29 H         -14.2773   14.8740   46.1303 H         1 SB4800      0.0000 
     30 H         -13.3372   18.6205   45.3291 H         1 SB4800      0.0000 
     31 H         -14.8227   17.6580   45.4128 H         1 SB4800      0.0000 
     32 H         -12.5554   17.4714   43.3849 H         1 SB4800      0.0000 
     33 H         -14.2732   17.7944   43.0936 H         1 SB4800      0.0000 
     34 H         -14.8637   15.4753   43.6041 H         1 SB4800      0.0000 
     35 H         -15.3979   13.6820   38.2668 H         1 SB4800      0.0000 
     36 H         -15.4294   12.1398   36.3800 H         1 SB4800      0.0000 
     37 H         -11.3046   11.4340   36.8635 H         1 SB4800      0.0000 
     38 H         -11.2540   12.9689   38.7512 H         1 SB4800      0.0000 
     39 H         -16.5485   15.3493   41.9400 H         1 SB4800      0.0000 
     40 H         -18.5709   14.0405   42.3143 H         1 SB4800      0.0000 
     41 H         -17.2123   10.0657   40.4144 H         1 SB4800      0.0000 
     42 H         -15.8697    9.8599   41.5894 H         1 SB4800      0.0000 
     43 H         -11.6901   16.3344   41.7050 H         1 SB4800      0.0000 
@<TRIPOS>BOND
     1    2    1 1    
     2    6    1 1    
     3   26    1 1    
     4   27    1 1    
     5    3    2 1    
     6   28    2 1    
     7   29    2 1    
     8    4    3 1    
     9    5    4 1    
    10   30    4 1    
    11   31    4 1    
    12    6    5 1    
    13   32    5 1    
    14   33    5 1    
    15   21    6 1    
    16   34    6 1    
    17    8    7 ar   
    18   12    7 ar   
    19   35    7 1    
    20    9    8 ar   
    21   36    8 1    
    22   10    9 ar   
    23   13    9 1    
    24   11   10 ar   
    25   37   10 1    
    26   12   11 ar   
    27   38   11 1    
    28   24   12 1    
    29   15   14 ar   
    30   19   14 ar   
    31   39   14 1    
    32   16   15 ar   
    33   25   15 1    
    34   17   16 ar   
    35   18   17 ar   
    36   20   17 1    
    37   19   18 ar   
    38   40   19 1    
    39   41   20 1    
    40   42   20 1    
    41   22   21 1    
    42   25   21 1    
    43   23   22 2    
    44   43   22 1    
    45   24   23 1    
    46   25   24 2    
@<TRIPOS>SUBSTRUCTURE
     1 SB4800      1 GROUP   
@<TRIPOS>SET

