#    Name: 1p5e_TBS_2_INTS_M
#    Modification time : Mon Mar 24 21:08:13 2014

@<TRIPOS>MOLECULE
1p5e_TBS_2_INTS_M
   37     0     3     0     0
SMALL
NO_CHARGES


@<TRIPOS>ATOM
      1 CA         -5.9040  -19.2680  105.1205 C.3       1 GLC5        0.0000 
      2 CA         -3.8830  -19.8180  105.6620 C.3       3 GLL5        0.0000 
      3 CA         -7.9250  -18.7180  104.5790 C.3       2 GLP5        0.0000 
      4 CA         -6.1315  -18.7460  103.5210 C.3       1 GLC5        0.0000 
      5 CA         -4.3380  -18.7740  102.4630 C.3       3 GLL5        0.0000 
      6 CA         -6.1495  -19.5980  101.6895 C.3       1 GLC5        0.0000 
      7 CA         -7.9610  -20.4220  100.9160 C.3       2 GLP5        0.0000 
      8 CA         -4.0365  -18.9845  100.4855 C.3       1 GLC5        0.0000 
      9 CA         -3.7350  -19.1950   98.5080 C.3       2 GLP5        0.0000 
     10 CA         -2.6310  -17.6635  102.3890 C.3       1 GLC5        0.0000 
     11 CA         -0.9240  -16.5530  102.3150 C.3       2 GLP5        0.0000 
     12 CA         -6.1150  -15.4125  102.3050 C.3       1 GLC5        0.0000 
     13 CA         -4.3810  -15.5870  101.8220 C.3       3 GLL5        0.0000 
     14 CA         -7.8490  -15.2380  102.7880 C.3       2 GLP5        0.0000 
     15 CA         -3.0180  -14.1520  101.0895 C.3       1 GLC5        0.0000 
     16 CA         -1.6550  -12.7170  100.3570 C.3       2 GLP5        0.0000 
     17 CA         -5.0805  -13.6685  101.5960 C.3       1 GLC5        0.0000 
     18 CA         -5.7800  -11.7500  101.3700 C.3       2 GLP5        0.0000 
     19 CA         -5.5580  -16.2300  100.1325 C.3       1 GLC5        0.0000 
     20 CA         -6.7350  -16.8730   98.4430 C.3       2 GLP5        0.0000 
     21 CA         -2.6525  -16.0700  102.0685 C.3       1 GLC5        0.0000 
     22 CA         -5.9450  -14.3510  103.4935 C.3       1 GLC5        0.0000 
     23 CA         -4.0410  -13.4640  104.1990 C.3       3 GLL5        0.0000 
     24 CA         -4.7595  -12.0425  103.8935 C.3       1 GLC5        0.0000 
     25 CA         -5.4780  -10.6210  103.5880 C.3       2 GLP5        0.0000 
     26 CA         -5.9780  -18.2465  104.5627 C.3       1 GLC5        0.0000 
     27 CA         -4.1210  -17.5570  103.8900 C.3       3 GLL5        0.0000 
     28 CA         -5.9608  -15.4925  103.4502 C.3       1 GLC5        0.0000 
     29 CA         -4.1490  -16.2050  103.6020 C.3       3 GLL5        0.0000 
     30 CA         -2.4948  -16.3190  103.2497 C.3       1 GLC5        0.0000 
     31 CA         -3.9960  -15.2890  104.6230 C.3       3 GLL5        0.0000 
     32 CA         -1.9960  -18.6678  104.5922 C.3       1 GLC5        0.0000 
     33 CA         -3.9410  -17.9930  105.2030 C.3       3 GLL5        0.0000 
     34 CA         -0.0800  -18.4300  103.7520 C.3       2 GLP5        0.0000 
     35 CA         -5.6139  -15.8484  106.3315 C.3       1 GLC5        0.0000 
     36 CA         -3.7880  -17.0950  106.2380 C.3       3 GLL5        0.0000 
     37 CA         -7.3810  -15.4070  106.9040 C.3       2 GLP5        0.0000 
@<TRIPOS>BOND
@<TRIPOS>SUBSTRUCTURE
     1 GLC5        1 GROUP        1 X    GLC  0     ROOT GLC X 6
     2 GLP5        3 GROUP        1 Y    GLP  0     ROOT GLP Y 13
     3 GLL5        2 GROUP        1 Z    GLL  0     ROOT GLL Z 20
@<TRIPOS>SET

