#    Name: 1p5e_TBS_2_ligand
#    Modification time : Mon Mar 24 21:08:13 2014

@<TRIPOS>MOLECULE
1p5e_TBS_2_ligand
   14    15     1     0     0
SMALL
NO_CHARGES


@<TRIPOS>ATOM
      1 C1         -4.1210  -17.5570  103.8900 C.ar      1 TBS302      0.0000 
      2 C2         -4.1490  -16.2050  103.6020 C.ar      1 TBS302      0.0000 
      3 C3         -3.9960  -15.2890  104.6230 C.ar      1 TBS302      0.0000 
      4 C4         -3.9410  -17.9930  105.2030 C.ar      1 TBS302      0.0000 
      5 N5         -3.6010  -17.2940  107.5930 N.pl3     1 TBS302      0.0000 
      6 C6         -3.7880  -17.0950  106.2380 C.ar      1 TBS302      0.0000 
      7 C7         -3.8150  -15.6800  105.9370 C.ar      1 TBS302      0.0000 
      8 N8         -3.6480  -14.9500  107.1020 N.2       1 TBS302      0.0000 
      9 N9         -3.5170  -15.9610  108.1060 N.2       1 TBS302      0.0000 
     10 BR10       -3.8830  -19.8180  105.6620 Br        1 TBS302      0.0000 
     11 BR11       -4.3380  -18.7740  102.4630 Br        1 TBS302      0.0000 
     12 BR12       -4.3810  -15.5870  101.8220 Br        1 TBS302      0.0000 
     13 BR13       -4.0410  -13.4640  104.1990 Br        1 TBS302      0.0000 
     14 H          -3.5419  -18.0656  108.0690 H         1 TBS302      0.0000 
@<TRIPOS>BOND
     1    2    1 ar   
     2    4    1 ar   
     3   11    1 1    
     4    3    2 ar   
     5   12    2 1    
     6    7    3 ar   
     7   13    3 1    
     8    6    4 ar   
     9   10    4 1    
    10    6    5 1    
    11    9    5 1    
    12   14    5 1    
    13    7    6 ar   
    14    8    7 1    
    15    9    8 2    
@<TRIPOS>SUBSTRUCTURE
     1 TBS302      1 GROUP   
@<TRIPOS>SET

