#    Name: 1q6n_P90_2_INTS_M
#    Modification time : Mon Mar 24 23:09:07 2014

@<TRIPOS>MOLECULE
1q6n_P90_2_INTS_M
  104     0     9     0     0
SMALL
NO_CHARGES


@<TRIPOS>ATOM
      1 CA         24.5270   26.4125   16.8505 C.3       3 GLC5        0.0000 
      2 CA         23.9310   28.0550   17.1510 C.3       9 GLL5        0.0000 
      3 CA         25.1230   24.7700   16.5500 C.3       6 GLP5        0.0000 
      4 CA         22.6115   30.0835   13.8545 C.3       3 GLC5        0.0000 
      5 CA         23.9050   29.8790   15.3370 C.3       9 GLL5        0.0000 
      6 CA         21.3180   30.2880   12.3720 C.3       6 GLP5        0.0000 
      7 CA         23.4750   30.7160   12.9015 C.3       3 GLC5        0.0000 
      8 CA         24.5410   30.8200   14.5100 C.3       9 GLL5        0.0000 
      9 CA         22.4090   30.6120   11.2930 C.3       6 GLP5        0.0000 
     10 CA         23.5750   32.4365   13.8840 C.3       3 GLC5        0.0000 
     11 CA         22.6090   34.0530   13.2580 C.3       6 GLP5        0.0000 
     12 CA         26.0355   32.5965   15.3795 C.3       3 GLC5        0.0000 
     13 CA         26.6280   31.9890   13.7120 C.3       9 GLL5        0.0000 
     14 CA         25.4430   33.2040   17.0470 C.3       6 GLP5        0.0000 
     15 CA         29.3480   33.0705   15.2495 C.3       3 GLC5        0.0000 
     16 CA         27.7410   32.4580   14.3490 C.3       9 GLL5        0.0000 
     17 CA         30.9550   33.6830   16.1500 C.3       6 GLP5        0.0000 
     18 CA         27.2330   32.8995   15.9565 C.3       3 GLC5        0.0000 
     19 CA         26.7250   33.3410   17.5640 C.3       6 GLP5        0.0000 
     20 CA         25.2835   33.6560   15.0130 C.3       3 GLC5        0.0000 
     21 CA         25.7440   33.0210   13.5810 C.3       9 GLL5        0.0000 
     22 CA         24.8230   34.2910   16.4450 C.3       6 GLP5        0.0000 
     23 CA         25.2190   33.4725   11.8510 C.3       3 GLC5        0.0000 
     24 CA         24.6940   33.9240   10.1210 C.3       6 GLP5        0.0000 
     25 CA         24.1765   33.5370   13.4195 C.3       3 GLC5        0.0000 
     26 N          25.0800   30.3290   10.1545 N.am      1 SEC2        0.0000 
     27 N          25.8890   30.8850   11.3860 N.am      7 SEL2        0.0000 
     28 N          24.2710   29.7730    8.9230 N.am      4 SEP2        0.0000 
     29 N          25.1370   31.7025   10.6395 N.am      1 SEC2        0.0000 
     30 N          24.3850   32.5200    9.8930 N.am      4 SEP2        0.0000 
     31 NZ         29.5265   30.8615   12.4655 N.4       2 LYC4        0.0000 
     32 NZ         28.1090   30.3090   12.1860 N.4       8 LYL4        0.0000 
     33 NZ         31.3160   32.4900   12.0420 N.4       5 LYP4        0.0000 
     34 N          29.0390   29.3715   11.5250 N.am      1 SEC2        0.0000 
     35 N          28.1090   30.3090   12.1860 N.am      7 SEL2        0.0000 
     36 N          29.9690   28.4340   10.8640 N.am      4 SEP2        0.0000 
     37 N          27.7890   28.9155   12.0480 N.am      1 SEC2        0.0000 
     38 N          27.4690   27.5220   11.9100 N.am      4 SEP2        0.0000 
     39 N          29.5265   30.8615   12.4655 N.am      1 SEC2        0.0000 
     40 N          30.9440   31.4140   12.7450 N.am      4 SEP2        0.0000 
     41 NZ         29.0905   32.8280   11.2635 N.4       2 LYC4        0.0000 
     42 NZ         27.7160   32.5150   11.2750 N.4       8 LYL4        0.0000 
     43 N          27.2825   33.3110   10.1735 N.am      1 SEC2        0.0000 
     44 N          27.7160   32.5150   11.2750 N.am      7 SEL2        0.0000 
     45 N          26.8490   34.1070    9.0720 N.am      4 SEP2        0.0000 
     46 N          29.0905   32.8280   11.2635 N.am      1 SEC2        0.0000 
     47 N          30.4650   33.1410   11.2520 N.am      4 SEP2        0.0000 
     48 N          20.6315   24.5810   18.7540 N.am      1 SEC2        0.0000 
     49 N          21.7310   25.4260   19.4300 N.am      7 SEL2        0.0000 
     50 N          19.5320   23.7360   18.0780 N.am      4 SEP2        0.0000 
     51 CA         19.9870   25.8085   19.5735 C.3       3 GLC5        0.0000 
     52 CA         21.7190   25.8290   20.7110 C.3       9 GLL5        0.0000 
     53 CA         18.2550   25.7880   18.4360 C.3       6 GLP5        0.0000 
     54 CA         25.0395   32.5205   20.2375 C.3       3 GLC5        0.0000 
     55 CA         25.1510   30.7040   19.6320 C.3       9 GLL5        0.0000 
     56 CA         24.9280   34.3370   20.8430 C.3       6 GLP5        0.0000 
     57 CA         24.7470   30.7855   21.6550 C.3       3 GLC5        0.0000 
     58 CA         24.3430   30.8670   23.6780 C.3       6 GLP5        0.0000 
     59 CA         26.2930   32.5940   20.9195 C.3       3 GLC5        0.0000 
     60 CA         27.6580   30.8510   20.9960 C.3       9 GLL5        0.0000 
     61 CA         28.6555   31.5965   23.2765 C.3       3 GLC5        0.0000 
     62 CA         28.7700   30.1650   21.5900 C.3       9 GLL5        0.0000 
     63 CA         28.5410   33.0280   24.9630 C.3       6 GLP5        0.0000 
     64 CA         21.3420   28.2230   15.9820 C.3       3 GLC5        0.0000 
     65 CA         21.2820   29.4750   17.5190 C.3       9 GLL5        0.0000 
     66 CA         21.4020   26.9710   14.4450 C.3       6 GLP5        0.0000 
     67 CA         17.9050   31.5400   12.5665 C.3       3 GLC5        0.0000 
     68 CA         17.8150   30.9530   14.4320 C.3       9 GLL5        0.0000 
     69 CA         17.9950   32.1270   10.7010 C.3       6 GLP5        0.0000 
     70 CA         24.7542   28.1855   14.7750 C.3       3 GLC5        0.0000 
     71 CA         25.2080   27.8110   12.8550 C.3       6 GLP5        0.0000 
     72 CA         22.7524   28.0953   15.2305 C.3       3 GLC5        0.0000 
     73 CA         24.7155   29.0802   13.8893 C.3       3 GLC5        0.0000 
     74 CA         25.8237   28.7443   14.3598 C.3       3 GLC5        0.0000 
     75 CA         26.1090   29.2060   16.2800 C.3       9 GLL5        0.0000 
     76 CA         25.7590   29.6435   13.4970 C.3       3 GLC5        0.0000 
     77 CA         25.9920   30.9630   14.5660 C.3       9 GLL5        0.0000 
     78 CA         20.8210   27.9602   20.7755 C.3       3 GLC5        0.0000 
     79 CA         22.3510   27.0820   20.5970 C.3       9 GLL5        0.0000 
     80 CA         19.6070   29.4650   20.8970 C.3       6 GLP5        0.0000 
     81 CA         20.8685   23.6453   20.7977 C.3       3 GLC5        0.0000 
     82 CA         20.2400   21.7100   20.2610 C.3       6 GLP5        0.0000 
     83 CA         23.3458   29.2692   23.0483 C.3       3 GLC5        0.0000 
     84 CA         22.1260   27.4260   23.0520 C.3       9 GLL5        0.0000 
     85 CA         20.7591   28.1834   21.8391 C.3       3 GLC5        0.0000 
     86 CA         22.5710   27.9170   21.7850 C.3       9 GLL5        0.0000 
     87 CA         20.9360   27.4265   24.8060 C.3       3 GLC5        0.0000 
     88 CA         20.0720   28.0740   26.5140 C.3       6 GLP5        0.0000 
     89 CA         26.1122   29.7470   22.2275 C.3       3 GLC5        0.0000 
     90 CA         26.6350   28.6460   20.4130 C.3       9 GLL5        0.0000 
     91 CA         25.6060   30.1140   24.0400 C.3       6 GLP5        0.0000 
     92 CA         26.9100   30.3110   22.6665 C.3       3 GLC5        0.0000 
     93 CA         26.9398   29.2302   22.6705 C.3       3 GLC5        0.0000 
     94 CA         28.8060   28.7220   21.5940 C.3       9 GLL5        0.0000 
     95 CA         20.3636   29.7344   19.2541 C.3       3 GLC5        0.0000 
     96 CA         22.4050   29.7800   18.4900 C.3       9 GLL5        0.0000 
     97 CA         18.0910   27.2982   17.1523 C.3       3 GLC5        0.0000 
     98 CA         18.4790   28.9060   16.3180 C.3       9 GLL5        0.0000 
     99 CA         19.8814   30.5405   13.7431 C.3       3 GLC5        0.0000 
    100 CA         19.2430   30.1260   16.2670 C.3       9 GLL5        0.0000 
    101 CA         19.7600   28.0422   15.1504 C.3       3 GLC5        0.0000 
    102 CA         16.8087   27.9390   13.6077 C.3       3 GLC5        0.0000 
    103 CA         17.3750   28.7110   15.4190 C.3       9 GLL5        0.0000 
    104 CA         16.4100   26.6530   12.2700 C.3       6 GLP5        0.0000 
@<TRIPOS>BOND
@<TRIPOS>SUBSTRUCTURE
     1 SEC2       26 GROUP        1 X    SEC  0     ROOT SEC X 2
     2 LYC4       31 GROUP        1 X    LYC  0     **** LYC X 4
     3 GLC5        1 GROUP        1 X    GLC  0     **** GLC X 6
     4 SEP2       28 GROUP        1 Y    SEP  0     ROOT SEP Y 9
     5 LYP4       33 GROUP        1 Y    LYP  0     **** LYP Y 11
     6 GLP5        3 GROUP        1 Y    GLP  0     **** GLP Y 13
     7 SEL2       27 GROUP        1 Z    SEL  0     ROOT SEL Z 16
     8 LYL4       32 GROUP        1 Z    LYL  0     **** LYL Z 18
     9 GLL5        2 GROUP        1 Z    GLL  0     **** GLL Z 20
@<TRIPOS>SET

