#    Name: 1q6n_P90_2_ligand
#    Modification time : Mon Mar 24 23:09:07 2014

@<TRIPOS>MOLECULE
1q6n_P90_2_ligand
   65    70     1     0     0
SMALL
NO_CHARGES


@<TRIPOS>ATOM
      1 C1         23.3910   28.5450   18.6250 C.3       1 P901301     0.0000 
      2 C32        23.9310   28.0550   17.1510 C.3       1 P901301     0.0000 
      3 C33        24.6700   29.0650   16.2390 C.ar      1 P901301     0.0000 
      4 C4A        23.9050   29.8790   15.3370 C.ar      1 P901301     0.0000 
      5 C4B        26.1090   29.2060   16.2800 C.ar      1 P901301     0.0000 
      6 C5A        24.5410   30.8200   14.5100 C.ar      1 P901301     0.0000 
      7 C5B        26.7700   30.1490   15.4490 C.ar      1 P901301     0.0000 
      8 C36        25.9920   30.9630   14.5660 C.ar      1 P901301     0.0000 
      9 C37        26.6280   31.9890   13.7120 C.3       1 P901301     0.0000 
     10 F38        27.7410   32.4580   14.3490 F         1 P901301     0.0000 
     11 F39        25.7440   33.0210   13.5810 F         1 P901301     0.0000 
     12 P40        27.1410   31.3770   12.0330 P.3       1 P901301     0.0000 
     13 O41        25.8890   30.8850   11.3860 O.co2     1 P901301     0.0000 
     14 O42        28.1090   30.3090   12.1860 O.co2     1 P901301     0.0000 
     15 O43        27.7160   32.5150   11.2750 O.co2     1 P901301     0.0000 
     16 N61        22.6940   27.3590   19.2950 N.pl3     1 P901301     0.0000 
     17 N62        22.2940   26.2720   18.4870 N.2       1 P901301     0.0000 
     18 N63        21.7310   25.4260   19.4300 N.2       1 P901301     0.0000 
     19 C7A        21.7190   25.8290   20.7110 C.ar      1 P901301     0.0000 
     20 C7B        22.3510   27.0820   20.5970 C.ar      1 P901301     0.0000 
     21 C8A        21.2750   25.3320   21.9580 C.ar      1 P901301     0.0000 
     22 C8B        22.5710   27.9170   21.7850 C.ar      1 P901301     0.0000 
     23 C9A        21.4740   26.1320   23.1440 C.ar      1 P901301     0.0000 
     24 C9B        22.1260   27.4260   23.0520 C.ar      1 P901301     0.0000 
     25 C51        24.6610   28.9850   19.3370 C.2       1 P901301     0.0000 
     26 S52        25.1510   30.7040   19.6320 S.3       1 P901301     0.0000 
     27 N53        25.5450   28.1150   19.8110 N.2       1 P901301     0.0000 
     28 C54        26.6350   28.6460   20.4130 C.ar      1 P901301     0.0000 
     29 C55        26.6020   30.1140   20.4170 C.ar      1 P901301     0.0000 
     30 C56        27.6580   30.8510   20.9960 C.ar      1 P901301     0.0000 
     31 C57        28.7700   30.1650   21.5900 C.ar      1 P901301     0.0000 
     32 C58        28.8060   28.7220   21.5940 C.ar      1 P901301     0.0000 
     33 C59        27.7410   27.9710   21.0080 C.ar      1 P901301     0.0000 
     34 C12        22.4050   29.7800   18.4900 C.3       1 P901301     0.0000 
     35 C13        21.2820   29.4750   17.5190 C.2       1 P901301     0.0000 
     36 C14        20.3970   30.3800   17.2180 C.2       1 P901301     0.0000 
     37 C15        19.2430   30.1260   16.2670 C.ar      1 P901301     0.0000 
     38 C1A        18.9060   31.1400   15.3260 C.ar      1 P901301     0.0000 
     39 C1B        18.4790   28.9060   16.3180 C.ar      1 P901301     0.0000 
     40 C2A        17.8150   30.9530   14.4320 C.ar      1 P901301     0.0000 
     41 C2B        17.3750   28.7110   15.4190 C.ar      1 P901301     0.0000 
     42 C16        17.0400   29.7390   14.4720 C.ar      1 P901301     0.0000 
     43 H          23.0407   27.6513   16.6175 H         1 P901301     0.0000 
     44 H          24.5860   27.1749   17.3420 H         1 P901301     0.0000 
     45 H          22.8897   29.7627   15.3063 H         1 P901301     0.0000 
     46 H          26.6445   28.6165   16.9165 H         1 P901301     0.0000 
     47 H          24.0182   31.4056   13.8721 H         1 P901301     0.0000 
     48 H          27.7747   30.2475   15.4772 H         1 P901301     0.0000 
     49 H          20.8239   24.4326   22.0328 H         1 P901301     0.0000 
     50 H          23.0211   28.8016   21.6918 H         1 P901301     0.0000 
     51 H          21.1595   25.7927   24.0427 H         1 P901301     0.0000 
     52 H          22.2613   27.9744   23.8923 H         1 P901301     0.0000 
     53 H          27.6404   31.8680   20.9974 H         1 P901301     0.0000 
     54 H          29.5287   30.6884   22.0059 H         1 P901301     0.0000 
     55 H          29.5958   28.2436   22.0174 H         1 P901301     0.0000 
     56 H          27.7731   26.9553   21.0160 H         1 P901301     0.0000 
     57 H          22.9858   30.6284   18.1438 H         1 P901301     0.0000 
     58 H          22.0064   29.9921   19.4764 H         1 P901301     0.0000 
     59 H          21.3010   28.5133   17.1435 H         1 P901301     0.0000 
     60 H          20.4039   31.3554   17.6030 H         1 P901301     0.0000 
     61 H          19.4480   32.0021   15.2930 H         1 P901301     0.0000 
     62 H          18.7210   28.1866   16.9879 H         1 P901301     0.0000 
     63 H          17.5745   31.6758   13.7578 H         1 P901301     0.0000 
     64 H          16.8375   27.8566   15.4523 H         1 P901301     0.0000 
     65 H          16.2651   29.6124   13.8367 H         1 P901301     0.0000 
@<TRIPOS>BOND
     1    2    1 1    
     2   16    1 1    
     3   25    1 1    
     4   34    1 1    
     5    3    2 1    
     6   43    2 1    
     7   44    2 1    
     8    4    3 ar   
     9    5    3 ar   
    10    6    4 ar   
    11   45    4 1    
    12    7    5 ar   
    13   46    5 1    
    14    8    6 ar   
    15   47    6 1    
    16    8    7 ar   
    17   48    7 1    
    18    9    8 1    
    19   10    9 1    
    20   11    9 1    
    21   12    9 1    
    22   13   12 ar   
    23   14   12 ar   
    24   15   12 ar   
    25   17   16 1    
    26   20   16 1    
    27   18   17 2    
    28   19   18 1    
    29   20   19 ar   
    30   21   19 ar   
    31   22   20 ar   
    32   23   21 ar   
    33   49   21 1    
    34   24   22 ar   
    35   50   22 1    
    36   24   23 ar   
    37   51   23 1    
    38   52   24 1    
    39   26   25 1    
    40   27   25 2    
    41   29   26 1    
    42   28   27 1    
    43   29   28 ar   
    44   33   28 ar   
    45   30   29 ar   
    46   31   30 ar   
    47   53   30 1    
    48   32   31 ar   
    49   54   31 1    
    50   33   32 ar   
    51   55   32 1    
    52   56   33 1    
    53   35   34 1    
    54   57   34 1    
    55   58   34 1    
    56   36   35 2    
    57   59   35 1    
    58   37   36 1    
    59   60   36 1    
    60   38   37 ar   
    61   39   37 ar   
    62   40   38 ar   
    63   61   38 1    
    64   41   39 ar   
    65   62   39 1    
    66   42   40 ar   
    67   63   40 1    
    68   42   41 ar   
    69   64   41 1    
    70   65   42 1    
@<TRIPOS>SUBSTRUCTURE
     1 P901301     1 GROUP   
@<TRIPOS>SET

