#    Name: 1T41_1_CAVITY_N1_6.mol2
#    Modification time : Tue Mar 11 09:59:57 2014

@<TRIPOS>MOLECULE
1T41_1_CAVITY_N1_6.mol2
   99     0     4     0     0
SMALL
NO_CHARGES


@<TRIPOS>ATOM
      1 CZ        -10.8240    6.4910    9.9721 C.ar      2 PHE5        0.0000 
      2 CA        -10.6398    5.3591   10.9390 C.3       3 GLY6        0.0000 
      3 N          -7.5437   12.0360    8.8572 N.2       1 ALA2        0.0000 
      4 N          -7.3595   10.9041    9.8241 N.2       1 ALA2        0.0000 
      5 DU         -7.1753    9.7722   10.7910 H         4 CUB7        0.0000 
      6 CZ         -8.4202   11.1661    8.0058 C.ar      2 PHE5        0.0000 
      7 CZ         -8.2360   10.0342    8.9727 C.ar      2 PHE5        0.0000 
      8 CZ         -8.0519    8.9023    9.9397 C.ar      2 PHE5        0.0000 
      9 DU         -7.8677    7.7704   10.9066 H         4 CUB7        0.0000 
     10 CZ         -8.9284    8.0324    9.0883 C.ar      2 PHE5        0.0000 
     11 CZ         -8.7442    6.9005   10.0552 C.ar      2 PHE5        0.0000 
     12 CZ         -8.5600    5.7686   11.0221 C.ar      2 PHE5        0.0000 
     13 CZ         -9.6208    6.0305    9.2038 C.ar      2 PHE5        0.0000 
     14 CZ         -9.4366    4.8987   10.1707 C.ar      2 PHE5        0.0000 
     15 CA        -10.3131    4.0287    9.3193 C.3       3 GLY6        0.0000 
     16 CA        -13.3112    3.6827    4.8313 C.3       3 GLY6        0.0000 
     17 CA        -13.1270    2.5508    5.7982 C.3       3 GLY6        0.0000 
     18 CA        -14.0036    1.6808    4.9469 C.3       3 GLY6        0.0000 
     19 O         -13.8194    0.5490    5.9138 O.2       1 ALA2        0.0000 
     20 CA        -15.0643    1.9428    3.1286 C.3       3 GLY6        0.0000 
     21 N          -5.0955   10.1817   10.8742 N.2       1 ALA2        0.0000 
     22 N          -6.3405   11.5755    8.0890 N.2       1 ALA2        0.0000 
     23 N          -6.1563   10.4436    9.0559 N.2       1 ALA2        0.0000 
     24 DU         -5.9721    9.3117   10.0228 H         4 CUB7        0.0000 
     25 O          -5.7879    8.1799   10.9897 O.2       1 ALA2        0.0000 
     26 CA         -5.6037    7.0480   11.9566 C.3       3 GLY6        0.0000 
     27 CA         -7.2170   10.7056    7.2376 C.3       3 GLY6        0.0000 
     28 N          -7.0328    9.5737    8.2045 N.2       1 ALA2        0.0000 
     29 DU         -6.8486    8.4418    9.1714 H         4 CUB7        0.0000 
     30 O          -6.6645    7.3099   10.1383 O.2       1 ALA2        0.0000 
     31 CZ         -6.4803    6.1780   11.1052 C.ar      2 PHE5        0.0000 
     32 CZ         -7.9094    8.7037    7.3531 C.ar      2 PHE5        0.0000 
     33 CZ         -7.7252    7.5719    8.3200 C.ar      2 PHE5        0.0000 
     34 DU         -7.5410    6.4400    9.2869 H         4 CUB7        0.0000 
     35 CZ         -7.3568    5.3081   10.2538 C.ar      2 PHE5        0.0000 
     36 CZ         -8.4176    5.5700    8.4355 C.ar      2 PHE5        0.0000 
     37 CZ         -8.2334    4.4382    9.4024 C.ar      2 PHE5        0.0000 
     38 CZ         -9.2941    4.7001    7.5841 C.ar      2 PHE5        0.0000 
     39 CZ         -9.1099    3.5682    8.5511 C.ar      2 PHE5        0.0000 
     40 CA        -10.1707    3.8302    6.7328 C.3       3 GLY6        0.0000 
     41 CA         -9.9865    2.6983    7.6997 C.3       3 GLY6        0.0000 
     42 CZ         -9.8023    1.5664    8.6666 C.ar      2 PHE5        0.0000 
     43 CZ        -11.2314    4.0921    4.9145 C.ar      2 PHE5        0.0000 
     44 CA        -11.0472    2.9602    5.8814 C.3       3 GLY6        0.0000 
     45 CA        -10.8630    1.8283    6.8483 C.3       3 GLY6        0.0000 
     46 CZ        -12.1080    3.2222    4.0631 C.ar      2 PHE5        0.0000 
     47 CZ        -11.9238    2.0903    5.0300 C.ar      2 PHE5        0.0000 
     48 O         -11.7396    0.9584    5.9969 O.2       1 ALA2        0.0000 
     49 CZ        -12.9845    2.3522    3.2117 C.ar      2 PHE5        0.0000 
     50 CZ        -12.8003    1.2204    4.1786 C.ar      2 PHE5        0.0000 
     51 CZ        -12.6162    0.0885    5.1455 C.ar      2 PHE5        0.0000 
     52 CZ        -13.6769    0.3504    3.3272 C.ar      2 PHE5        0.0000 
     53 DU         -3.0158   10.5911   10.9573 H         4 CUB7        0.0000 
     54 CA         -2.8316    9.4592   11.9242 C.3       3 GLY6        0.0000 
     55 N          -4.0765   10.8531    9.1390 N.2       1 ALA2        0.0000 
     56 O          -3.8923    9.7212   10.1059 O.2       1 ALA2        0.0000 
     57 O          -3.7081    8.5893   11.0728 O.2       1 ALA2        0.0000 
     58 O          -4.7689    8.8513    9.2545 O.2       1 ALA2        0.0000 
     59 N          -5.8296    9.1132    7.4362 N.2       1 ALA2        0.0000 
     60 O          -5.6454    7.9813    8.4031 O.2       1 ALA2        0.0000 
     61 CA         -6.7062    8.2433    6.5848 C.3       3 GLY6        0.0000 
     62 O          -6.5220    7.1114    7.5517 O.2       1 ALA2        0.0000 
     63 O          -6.3378    5.9795    8.5187 O.2       1 ALA2        0.0000 
     64 CA         -7.5827    7.3733    5.7334 C.3       3 GLY6        0.0000 
     65 CZ         -7.3985    6.2414    6.7004 C.ar      2 PHE5        0.0000 
     66 DU         -7.2144    5.1096    7.6673 H         4 CUB7        0.0000 
     67 CZ         -7.0302    3.9777    8.6342 C.ar      2 PHE5        0.0000 
     68 CZ         -8.2751    5.3715    5.8490 C.ar      2 PHE5        0.0000 
     69 CZ         -8.0909    4.2396    6.8159 C.ar      2 PHE5        0.0000 
     70 CZ         -7.9067    3.1077    7.7828 C.ar      2 PHE5        0.0000 
     71 CZ         -9.1517    4.5016    4.9976 C.ar      2 PHE5        0.0000 
     72 O          -8.9675    3.3697    5.9645 O.2       1 ALA2        0.0000 
     73 CA         -8.7833    2.2378    6.9314 C.3       3 GLY6        0.0000 
     74 CA         -8.5991    1.1059    7.8983 C.3       3 GLY6        0.0000 
     75 CZ         -9.8440    2.4997    5.1131 C.ar      2 PHE5        0.0000 
     76 CZ         -9.6598    1.3679    6.0800 C.ar      2 PHE5        0.0000 
     77 CA         -2.6891    9.2607    9.3376 C.3       3 GLY6        0.0000 
     78 O          -3.5657    8.3908    8.4863 O.2       1 ALA2        0.0000 
     79 O          -4.4422    7.5208    7.6349 O.2       1 ALA2        0.0000 
     80 O          -5.3188    6.6509    6.7835 O.2       1 ALA2        0.0000 
     81 O          -5.1346    5.5190    7.7504 O.2       1 ALA2        0.0000 
     82 CA         -6.1953    5.7809    5.9321 C.3       3 GLY6        0.0000 
     83 CZ         -6.0111    4.6491    6.8990 C.ar      2 PHE5        0.0000 
     84 CZ         -5.8270    3.5172    7.8659 C.ar      2 PHE5        0.0000 
     85 CZ         -7.0719    4.9110    5.0807 C.ar      2 PHE5        0.0000 
     86 DU         -6.8877    3.7791    6.0476 H         4 CUB7        0.0000 
     87 CA         -6.7035    2.6472    7.0145 C.3       3 GLY6        0.0000 
     88 CA         -6.5193    1.5154    7.9814 C.3       3 GLY6        0.0000 
     89 O          -7.7642    2.9092    5.1962 O.2       1 ALA2        0.0000 
     90 CA         -7.5801    1.7773    6.1632 C.3       3 GLY6        0.0000 
     91 CA         -3.9314    5.0585    6.9821 C.3       3 GLY6        0.0000 
     92 CZ         -4.9921    5.3205    5.1638 C.ar      2 PHE5        0.0000 
     93 CZ         -4.8079    4.1886    6.1308 C.ar      2 PHE5        0.0000 
     94 CZ         -4.6237    3.0567    7.0977 C.ar      2 PHE5        0.0000 
     95 N          -5.8687    4.4505    4.3125 N.2       1 ALA2        0.0000 
     96 CZ         -5.6845    3.3186    5.2794 C.ar      2 PHE5        0.0000 
     97 CZ         -5.5003    2.1868    6.2463 C.ar      2 PHE5        0.0000 
     98 N          -6.5610    2.4487    4.4280 N.2       1 ALA2        0.0000 
     99 CZ         -3.6047    3.7281    5.3625 C.ar      2 PHE5        0.0000 
@<TRIPOS>BOND
@<TRIPOS>SUBSTRUCTURE
     1 ALA2        3 GROUP   
     2 PHE5        1 GROUP   
     3 GLY6        2 GROUP   
     4 CUB7        5 GROUP   
@<TRIPOS>SET

