#    Name: 1t41_ID5_1_INTS_M
#    Modification time : Tue Mar 25 04:19:17 2014

@<TRIPOS>MOLECULE
1t41_ID5_1_INTS_M
   83     0     6     0     0
SMALL
NO_CHARGES


@<TRIPOS>ATOM
      1 CA         -7.0400    8.5300    6.3810 C.3       2 GLC5        0.0000 
      2 CA         -6.8980    7.2260    8.0580 C.3       6 GLL5        0.0000 
      3 CA         -7.1820    9.8340    4.7040 C.3       4 GLP5        0.0000 
      4 CA        -12.9195    0.2990    2.1765 C.3       2 GLC5        0.0000 
      5 CA        -14.7360    0.5130    2.7860 C.3       6 GLL5        0.0000 
      6 CA        -11.1030    0.0850    1.5670 C.3       4 GLP5        0.0000 
      7 CA        -15.4650    1.1150    1.1955 C.3       2 GLC5        0.0000 
      8 CA        -16.1940    1.7170   -0.3950 C.3       4 GLP5        0.0000 
      9 CA        -15.7420   -0.7885    3.1390 C.3       2 GLC5        0.0000 
     10 CA        -16.7480   -2.0900    3.4920 C.3       4 GLP5        0.0000 
     11 CA        -14.6555   -0.9905    1.5910 C.3       2 GLC5        0.0000 
     12 CA        -14.5750   -2.4940    0.3960 C.3       4 GLP5        0.0000 
     13 CA         -3.4860    7.0745    7.8460 C.3       2 GLC5        0.0000 
     14 CA         -4.8370    7.9510    7.2190 C.3       6 GLL5        0.0000 
     15 CA         -2.1350    6.1980    8.4730 C.3       4 GLP5        0.0000 
     16 CA         -3.5020    7.7020    6.1175 C.3       2 GLC5        0.0000 
     17 CA         -2.1670    7.4530    5.0160 C.3       4 GLP5        0.0000 
     18 CA        -10.8675    5.5910    3.2365 C.3       2 GLC5        0.0000 
     19 CA        -12.0670    4.3770    3.0520 C.3       6 GLL5        0.0000 
     20 CA         -9.6680    6.8050    3.4210 C.3       4 GLP5        0.0000 
     21 CA        -10.7285    3.8075    2.1760 C.3       2 GLC5        0.0000 
     22 CA         -9.3900    3.2380    1.3000 C.3       4 GLP5        0.0000 
     23 CA        -13.5245    5.1520    3.0160 C.3       2 GLC5        0.0000 
     24 CA        -14.9820    5.9270    2.9800 C.3       4 GLP5        0.0000 
     25 CA        -12.1265    5.4785    4.7970 C.3       2 GLC5        0.0000 
     26 CA        -12.1860    6.5800    6.5420 C.3       4 GLP5        0.0000 
     27 CA         -9.3145    1.0445    5.5475 C.3       2 GLC5        0.0000 
     28 CA         -9.4520    1.6650    7.5510 C.3       6 GLL5        0.0000 
     29 CA         -9.1770    0.4240    3.5440 C.3       4 GLP5        0.0000 
     30 CA         -8.5005    1.4930    9.1195 C.3       2 GLC5        0.0000 
     31 CA         -7.5490    1.3210   10.6880 C.3       4 GLP5        0.0000 
     32 CA         -8.0630    0.4750    7.0945 C.3       2 GLC5        0.0000 
     33 CA         -6.6740   -0.7150    6.6380 C.3       4 GLP5        0.0000 
     34 CA        -10.4910   -0.2390    7.5970 C.3       2 GLC5        0.0000 
     35 CA        -11.5300   -2.1430    7.6430 C.3       4 GLP5        0.0000 
     36 CA        -11.1350    1.9665    8.3005 C.3       2 GLC5        0.0000 
     37 CA        -12.8180    2.2680    9.0500 C.3       4 GLP5        0.0000 
     38 CA         -3.3160    2.7865    7.8330 C.3       2 GLC5        0.0000 
     39 CA         -4.5130    2.9630    6.7540 C.3       6 GLL5        0.0000 
     40 CA         -2.1190    2.6100    8.9120 C.3       4 GLP5        0.0000 
     41 CA         -3.4640    4.5795    5.6180 C.3       2 GLC5        0.0000 
     42 CA         -2.4150    6.1960    4.4820 C.3       4 GLP5        0.0000 
     43 CA         -5.5935    1.1240    6.6960 C.3       2 GLC5        0.0000 
     44 CA         -3.6545    1.5550    6.1395 C.3       2 GLC5        0.0000 
     45 CA         -2.7960    0.1470    5.5250 C.3       4 GLP5        0.0000 
     46 CA        -12.1915   -0.7005    3.7395 C.3       2 GLC5        0.0000 
     47 CA        -13.5120   -0.5120    4.9680 C.3       6 GLL5        0.0000 
     48 CA        -10.8710   -0.8890    2.5110 C.3       4 GLP5        0.0000 
     49 CA        -12.5210   -1.3275    6.3055 C.3       2 GLC5        0.0000 
     50 CA        -13.8315   -0.1940    7.0830 C.3       2 GLC5        0.0000 
     51 CA        -14.1510    0.1240    9.1980 C.3       4 GLP5        0.0000 
     52 CA        -14.7800   -1.5800    4.7625 C.3       2 GLC5        0.0000 
     53 CA        -16.0480   -2.6480    4.5570 C.3       4 GLP5        0.0000 
     54 CA        -12.5090   -2.3560    4.2865 C.3       2 GLC5        0.0000 
     55 CA        -11.5060   -4.2000    3.6050 C.3       4 GLP5        0.0000 
     56 CA        -11.8270   -0.3745    6.3815 C.3       2 GLC5        0.0000 
     57 CA        -12.1240    1.3940    5.1200 C.3       6 GLL5        0.0000 
     58 CA        -14.6320    2.8180    1.1035 C.3       2 GLC5        0.0000 
     59 CA        -13.4430    2.4880    2.8700 C.3       6 GLL5        0.0000 
     60 CA        -15.8210    3.1480   -0.6630 C.3       4 GLP5        0.0000 
     61 N          -3.2110    3.9995    3.8575 N.am      1 SEC2        0.0000 
     62 N          -4.7720    3.6970    4.4860 N.am      5 SEL2        0.0000 
     63 N          -1.6500    4.3020    3.2290 N.am      3 SEP2        0.0000 
     64 N          -4.9820    4.0275    3.1170 N.am      1 SEC2        0.0000 
     65 N          -5.1920    4.3580    1.7480 N.am      3 SEP2        0.0000 
     66 CA        -15.4953    1.3493    4.1610 C.3       2 GLC5        0.0000 
     67 CA        -13.7730    1.2360    3.3900 C.3       6 GLL5        0.0000 
     68 CA        -16.7360    1.8240    5.2340 C.3       4 GLP5        0.0000 
     69 CA         -5.2864    7.7690    5.4787 C.3       2 GLC5        0.0000 
     70 CA         -5.3530    5.7060    7.0930 C.3       6 GLL5        0.0000 
     71 CA         -5.3920    8.3980    3.7120 C.3       4 GLP5        0.0000 
     72 CA        -12.1350    4.9753    1.7593 C.3       2 GLC5        0.0000 
     73 CA        -12.0120    6.1740    0.2370 C.3       4 GLP5        0.0000 
     74 CA        -15.0343    0.9550    4.9785 C.3       2 GLC5        0.0000 
     75 CA        -13.1530    0.6840    4.4780 C.3       6 GLL5        0.0000 
     76 CA        -13.9370    2.7112    5.2205 C.3       2 GLC5        0.0000 
     77 CA        -15.9250    3.4010    5.5760 C.3       4 GLP5        0.0000 
     78 CA        -12.2390    2.9162    6.7070 C.3       2 GLC5        0.0000 
     79 CA        -12.8660    3.6580    8.3340 C.3       4 GLP5        0.0000 
     80 CA        -12.0500    2.7610    1.3658 C.3       2 GLC5        0.0000 
     81 CA        -12.4490    3.1760    3.5110 C.3       6 GLL5        0.0000 
     82 CA        -11.1540    2.6900   -0.4590 C.3       4 GLP5        0.0000 
     83 CA        -14.4355    3.1165    4.3833 C.3       2 GLC5        0.0000 
@<TRIPOS>BOND
@<TRIPOS>SUBSTRUCTURE
     1 SEC2       61 GROUP        1 X    SEC  0     ROOT SEC X 2
     2 GLC5        1 GROUP        1 X    GLC  0     **** GLC X 6
     3 SEP2       63 GROUP        1 Y    SEP  0     ROOT SEP Y 9
     4 GLP5        3 GROUP        1 Y    GLP  0     **** GLP Y 13
     5 SEL2       62 GROUP        1 Z    SEL  0     ROOT SEL Z 16
     6 GLL5        2 GROUP        1 Z    GLL  0     **** GLL Z 20
@<TRIPOS>SET

