#    Name: 1t41_ID5_1_ligand
#    Modification time : Tue Mar 25 04:19:17 2014

@<TRIPOS>MOLECULE
1t41_ID5_1_ligand
   37    39     1     0     0
SMALL
NO_CHARGES


@<TRIPOS>ATOM
      1 C2         -5.3530    5.7060    7.0930 C.ar      1 ID5320      0.0000 
      2 C3         -7.7710    6.1610    8.2700 C.ar      1 ID5320      0.0000 
      3 C4         -6.1900    4.6230    7.3330 C.ar      1 ID5320      0.0000 
      4 C5         -5.6960    6.9520    7.4510 C.ar      1 ID5320      0.0000 
      5 C6         -6.8980    7.2260    8.0580 C.ar      1 ID5320      0.0000 
      6 C7         -7.4500    4.8540    7.8970 C.ar      1 ID5320      0.0000 
      7 F8        -14.7360    0.5130    2.7860 F         1 ID5320      0.0000 
      8 F9         -4.8370    7.9510    7.2190 F         1 ID5320      0.0000 
      9 C11        -8.4910    3.8330    8.1390 C.2       1 ID5320      0.0000 
     10 C13       -10.4410    1.8190    6.4400 C.2       1 ID5320      0.0000 
     11 F14       -12.0670    4.3770    3.0520 F         1 ID5320      0.0000 
     12 O15        -5.8740    3.3340    7.0230 O.3       1 ID5320      0.0000 
     13 O16        -9.4620    4.0590    8.8800 O.2       1 ID5320      0.0000 
     14 C18        -9.4520    1.6650    7.5510 C.3       1 ID5320      0.0000 
     15 C20        -4.5130    2.9630    6.7540 C.3       1 ID5320      0.0000 
     16 N21       -11.3520    0.9390    6.1710 N.2       1 ID5320      0.0000 
     17 S22       -10.4260    3.2610    5.4700 S.3       1 ID5320      0.0000 
     18 F23       -13.5120   -0.5120    4.9680 F         1 ID5320      0.0000 
     19 C24       -11.7740    2.6490    4.6100 C.ar      1 ID5320      0.0000 
     20 C25       -13.7730    1.2360    3.3900 C.ar      1 ID5320      0.0000 
     21 C26       -12.1240    1.3940    5.1200 C.ar      1 ID5320      0.0000 
     22 C27       -12.4490    3.1760    3.5110 C.ar      1 ID5320      0.0000 
     23 C28       -13.4430    2.4880    2.8700 C.ar      1 ID5320      0.0000 
     24 C29       -13.1530    0.6840    4.4780 C.ar      1 ID5320      0.0000 
     25 C32        -3.9850    3.3890    5.3600 C.2       1 ID5320      0.0000 
     26 O33        -4.7720    3.6970    4.4860 O.co2     1 ID5320      0.0000 
     27 O34        -2.7080    3.2440    5.1890 O.co2     1 ID5320      0.0000 
     28 N36        -8.3870    2.6700    7.4370 N.am      1 ID5320      0.0000 
     29 H          -4.4362    5.5227    6.6197 H         1 ID5320      0.0000 
     30 H          -8.6918    6.3438    8.7205 H         1 ID5320      0.0000 
     31 H          -7.1488    8.1656    8.3444 H         1 ID5320      0.0000 
     32 H          -9.0246    0.6544    7.5144 H         1 ID5320      0.0000 
     33 H          -9.9717    1.7712    8.5123 H         1 ID5320      0.0000 
     34 H          -4.3721    1.8596    6.8283 H         1 ID5320      0.0000 
     35 H          -3.8180    3.3991    7.5086 H         1 ID5320      0.0000 
     36 H         -13.9206    2.8558    2.0620 H         1 ID5320      0.0000 
     37 H          -7.6019    2.4551    6.8294 H         1 ID5320      0.0000 
@<TRIPOS>BOND
     1    3    1 ar   
     2    4    1 ar   
     3   29    1 1    
     4    5    2 ar   
     5    6    2 ar   
     6   30    2 1    
     7    6    3 ar   
     8   12    3 1    
     9    5    4 ar   
    10    8    4 1    
    11   31    5 1    
    12    9    6 1    
    13   20    7 1    
    14   13    9 2    
    15   28    9 am   
    16   14   10 1    
    17   16   10 2    
    18   17   10 1    
    19   22   11 1    
    20   15   12 1    
    21   28   14 1    
    22   32   14 1    
    23   33   14 1    
    24   25   15 1    
    25   34   15 1    
    26   35   15 1    
    27   21   16 1    
    28   19   17 1    
    29   24   18 1    
    30   21   19 ar   
    31   22   19 ar   
    32   23   20 ar   
    33   24   20 ar   
    34   24   21 ar   
    35   23   22 ar   
    36   36   23 1    
    37   26   25 ar   
    38   27   25 ar   
    39   37   28 1    
@<TRIPOS>SUBSTRUCTURE
     1 ID5320      1 GROUP   
@<TRIPOS>SET

