#    Name: 4lv9_20J_2_INTS_M
#    Modification time : Tue Mar 25 11:31:03 2014

@<TRIPOS>MOLECULE
4lv9_20J_2_INTS_M
   24     0     3     0     0
SMALL
NO_CHARGES


@<TRIPOS>ATOM
      1 CA         13.8250    6.4505   -8.2220 C.3       1 GLC5        0.0000 
      2 CA         13.0610    5.3230   -6.6210 C.3       3 GLL5        0.0000 
      3 CA         14.5890    7.5780   -9.8230 C.3       2 GLP5        0.0000 
      4 CA         13.7835    6.8675   -5.8570 C.3       1 GLC5        0.0000 
      5 CA         14.5060    8.4120   -5.0930 C.3       2 GLP5        0.0000 
      6 CA         11.6570    5.8255   -7.8105 C.3       1 GLC5        0.0000 
      7 CA         10.2530    6.3280   -9.0000 C.3       2 GLP5        0.0000 
      8 CA         15.1900    6.3485   -4.7540 C.3       1 GLC5        0.0000 
      9 CA         15.8740    4.2850   -4.4150 C.3       3 GLL5        0.0000 
     10 CA         18.0705    1.3575   -1.6445 C.3       1 GLC5        0.0000 
     11 CA         18.7270    3.0710   -1.0820 C.3       3 GLL5        0.0000 
     12 CA         17.4140   -0.3560   -2.2070 C.3       2 GLP5        0.0000 
     13 CA         18.2050    1.8920    0.5555 C.3       1 GLC5        0.0000 
     14 CA         17.6830    0.7130    2.1930 C.3       2 GLP5        0.0000 
     15 CA         20.5665    2.2125   -0.7740 C.3       1 GLC5        0.0000 
     16 CA         22.4060    1.3540   -0.4660 C.3       2 GLP5        0.0000 
     17 CA         19.8755    4.1840   -0.1745 C.3       1 GLC5        0.0000 
     18 CA         21.0240    5.2970    0.7330 C.3       2 GLP5        0.0000 
     19 CA         19.1025    4.8390   -2.2180 C.3       1 GLC5        0.0000 
     20 CA         19.4780    6.6070   -3.3540 C.3       2 GLP5        0.0000 
     21 CA         17.9965    5.3245   -3.9607 C.3       1 GLC5        0.0000 
     22 CA         17.1560    3.7990   -4.7200 C.3       3 GLL5        0.0000 
     23 CA         18.2854    5.1762   -2.9494 C.3       1 GLC5        0.0000 
     24 CA         18.0180    3.4340   -3.6960 C.3       3 GLL5        0.0000 
@<TRIPOS>BOND
@<TRIPOS>SUBSTRUCTURE
     1 GLC5        1 GROUP        1 X    GLC  0     ROOT GLC X 6
     2 GLP5        3 GROUP        1 Y    GLP  0     ROOT GLP Y 13
     3 GLL5        2 GROUP        1 Z    GLL  0     ROOT GLL Z 20
@<TRIPOS>SET

