#    Name: 4lv9_20J_2_ligand
#    Modification time : Tue Mar 25 11:31:03 2014

@<TRIPOS>MOLECULE
4lv9_20J_2_ligand
   21    22     1     0     0
SMALL
NO_CHARGES


@<TRIPOS>ATOM
      1 C1         13.0610    5.3230   -6.6210 C.3       1 20J602      0.0000 
      2 C2         13.7860    5.0070   -5.3320 C.2       1 20J602      0.0000 
      3 N3         15.0170    4.6360   -5.4150 N.2       1 20J602      0.0000 
      4 C4         15.8740    4.2850   -4.4150 C.ar      1 20J602      0.0000 
      5 C5         17.1560    3.7990   -4.7200 C.ar      1 20J602      0.0000 
      6 C6         18.0180    3.4340   -3.6960 C.ar      1 20J602      0.0000 
      7 C7         17.6310    3.5320   -2.3630 C.ar      1 20J602      0.0000 
      8 C8         16.3610    4.0080   -2.0600 C.ar      1 20J602      0.0000 
      9 C9         15.4940    4.3770   -3.0660 C.ar      1 20J602      0.0000 
     10 S10        13.8650    4.9840   -2.6840 S.o2      1 20J602      0.0000 
     11 O11        13.2060    3.9200   -2.0110 O.2       1 20J602      0.0000 
     12 O12        14.0310    6.2860   -2.1310 O.2       1 20J602      0.0000 
     13 N13        13.0710    5.1470   -4.1580 N.pl3     1 20J602      0.0000 
     14 CL1        18.7270    3.0710   -1.0820 Cl        1 20J602      0.0000 
     15 H          17.4470    3.7170   -5.6999 H         1 20J602      0.0000 
     16 H          18.9652    3.0827   -3.9256 H         1 20J602      0.0000 
     17 H          16.0690    4.0840   -1.0711 H         1 20J602      0.0000 
     18 H          12.1113    5.3389   -4.0457 H         1 20J602      0.0000 
     19 H          13.5005    6.0693   -7.1209 H         1 20J602      0.0000 
     20 H          13.0346    4.5343   -7.2352 H         1 20J602      0.0000 
     21 H          12.1138    5.5982   -6.4565 H         1 20J602      0.0000 
@<TRIPOS>BOND
     1    2    1 1    
     2   19    1 1    
     3   20    1 1    
     4   21    1 1    
     5    3    2 2    
     6   13    2 1    
     7    4    3 1    
     8    5    4 ar   
     9    9    4 ar   
    10    6    5 ar   
    11   15    5 1    
    12    7    6 ar   
    13   16    6 1    
    14    8    7 ar   
    15   14    7 1    
    16    9    8 ar   
    17   17    8 1    
    18   10    9 1    
    19   11   10 2    
    20   12   10 2    
    21   13   10 1    
    22   18   13 1    
@<TRIPOS>SUBSTRUCTURE
     1 20J602      1 GROUP   
@<TRIPOS>SET

