#    Name: 1sd2_MTH_1_INTS_M
#    Modification time : Tue Mar 25 02:17:53 2014

@<TRIPOS>MOLECULE
1sd2_MTH_1_INTS_M
   64     0     9     0     0
SMALL
NO_CHARGES


@<TRIPOS>ATOM
      1 CA         60.3335   11.5370   32.9595 C.3       3 GLC5        0.0000 
      2 CA         58.4810   12.5530   32.7050 C.3       9 GLL5        0.0000 
      3 CA         62.1860   10.5210   33.2140 C.3       6 GLP5        0.0000 
      4 CA         56.6460   11.3700   32.7580 C.3       3 GLC5        0.0000 
      5 CA         54.8110   10.1870   32.8110 C.3       6 GLP5        0.0000 
      6 CA         58.8355   10.3880   32.5660 C.3       3 GLC5        0.0000 
      7 CA         59.1900    8.2230   32.4270 C.3       6 GLP5        0.0000 
      8 CA         58.8530   12.2320   29.7515 C.3       3 GLC5        0.0000 
      9 CA         58.1780   13.4460   31.1500 C.3       9 GLL5        0.0000 
     10 CA         59.5280   11.0180   28.3530 C.3       6 GLP5        0.0000 
     11 CA         62.3140   18.3015   28.9875 C.3       3 GLC5        0.0000 
     12 CA         61.5630   16.9330   30.4660 C.3       9 GLL5        0.0000 
     13 CA         63.0650   19.6700   27.5090 C.3       6 GLP5        0.0000 
     14 CA         60.9030   18.6475   30.7515 C.3       3 GLC5        0.0000 
     15 CA         60.2430   20.3620   31.0370 C.3       6 GLP5        0.0000 
     16 N          62.9580   18.8510   30.2275 N.am      2 SEC2        0.0000 
     17 N          62.9350   17.4440   30.5910 N.am      8 SEL2        0.0000 
     18 N          62.9810   20.2580   29.8640 N.am      5 SEP2        0.0000 
     19 CA         61.0590   17.7375   33.4795 C.3       3 GLC5        0.0000 
     20 CA         60.9400   16.5520   31.8850 C.3       9 GLL5        0.0000 
     21 CA         61.1780   18.9230   35.0740 C.3       6 GLP5        0.0000 
     22 CA         59.9030   18.1205   31.9650 C.3       3 GLC5        0.0000 
     23 CA         58.8660   19.6890   32.0450 C.3       6 GLP5        0.0000 
     24 CA         62.6330   14.0105   28.9695 C.3       3 GLC5        0.0000 
     25 CA         61.5280   15.6740   29.5330 C.3       9 GLL5        0.0000 
     26 CA         63.7380   12.3470   28.4060 C.3       6 GLP5        0.0000 
     27 CA         62.0610   13.5415   27.8585 C.3       3 GLC5        0.0000 
     28 CA         60.3840   14.7360   27.3110 C.3       9 GLL5        0.0000 
     29 CA         59.9560   12.8770   27.8320 C.3       3 GLC5        0.0000 
     30 CA         57.5305   14.8160   25.6970 C.3       3 GLC5        0.0000 
     31 CA         59.6430   15.0530   26.2620 C.3       9 GLL5        0.0000 
     32 CA         55.4180   14.5790   25.1320 C.3       6 GLP5        0.0000 
     33 CA         58.6140   13.4975   26.6710 C.3       3 GLC5        0.0000 
     34 CA         57.5850   11.9420   27.0800 C.3       6 GLP5        0.0000 
     35 CA         59.4955   18.5720   24.3835 C.3       3 GLC5        0.0000 
     36 CA         58.6630   17.3820   25.6790 C.3       9 GLL5        0.0000 
     37 CA         60.3280   19.7620   23.0880 C.3       6 GLP5        0.0000 
     38 CA         57.0405   15.9805   25.4055 C.3       3 GLC5        0.0000 
     39 O          57.7390   15.7895   23.5085 O.2       1 ALC1        0.0000 
     40 O          58.0190   17.0810   24.5380 O.2       7 ALL1        0.0000 
     41 O          57.4590   14.4980   22.4790 O.2       4 ALP1        0.0000 
     42 O          57.0980   18.0175   23.8350 O.2       1 ALC1        0.0000 
     43 O          56.1770   18.9540   23.1320 O.2       4 ALP1        0.0000 
     44 N          57.6335   19.5735   25.7555 N.am      2 SEC2        0.0000 
     45 N          58.6410   18.6810   26.1840 N.am      8 SEL2        0.0000 
     46 N          56.6260   20.4660   25.3270 N.am      5 SEP2        0.0000 
     47 CA         58.5885   20.8035   27.7140 C.3       3 GLC5        0.0000 
     48 CA         59.2830   18.9920   27.3330 C.3       9 GLL5        0.0000 
     49 CA         57.8940   22.6150   28.0950 C.3       6 GLP5        0.0000 
     50 CA         59.9055   20.3745   25.9670 C.3       3 GLC5        0.0000 
     51 CA         60.5280   21.7570   24.6010 C.3       6 GLP5        0.0000 
     52 CA         61.1740   19.3310   27.4210 C.3       3 GLC5        0.0000 
     53 CA         58.4180   19.3170   29.0700 C.3       3 GLC5        0.0000 
     54 CA         57.5530   19.6420   30.8070 C.3       6 GLP5        0.0000 
     55 CA         61.5380   18.2725   27.5570 C.3       3 GLC5        0.0000 
     56 CA         60.0110   16.8750   27.6050 C.3       9 GLL5        0.0000 
     57 CA         57.0032   14.8697   30.2415 C.3       3 GLC5        0.0000 
     58 CA         58.8530   15.1030   31.5540 C.3       9 GLL5        0.0000 
     59 CA         55.4910   15.4650   29.1310 C.3       6 GLP5        0.0000 
     60 CA         59.9071   16.2913   24.2785 C.3       3 GLC5        0.0000 
     61 CA         60.7230   16.0270   22.5440 C.3       6 GLP5        0.0000 
     62 CA         61.6248   15.6821   26.0388 C.3       3 GLC5        0.0000 
     63 CA         59.3960   16.4050   26.4320 C.3       9 GLL5        0.0000 
     64 CA         63.3910   15.5970   25.1750 C.3       6 GLP5        0.0000 
@<TRIPOS>BOND
@<TRIPOS>SUBSTRUCTURE
     1 ALC1       39 GROUP        1 X    ALC  0     ROOT ALC X 1
     2 SEC2       16 GROUP        1 X    SEC  0     **** SEC X 2
     3 GLC5        1 GROUP        1 X    GLC  0     **** GLC X 6
     4 ALP1       41 GROUP        1 Y    ALP  0     ROOT ALP Y 8
     5 SEP2       18 GROUP        1 Y    SEP  0     **** SEP Y 9
     6 GLP5        3 GROUP        1 Y    GLP  0     **** GLP Y 13
     7 ALL1       40 GROUP        1 Z    ALL  0     ROOT ALL Z 15
     8 SEL2       17 GROUP        1 Z    SEL  0     **** SEL Z 16
     9 GLL5        2 GROUP        1 Z    GLL  0     **** GLL Z 20
@<TRIPOS>SET

