#    Name: 1sd2_MTH_1_ligand
#    Modification time : Tue Mar 25 02:17:53 2014

@<TRIPOS>MOLECULE
1sd2_MTH_1_ligand
   36    38     1     0     0
SMALL
NO_CHARGES


@<TRIPOS>ATOM
      1 CS         58.4810   12.5530   32.7050 C.3       1 MTH285      0.0000 
      2 S5'        58.1780   13.4460   31.1500 S.3       1 MTH285      0.0000 
      3 C5'        58.8530   15.1030   31.5540 C.3       1 MTH285      0.0000 
      4 C4'        60.3750   15.1540   31.6360 C.3       1 MTH285      0.0000 
      5 O4'        60.9140   14.6480   30.3710 O.3       1 MTH285      0.0000 
      6 C2'        61.5630   16.9330   30.4660 C.3       1 MTH285      0.0000 
      7 O2'        62.9350   17.4440   30.5910 O.3       1 MTH285      0.0000 
      8 C3'        60.9400   16.5520   31.8850 C.3       1 MTH285      0.0000 
      9 O3'        61.9670   16.5160   32.9540 O.3       1 MTH285      0.0000 
     10 C1'        61.5280   15.6740   29.5330 C.3       1 MTH285      0.0000 
     11 N9         60.6540   15.7920   28.1800 N.pl3     1 MTH285      0.0000 
     12 C8         60.3840   14.7360   27.3110 C.2       1 MTH285      0.0000 
     13 C7         59.6430   15.0530   26.2620 C.2       1 MTH285      0.0000 
     14 C5         59.3960   16.4050   26.4320 C.ar      1 MTH285      0.0000 
     15 C6         58.6630   17.3820   25.6790 C.ar      1 MTH285      0.0000 
     16 N6         58.0190   17.0810   24.5380 N.pl3     1 MTH285      0.0000 
     17 N1         58.6410   18.6810   26.1840 N.ar      1 MTH285      0.0000 
     18 C2         59.2830   18.9920   27.3330 C.ar      1 MTH285      0.0000 
     19 N3         59.9990   18.1540   28.1170 N.ar      1 MTH285      0.0000 
     20 C4         60.0110   16.8750   27.6050 C.ar      1 MTH285      0.0000 
     21 H          58.3601   15.3189   32.4888 H         1 MTH285      0.0000 
     22 H          58.4401   15.7073   30.7617 H         1 MTH285      0.0000 
     23 H          60.6984   14.5020   32.4411 H         1 MTH285      0.0000 
     24 H          60.9093   17.6755   30.0277 H         1 MTH285      0.0000 
     25 H          60.1534   17.2151   32.0743 H         1 MTH285      0.0000 
     26 H          62.5179   15.3946   29.2820 H         1 MTH285      0.0000 
     27 H          60.7420   13.8158   27.4991 H         1 MTH285      0.0000 
     28 H          59.3385   14.5224   25.5554 H         1 MTH285      0.0000 
     29 H          58.1091   16.1380   24.2175 H         1 MTH285      0.0000 
     30 H          57.5074   17.8269   24.1116 H         1 MTH285      0.0000 
     31 H          59.2164   20.0281   27.6623 H         1 MTH285      0.0000 
     32 H          59.4204   12.6741   33.0258 H         1 MTH285      0.0000 
     33 H          57.8780   12.8682   33.4379 H         1 MTH285      0.0000 
     34 H          58.3302   11.5696   32.6040 H         1 MTH285      0.0000 
     35 H          63.2130   17.2133   31.5235 H         1 MTH285      0.0000 
     36 H          61.6579   17.1827   33.6322 H         1 MTH285      0.0000 
@<TRIPOS>BOND
     1    2    1 1    
     2   32    1 1    
     3   33    1 1    
     4   34    1 1    
     5    3    2 1    
     6    4    3 1    
     7   21    3 1    
     8   22    3 1    
     9    5    4 1    
    10    8    4 1    
    11   23    4 1    
    12   10    5 1    
    13    7    6 1    
    14    8    6 1    
    15   10    6 1    
    16   24    6 1    
    17   35    7 1    
    18    9    8 1    
    19   25    8 1    
    20   36    9 1    
    21   11   10 1    
    22   26   10 1    
    23   12   11 1    
    24   20   11 1    
    25   13   12 2    
    26   27   12 1    
    27   14   13 1    
    28   28   13 1    
    29   15   14 ar   
    30   20   14 ar   
    31   16   15 1    
    32   17   15 ar   
    33   29   16 1    
    34   30   16 1    
    35   18   17 ar   
    36   19   18 ar   
    37   31   18 1    
    38   20   19 ar   
@<TRIPOS>SUBSTRUCTURE
     1 MTH285      1 GROUP   
@<TRIPOS>SET

