#    Name: 1qmg_APX_5_INTS_M
#    Modification time : Mon Mar 24 23:40:51 2014

@<TRIPOS>MOLECULE
1qmg_APX_5_INTS_M
  101     0    12     0     0
SMALL
NO_CHARGES


@<TRIPOS>ATOM
      1 N          -7.4900   -5.7920   34.9780 N.am      2 SEC2        0.0000 
      2 N          -6.2330   -5.5970   35.1310 N.am     10 SEL2        0.0000 
      3 N          -8.7470   -5.9870   34.8250 N.am      6 SEP2        0.0000 
      4 N          -6.9080   -6.5990   32.6755 N.am      2 SEC2        0.0000 
      5 N          -6.0500   -5.3960   32.6070 N.am     10 SEL2        0.0000 
      6 N          -7.7660   -7.8020   32.7440 N.am      6 SEP2        0.0000 
      7 N          -7.4365   -5.4085   32.1910 N.am      2 SEC2        0.0000 
      8 N          -8.8230   -5.4210   31.7750 N.am      6 SEP2        0.0000 
      9 CA         -6.2730   -3.0595   32.1455 C.3       4 GLC5        0.0000 
     10 CA         -4.2000   -3.0600   32.9640 C.3      12 GLL5        0.0000 
     11 CA         -8.3460   -3.0590   31.3270 C.3       8 GLP5        0.0000 
     12 CA         -3.5780   -2.8795   31.2735 C.3       4 GLC5        0.0000 
     13 CA         -2.9560   -2.6990   29.5830 C.3       8 GLP5        0.0000 
     14 CA         -2.3620   -4.0530   32.1365 C.3       4 GLC5        0.0000 
     15 CA         -0.5240   -5.0460   31.3090 C.3       8 GLP5        0.0000 
     16 CA         -4.6015   -1.1210   31.4690 C.3       4 GLC5        0.0000 
     17 CA         -4.0870   -1.5860   33.3240 C.3      12 GLL5        0.0000 
     18 CA         -5.1160   -0.6560   29.6140 C.3       8 GLP5        0.0000 
     19 N          -1.2350   -0.4170   33.8850 N.am      2 SEC2        0.0000 
     20 N          -2.6450   -0.1020   34.4930 N.am     10 SEL2        0.0000 
     21 N           0.1750   -0.7320   33.2770 N.am      6 SEP2        0.0000 
     22 O          -1.7610   -0.1160   35.5185 O.2       1 ALC1        0.0000 
     23 O          -2.6450   -0.1020   34.4930 O.2       9 ALL1        0.0000 
     24 O          -0.8770   -0.1300   36.5440 O.2       5 ALP1        0.0000 
     25 CA         -5.0885   -2.7610   36.8315 C.3       4 GLC5        0.0000 
     26 CA         -4.4890   -1.3080   35.6810 C.3      12 GLL5        0.0000 
     27 CA         -5.6880   -4.2140   37.9820 C.3       8 GLP5        0.0000 
     28 O          -2.5085   -0.3595   36.7170 O.2       1 ALC1        0.0000 
     29 O          -4.1400   -0.5890   36.8900 O.2       9 ALL1        0.0000 
     30 O          -3.0055   -1.0660   37.4035 O.2       1 ALC1        0.0000 
     31 O          -1.8710   -1.5430   37.9170 O.2       5 ALP1        0.0000 
     32 CA         -7.1275   -1.5490   33.7660 C.3       4 GLC5        0.0000 
     33 CA         -5.5820   -0.6480   34.8770 C.3      12 GLL5        0.0000 
     34 CA         -8.6730   -2.4500   32.6550 C.3       8 GLP5        0.0000 
     35 CA         -6.0395    0.7270   33.3265 C.3       4 GLC5        0.0000 
     36 CA         -6.4970    2.1020   31.7760 C.3       8 GLP5        0.0000 
     37 O          -7.9100    0.2685   35.2740 O.2       1 ALC1        0.0000 
     38 O          -6.8550   -0.9750   35.3480 O.2       9 ALL1        0.0000 
     39 O          -8.9650    1.5120   35.2000 O.2       5 ALP1        0.0000 
     40 N          -3.6955   -6.6030   37.4955 N.am      2 SEC2        0.0000 
     41 N          -3.1590   -6.5580   36.1000 N.am     10 SEL2        0.0000 
     42 N          -4.2320   -6.6480   38.8910 N.am      6 SEP2        0.0000 
     43 N          -2.6830   -7.4520   37.0115 N.am      2 SEC2        0.0000 
     44 N          -2.2070   -8.3460   37.9230 N.am      6 SEP2        0.0000 
     45 NZ         -5.7475   -8.6245   35.7385 N.4       3 LYC4        0.0000 
     46 NZ         -4.6210   -8.3160   35.0110 N.4      11 LYL4        0.0000 
     47 NZ         -7.3400  -10.0440   35.9130 N.4       7 LYP4        0.0000 
     48 N          -5.6515   -9.4540   34.9525 N.am      2 SEC2        0.0000 
     49 N          -4.6210   -8.3160   35.0110 N.am     10 SEL2        0.0000 
     50 N          -6.6820  -10.5920   34.8940 N.am      6 SEP2        0.0000 
     51 N          -5.7475   -8.6245   35.7385 N.am      2 SEC2        0.0000 
     52 N          -6.8740   -8.9330   36.4660 N.am      6 SEP2        0.0000 
     53 CA         -0.8285   -7.8580   34.6020 C.3       4 GLC5        0.0000 
     54 CA         -2.2610   -9.0630   33.4230 C.3      12 GLL5        0.0000 
     55 CA          0.6040   -6.6530   35.7810 C.3       8 GLP5        0.0000 
     56 CA         -1.1475   -6.9060   31.6580 C.3       4 GLC5        0.0000 
     57 CA         -1.7710   -8.7660   32.0070 C.3      12 GLL5        0.0000 
     58 N          -0.2325   -6.9645   32.8735 N.am      2 SEC2        0.0000 
     59 N          -0.4230   -8.2710   32.1260 N.am     10 SEL2        0.0000 
     60 N          -0.0420   -5.6580   33.6210 N.am      6 SEP2        0.0000 
     61 N          -3.0130   -9.2530   28.9610 N.am      2 SEC2        0.0000 
     62 N          -2.1490   -9.8300   29.8730 N.am     10 SEL2        0.0000 
     63 N          -3.8770   -8.6760   28.0490 N.am      6 SEP2        0.0000 
     64 CA          0.6480   -7.1810   30.9895 C.3       4 GLC5        0.0000 
     65 CA          0.3990   -9.0470   31.2700 C.3      12 GLL5        0.0000 
     66 CA          0.8970   -5.3150   30.7090 C.3       8 GLP5        0.0000 
     67 CA          1.8560   -7.0535   30.8955 C.3       4 GLC5        0.0000 
     68 CA          2.8150   -8.7920   31.0820 C.3      12 GLL5        0.0000 
     69 CA          4.7895   -9.8490   28.8555 C.3       4 GLC5        0.0000 
     70 CA          4.2300   -8.1150   29.3580 C.3      12 GLL5        0.0000 
     71 CA          5.3490  -11.5830   28.3530 C.3       8 GLP5        0.0000 
     72 CA          4.4285   -7.7215   27.5670 C.3       4 GLC5        0.0000 
     73 CA          4.6270   -7.3280   25.7760 C.3       8 GLP5        0.0000 
     74 CA          3.7665   -6.2655   29.9190 C.3       4 GLC5        0.0000 
     75 CA          3.3030   -4.4160   30.4800 C.3       8 GLP5        0.0000 
     76 N           4.9495   -9.9310   29.8555 N.am      2 SEC2        0.0000 
     77 N           5.3250   -8.3220   30.1200 N.am     10 SEL2        0.0000 
     78 N           4.5740  -11.5400   29.5910 N.am      6 SEP2        0.0000 
     79 CA          5.2770  -10.1690   29.8780 C.3       4 GLC5        0.0000 
     80 CA          5.2050   -8.7550   31.4030 C.3      12 GLL5        0.0000 
     81 N           3.2775  -10.8915   32.1310 N.am      2 SEC2        0.0000 
     82 N           3.4530   -9.4760   33.0860 N.am     10 SEL2        0.0000 
     83 N           3.1020  -12.3070   31.1760 N.am      6 SEP2        0.0000 
     84 N           1.4715  -12.8585   31.1035 N.am      2 SEC2        0.0000 
     85 N          -0.1590  -13.4100   31.0310 N.am     10 SEL2        0.0000 
     86 NZ          2.2215  -12.8280   29.4525 N.4       3 LYC4        0.0000 
     87 NZ          0.7020  -13.1670   28.8790 N.4      11 LYL4        0.0000 
     88 NZ          3.7410  -12.4890   30.0260 N.4       7 LYP4        0.0000 
     89 N           0.2290  -13.7765   27.7185 N.am      2 SEC2        0.0000 
     90 N           0.7020  -13.1670   28.8790 N.am     10 SEL2        0.0000 
     91 N          -0.2440  -14.3860   26.5580 N.am      6 SEP2        0.0000 
     92 N          -2.5225  -13.2560   28.7140 N.am      2 SEC2        0.0000 
     93 N          -1.5540  -12.5420   29.2790 N.am     10 SEL2        0.0000 
     94 N          -3.4910  -13.9700   28.1490 N.am      6 SEP2        0.0000 
     95 CA         -4.2231    0.8435   35.5700 C.3       4 GLC5        0.0000 
     96 CA         -3.3480   -1.3440   34.6410 C.3      12 GLL5        0.0000 
     97 CA         -3.6960    2.6740   36.1210 C.3       8 GLP5        0.0000 
     98 CA         -3.8845   -9.2239   31.8248 C.3       4 GLC5        0.0000 
     99 CA         -5.9140   -8.9660   31.6920 C.3       8 GLP5        0.0000 
    100 CA          4.2336   -7.4776   32.6109 C.3       4 GLC5        0.0000 
    101 CA          4.1830   -6.1240   33.7700 C.3       8 GLP5        0.0000 
@<TRIPOS>BOND
@<TRIPOS>SUBSTRUCTURE
     1 ALC1       22 GROUP        1 X    ALC  0     ROOT ALC X 1
     2 SEC2        1 GROUP        1 X    SEC  0     **** SEC X 2
     3 LYC4       45 GROUP        1 X    LYC  0     **** LYC X 4
     4 GLC5        9 GROUP        1 X    GLC  0     **** GLC X 6
     5 ALP1       24 GROUP        1 Y    ALP  0     ROOT ALP Y 8
     6 SEP2        3 GROUP        1 Y    SEP  0     **** SEP Y 9
     7 LYP4       47 GROUP        1 Y    LYP  0     **** LYP Y 11
     8 GLP5       11 GROUP        1 Y    GLP  0     **** GLP Y 13
     9 ALL1       23 GROUP        1 Z    ALL  0     ROOT ALL Z 15
    10 SEL2        2 GROUP        1 Z    SEL  0     **** SEL Z 16
    11 LYL4       46 GROUP        1 Z    LYL  0     **** LYL Z 18
    12 GLL5       10 GROUP        1 Z    GLL  0     **** GLL Z 20
@<TRIPOS>SET

