#    Name: 1qmg_APX_5_ligand
#    Modification time : Mon Mar 24 23:40:51 2014

@<TRIPOS>MOLECULE
1qmg_APX_5_ligand
   58    61     1     0     0
SMALL
NO_CHARGES


@<TRIPOS>ATOM
      1 PM         -5.4030   -5.2570   33.9280 P.3       1 APX600      0.0000 
      2 O6M        -6.2330   -5.5970   35.1310 O.co2     1 APX600      0.0000 
      3 O7M        -6.0500   -5.3960   32.6070 O.co2     1 APX600      0.0000 
      4 O3N        -4.0780   -6.1500   33.8760 O.3       1 APX600      0.0000 
      5 O5M        -4.8580   -3.7590   34.0540 O.3       1 APX600      0.0000 
      6 C5M        -4.2000   -3.0600   32.9640 C.3       1 APX600      0.0000 
      7 C4M        -4.0870   -1.5860   33.3240 C.3       1 APX600      0.0000 
      8 O4M        -5.4470   -1.1250   33.5190 O.3       1 APX600      0.0000 
      9 C3M        -3.3480   -1.3440   34.6410 C.3       1 APX600      0.0000 
     10 O3M        -2.6450   -0.1020   34.4930 O.3       1 APX600      0.0000 
     11 C2M        -4.4890   -1.3080   35.6810 C.3       1 APX600      0.0000 
     12 O2M        -4.1400   -0.5890   36.8900 O.3       1 APX600      0.0000 
     13 C1M        -5.5820   -0.6480   34.8770 C.3       1 APX600      0.0000 
     14 O1N        -6.8550   -0.9750   35.3480 O.3       1 APX600      0.0000 
     15 PA         -3.5640   -7.2720   34.8680 P.3       1 APX600      0.0000 
     16 O6B        -3.1590   -6.5580   36.1000 O.co2     1 APX600      0.0000 
     17 O7B        -4.6210   -8.3160   35.0110 O.co2     1 APX600      0.0000 
     18 O5B        -2.2760   -7.8190   34.1320 O.3       1 APX600      0.0000 
     19 C5B        -2.2610   -9.0630   33.4230 C.3       1 APX600      0.0000 
     20 C4B        -1.7710   -8.7660   32.0070 C.3       1 APX600      0.0000 
     21 O4B        -0.4230   -8.2710   32.1260 O.3       1 APX600      0.0000 
     22 C3B        -1.6940  -10.0490   31.2000 C.3       1 APX600      0.0000 
     23 O3B        -2.1490   -9.8300   29.8730 O.3       1 APX600      0.0000 
     24 C2B        -0.2190  -10.4260   31.2310 C.3       1 APX600      0.0000 
     25 O2B         0.2420  -11.1990   30.0850 O.3       1 APX600      0.0000 
     26 C1B         0.3990   -9.0470   31.2700 C.3       1 APX600      0.0000 
     27 N9A         1.7550   -9.1180   31.7960 N.pl3     1 APX600      0.0000 
     28 C4A         2.8150   -8.7920   31.0820 C.ar      1 APX600      0.0000 
     29 N3A         2.9850   -8.3330   29.8160 N.ar      1 APX600      0.0000 
     30 C2A         4.2300   -8.1150   29.3580 C.ar      1 APX600      0.0000 
     31 N1A         5.3250   -8.3220   30.1200 N.ar      1 APX600      0.0000 
     32 C6A         5.2050   -8.7550   31.4030 C.ar      1 APX600      0.0000 
     33 C5A         3.9120   -9.0230   31.9190 C.ar      1 APX600      0.0000 
     34 N7A         3.4530   -9.4760   33.0860 N.2       1 APX600      0.0000 
     35 C8A         2.1300   -9.4880   33.0280 C.2       1 APX600      0.0000 
     36 N6A         6.2870   -8.9880   32.1550 N.3       1 APX600      0.0000 
     37 P2         -0.2200  -12.6170   29.8230 P.3       1 APX600      0.0000 
     38 OP1        -0.1590  -13.4100   31.0310 O.co2     1 APX600      0.0000 
     39 OP2         0.7020  -13.1670   28.8790 O.co2     1 APX600      0.0000 
     40 OP3        -1.5540  -12.5420   29.2790 O.co2     1 APX600      0.0000 
     41 H          -4.7708   -3.1455   32.0396 H         1 APX600      0.0000 
     42 H          -3.1968   -3.4505   32.7942 H         1 APX600      0.0000 
     43 H          -3.6208   -1.0548   32.5416 H         1 APX600      0.0000 
     44 H          -2.7335   -2.1725   34.8237 H         1 APX600      0.0000 
     45 H          -4.7783   -2.3250   35.8556 H         1 APX600      0.0000 
     46 H          -5.4045    0.4195   34.8930 H         1 APX600      0.0000 
     47 H          -3.2507   -9.5013   33.3516 H         1 APX600      0.0000 
     48 H          -1.5795   -9.7777   33.8719 H         1 APX600      0.0000 
     49 H          -2.4049   -8.0779   31.5418 H         1 APX600      0.0000 
     50 H          -2.2415  -10.8007   31.7192 H         1 APX600      0.0000 
     51 H          -0.0204  -10.8920   32.1700 H         1 APX600      0.0000 
     52 H           0.3954   -8.6545   30.2727 H         1 APX600      0.0000 
     53 H           4.3587   -7.7691   28.3661 H         1 APX600      0.0000 
     54 H           1.5247   -9.7241   33.7523 H         1 APX600      0.0000 
     55 H          -1.9758   -0.0934   35.2360 H         1 APX600      0.0000 
     56 H          -3.2888   -1.0093   37.2043 H         1 APX600      0.0000 
     57 H          -7.3149   -0.0971   35.4815 H         1 APX600      0.0000 
     58 H          -2.0130  -10.7034   29.4054 H         1 APX600      0.0000 
@<TRIPOS>BOND
     1    2    1 ar   
     2    3    1 ar   
     3    4    1 1    
     4    5    1 1    
     5   15    4 1    
     6    6    5 1    
     7    7    6 1    
     8   41    6 1    
     9   42    6 1    
    10    8    7 1    
    11    9    7 1    
    12   43    7 1    
    13   13    8 1    
    14   10    9 1    
    15   11    9 1    
    16   44    9 1    
    17   55   10 1    
    18   12   11 1    
    19   13   11 1    
    20   45   11 1    
    21   56   12 1    
    22   14   13 1    
    23   46   13 1    
    24   57   14 1    
    25   16   15 ar   
    26   17   15 ar   
    27   18   15 1    
    28   19   18 1    
    29   20   19 1    
    30   47   19 1    
    31   48   19 1    
    32   21   20 1    
    33   22   20 1    
    34   49   20 1    
    35   26   21 1    
    36   23   22 1    
    37   24   22 1    
    38   50   22 1    
    39   58   23 1    
    40   25   24 1    
    41   26   24 1    
    42   51   24 1    
    43   37   25 1    
    44   27   26 1    
    45   52   26 1    
    46   28   27 1    
    47   35   27 1    
    48   29   28 ar   
    49   33   28 ar   
    50   30   29 ar   
    51   31   30 ar   
    52   53   30 1    
    53   32   31 ar   
    54   33   32 ar   
    55   36   32 1    
    56   34   33 1    
    57   35   34 2    
    58   54   35 1    
    59   38   37 ar   
    60   39   37 ar   
    61   40   37 ar   
@<TRIPOS>SUBSTRUCTURE
     1 APX600      1 GROUP   
@<TRIPOS>SET

