#    Name: 3rke_MZZ_1_INTS_M
#    Modification time : Tue Mar 25 11:36:25 2014

@<TRIPOS>MOLECULE
3rke_MZZ_1_INTS_M
   24     0     6     0     0
SMALL
NO_CHARGES


@<TRIPOS>ATOM
      1 CA          5.3275    1.4950   25.3675 C.3       2 GLC5        0.0000 
      2 CA          5.7980    2.6820   27.2040 C.3       6 GLL5        0.0000 
      3 CA          4.8570    0.3080   23.5310 C.3       4 GLP5        0.0000 
      4 CA          2.6645    3.0190   27.9860 C.3       2 GLC5        0.0000 
      5 CA          4.0190    3.9710   28.9170 C.3       6 GLL5        0.0000 
      6 CA          1.3100    2.0670   27.0550 C.3       4 GLP5        0.0000 
      7 CA          4.6240    5.6870   28.2250 C.3       2 GLC5        0.0000 
      8 CA          5.2290    7.4030   27.5330 C.3       4 GLP5        0.0000 
      9 CA          4.0735    5.8455   27.2505 C.3       2 GLC5        0.0000 
     10 CA          4.2700    4.3050   27.6540 C.3       6 GLL5        0.0000 
     11 CA          3.8770    7.3860   26.8470 C.3       4 GLP5        0.0000 
     12 CA          5.1860    5.5435   27.2065 C.3       2 GLC5        0.0000 
     13 CA          5.1430    3.6840   26.8800 C.3       6 GLL5        0.0000 
     14 O           6.0155    1.6610   25.2930 O.2       1 ALC1        0.0000 
     15 O           6.8550    1.9230   26.2850 O.2       5 ALL1        0.0000 
     16 O           5.1760    1.3990   24.3010 O.2       3 ALP1        0.0000 
     17 CA          3.7087    1.8024   27.6741 C.3       2 GLC5        0.0000 
     18 CA          5.5280    2.3810   28.4570 C.3       6 GLL5        0.0000 
     19 CA          2.2350    0.8700   26.7830 C.3       4 GLP5        0.0000 
     20 CA          3.0743    3.5808   26.6330 C.3       2 GLC5        0.0000 
     21 CA          1.4420    3.1670   25.9990 C.3       4 GLP5        0.0000 
     22 CA          0.6730    6.4772   32.1425 C.3       2 GLC5        0.0000 
     23 CA          1.1660    5.3520   30.9670 C.3       6 GLL5        0.0000 
     24 CA          0.8500    7.5210   33.5140 C.3       4 GLP5        0.0000 
@<TRIPOS>BOND
@<TRIPOS>SUBSTRUCTURE
     1 ALC1       14 GROUP        1 X    ALC  0     ROOT ALC X 1
     2 GLC5        1 GROUP        1 X    GLC  0     **** GLC X 6
     3 ALP1       16 GROUP        1 Y    ALP  0     ROOT ALP Y 8
     4 GLP5        3 GROUP        1 Y    GLP  0     **** GLP Y 13
     5 ALL1       15 GROUP        1 Z    ALL  0     ROOT ALL Z 15
     6 GLL5        2 GROUP        1 Z    GLL  0     **** GLL Z 20
@<TRIPOS>SET

