#    Name: 3rke_MZZ_1_ligand
#    Modification time : Tue Mar 25 11:36:26 2014

@<TRIPOS>MOLECULE
3rke_MZZ_1_ligand
   23    24     1     0     0
SMALL
NO_CHARGES


@<TRIPOS>ATOM
      1 C1          5.7980    2.6820   27.2040 C.ar      1 MZZ610      0.0000 
      2 C2          5.5280    2.3810   28.4570 C.ar      1 MZZ610      0.0000 
      3 C3          4.7020    2.9380   29.3000 C.ar      1 MZZ610      0.0000 
      4 C4          4.0190    3.9710   28.9170 C.ar      1 MZZ610      0.0000 
      5 C5          4.2700    4.3050   27.6540 C.ar      1 MZZ610      0.0000 
      6 C6          5.1430    3.6840   26.8800 C.ar      1 MZZ610      0.0000 
      7 N7          6.8550    1.9230   26.2850 N.pl3     1 MZZ610      0.0000 
      8 C8          3.1040    4.5880   29.9370 C.2       1 MZZ610      0.0000 
      9 N9          1.7460    4.8600   29.9460 N.am      1 MZZ610      0.0000 
     10 O12         3.8030    4.8290   31.1370 O.2       1 MZZ610      0.0000 
     11 C17         1.1660    5.3520   30.9670 C.2       1 MZZ610      0.0000 
     12 C18        -0.1740    5.5150   30.5750 C.2       1 MZZ610      0.0000 
     13 N19        -0.2840    5.1160   29.3320 N.2       1 MZZ610      0.0000 
     14 C20         0.9930    4.7150   28.9610 C.2       1 MZZ610      0.0000 
     15 H           6.1030    1.5032   28.8617 H         1 MZZ610      0.0000 
     16 H           4.5954    2.5525   30.2718 H         1 MZZ610      0.0000 
     17 H           3.7240    5.1368   27.2380 H         1 MZZ610      0.0000 
     18 H           5.2752    4.1145   25.8775 H         1 MZZ610      0.0000 
     19 H           7.7995    1.9170   26.6136 H         1 MZZ610      0.0000 
     20 H           6.4944    1.5097   25.4489 H         1 MZZ610      0.0000 
     21 H           1.4880    5.5847   31.8292 H         1 MZZ610      0.0000 
     22 H          -0.8515    5.8642   31.1602 H         1 MZZ610      0.0000 
     23 H           1.1848    4.3869   28.0599 H         1 MZZ610      0.0000 
@<TRIPOS>BOND
     1    2    1 ar   
     2    6    1 ar   
     3    7    1 1    
     4    3    2 ar   
     5   15    2 1    
     6    4    3 ar   
     7   16    3 1    
     8    5    4 ar   
     9    8    4 1    
    10    6    5 ar   
    11   17    5 1    
    12   18    6 1    
    13   19    7 1    
    14   20    7 1    
    15    9    8 am   
    16   10    8 2    
    17   11    9 1    
    18   14    9 1    
    19   12   11 2    
    20   21   11 1    
    21   13   12 1    
    22   22   12 1    
    23   14   13 2    
    24   23   14 1    
@<TRIPOS>SUBSTRUCTURE
     1 MZZ610      1 GROUP   
@<TRIPOS>SET

