#    Name: 3ooi_SAM_1_INTS_M
#    Modification time : Tue Mar 25 04:54:37 2014

@<TRIPOS>MOLECULE
3ooi_SAM_1_INTS_M
   76     0     9     0     0
SMALL
NO_CHARGES


@<TRIPOS>ATOM
      1 O           0.4145   -2.6460   -8.9325 O.2       1 ALC1        0.0000 
      2 O           1.3930   -1.5670   -8.9250 O.2       7 ALL1        0.0000 
      3 O          -0.5640   -3.7250   -8.9400 O.2       4 ALP1        0.0000 
      4 O           0.2980   -0.8420   -9.5170 O.2       1 ALC1        0.0000 
      5 O          -0.7970   -0.1170  -10.1090 O.2       4 ALP1        0.0000 
      6 N           2.1590   -4.4535   -8.5795 N.am      2 SEC2        0.0000 
      7 N           2.7240   -3.6170   -7.6080 N.am      8 SEL2        0.0000 
      8 N           1.5940   -5.2900   -9.5510 N.am      5 SEP2        0.0000 
      9 N           2.9540   -2.4050   -4.6830 N.am      2 SEC2        0.0000 
     10 N           2.1900   -2.9310   -5.6680 N.am      8 SEL2        0.0000 
     11 N           3.7180   -1.8790   -3.6980 N.am      5 SEP2        0.0000 
     12 CA          1.4650    0.4780   -4.4350 C.3       3 GLC5        0.0000 
     13 CA          0.9700    1.3680   -5.8470 C.3       9 GLL5        0.0000 
     14 CA          1.9600   -0.4120   -3.0230 C.3       6 GLP5        0.0000 
     15 CA          0.6885    1.5675   -3.6210 C.3       3 GLC5        0.0000 
     16 CA         -0.1740    2.4090   -4.9090 C.3       9 GLL5        0.0000 
     17 CA          1.5510    0.7260   -2.3330 C.3       6 GLP5        0.0000 
     18 CA         -0.9300    3.5985   -6.5365 C.3       3 GLC5        0.0000 
     19 CA         -1.6860    4.7880   -8.1640 C.3       6 GLP5        0.0000 
     20 CA          0.4985    4.1405   -7.6600 C.3       3 GLC5        0.0000 
     21 CA          1.5940    2.6330   -6.9820 C.3       9 GLL5        0.0000 
     22 CA         -0.5970    5.6480   -8.3380 C.3       6 GLP5        0.0000 
     23 CA          1.7370    4.7020   -6.1250 C.3       3 GLC5        0.0000 
     24 CA          1.8800    6.7710   -5.2680 C.3       6 GLP5        0.0000 
     25 N           5.0020    3.5990   -6.2590 N.am      2 SEC2        0.0000 
     26 N           4.4250    3.8750   -7.6270 N.am      8 SEL2        0.0000 
     27 N           5.5790    3.3230   -4.8910 N.am      5 SEP2        0.0000 
     28 N           5.1570    5.0875   -8.3575 N.am      2 SEC2        0.0000 
     29 N           5.8890    6.3000   -9.0880 N.am      5 SEP2        0.0000 
     30 O           4.3570    5.1715   -7.5670 O.2       1 ALC1        0.0000 
     31 O           4.4250    3.8750   -7.6270 O.2       7 ALL1        0.0000 
     32 O           4.2890    6.4680   -7.5070 O.2       4 ALP1        0.0000 
     33 O           6.3700    2.6300   -8.9210 O.2       1 ALC1        0.0000 
     34 O           5.1660    2.1800   -9.6170 O.2       7 ALL1        0.0000 
     35 O           7.5740    3.0800   -8.2250 O.2       4 ALP1        0.0000 
     36 N          -1.5590    3.2760  -11.4560 N.am      2 SEC2        0.0000 
     37 N          -0.1610    2.9690  -11.8360 N.am      8 SEL2        0.0000 
     38 N          -2.9570    3.5830  -11.0760 N.am      5 SEP2        0.0000 
     39 CA          0.0100    5.0365  -15.5550 C.3       3 GLC5        0.0000 
     40 CA          0.6180    3.5620  -14.1560 C.3       9 GLL5        0.0000 
     41 CA         -0.5980    6.5110  -16.9540 C.3       6 GLP5        0.0000 
     42 O          -1.9195    3.9380  -14.2565 O.2       1 ALC1        0.0000 
     43 O          -0.5440    3.9580  -14.6550 O.2       7 ALL1        0.0000 
     44 O          -3.2950    3.9180  -13.8580 O.2       4 ALP1        0.0000 
     45 N           1.7105    3.9125  -16.3845 N.am      2 SEC2        0.0000 
     46 N           1.7330    3.6070  -14.9460 N.am      8 SEL2        0.0000 
     47 N           1.6880    4.2180  -17.8230 N.am      5 SEP2        0.0000 
     48 CA          1.8050    1.5320  -14.8020 C.3       3 GLC5        0.0000 
     49 CA          2.9630    3.2060  -14.4690 C.3       9 GLL5        0.0000 
     50 CA          0.6470   -0.1420  -15.1350 C.3       6 GLP5        0.0000 
     51 CA          4.4475    4.6725  -13.7385 C.3       3 GLC5        0.0000 
     52 CA          5.9320    6.1390  -13.0080 C.3       6 GLP5        0.0000 
     53 CA          2.5675    4.8510  -15.8265 C.3       3 GLC5        0.0000 
     54 CA          2.1720    6.4960  -17.1840 C.3       6 GLP5        0.0000 
     55 CA          3.4450    2.7395  -16.3425 C.3       3 GLC5        0.0000 
     56 CA          3.9270    2.2730  -18.2160 C.3       6 GLP5        0.0000 
     57 CA          2.2105    5.0585  -13.9440 C.3       3 GLC5        0.0000 
     58 CA          1.4580    6.9110  -13.4190 C.3       6 GLP5        0.0000 
     59 CA          2.1240    4.7270  -11.7010 C.3       3 GLC5        0.0000 
     60 CA          1.9920    2.7070  -12.3780 C.3       9 GLL5        0.0000 
     61 CA          2.2560    6.7470  -11.0240 C.3       6 GLP5        0.0000 
     62 CA          0.9910   -0.3975   -4.9350 C.3       3 GLC5        0.0000 
     63 CA         -0.1390    0.3710   -6.9050 C.3       9 GLL5        0.0000 
     64 CA         -1.4595   -1.3575   -5.9290 C.3       3 GLC5        0.0000 
     65 CA          0.1830   -1.1370   -6.7890 C.3       9 GLL5        0.0000 
     66 CA         -2.9410   -2.3320   -5.0110 C.3       6 GLP5        0.0000 
     67 CA          4.8637    2.1528   -7.1248 C.3       3 GLC5        0.0000 
     68 CA          2.7300    2.1810   -7.8760 C.3       9 GLL5        0.0000 
     69 CA          6.6560    1.5230   -6.0700 C.3       6 GLP5        0.0000 
     70 CA          2.9625    4.9325  -10.0840 C.3       3 GLC5        0.0000 
     71 CA          3.4130    3.3840   -8.4830 C.3       9 GLL5        0.0000 
     72 CA         -0.7840    4.6085  -12.6055 C.3       3 GLC5        0.0000 
     73 CA         -2.2500    5.8780  -11.7120 C.3       6 GLP5        0.0000 
     74 CA          1.0700    5.1250  -13.4590 C.3       3 GLC5        0.0000 
     75 CA          0.7460    3.1160  -12.8420 C.3       9 GLL5        0.0000 
     76 CA          0.9920    1.4405  -14.0367 C.3       3 GLC5        0.0000 
@<TRIPOS>BOND
@<TRIPOS>SUBSTRUCTURE
     1 ALC1        1 GROUP        1 X    ALC  0     ROOT ALC X 1
     2 SEC2        6 GROUP        1 X    SEC  0     **** SEC X 2
     3 GLC5       12 GROUP        1 X    GLC  0     **** GLC X 6
     4 ALP1        3 GROUP        1 Y    ALP  0     ROOT ALP Y 8
     5 SEP2        8 GROUP        1 Y    SEP  0     **** SEP Y 9
     6 GLP5       14 GROUP        1 Y    GLP  0     **** GLP Y 13
     7 ALL1        2 GROUP        1 Z    ALL  0     ROOT ALL Z 15
     8 SEL2        7 GROUP        1 Z    SEL  0     **** SEL Z 16
     9 GLL5       13 GROUP        1 Z    GLL  0     **** GLL Z 20
@<TRIPOS>SET

