#    Name: 3ooi_SAM_1_ligand
#    Modification time : Tue Mar 25 04:54:37 2014

@<TRIPOS>MOLECULE
3ooi_SAM_1_ligand
   50    52     1     0     0
SMALL
NO_CHARGES


@<TRIPOS>ATOM
      1 N           1.3930   -1.5670   -8.9250 N.4       1 SAM237      0.0000 
      2 CA          1.5310   -1.4820   -7.4420 C.3       1 SAM237      0.0000 
      3 C           2.1830   -2.7520   -6.8830 C.2       1 SAM237      0.0000 
      4 O           2.7240   -3.6170   -7.6080 O.co2     1 SAM237      0.0000 
      5 OXT         2.1900   -2.9310   -5.6680 O.co2     1 SAM237      0.0000 
      6 CB          0.1830   -1.1370   -6.7890 C.3       1 SAM237      0.0000 
      7 CG         -0.1390    0.3710   -6.9050 C.3       1 SAM237      0.0000 
      8 SD          0.9700    1.3680   -5.8470 S.3       1 SAM237      0.0000 
      9 CE         -0.1740    2.4090   -4.9090 C.3       1 SAM237      0.0000 
     10 C5'         1.5940    2.6330   -6.9820 C.3       1 SAM237      0.0000 
     11 C4'         2.7300    2.1810   -7.8760 C.3       1 SAM237      0.0000 
     12 O4'         2.2750    1.3850   -8.9670 O.3       1 SAM237      0.0000 
     13 C3'         3.4130    3.3840   -8.4830 C.3       1 SAM237      0.0000 
     14 O3'         4.4250    3.8750   -7.6270 O.3       1 SAM237      0.0000 
     15 C2'         3.9250    2.8520   -9.8050 C.3       1 SAM237      0.0000 
     16 O2'         5.1660    2.1800   -9.6170 O.3       1 SAM237      0.0000 
     17 C1'         2.8840    1.8080  -10.1750 C.3       1 SAM237      0.0000 
     18 N9          1.8340    2.3470  -11.0740 N.pl3     1 SAM237      0.0000 
     19 C8          0.5010    2.4850  -10.7580 C.2       1 SAM237      0.0000 
     20 N7         -0.1610    2.9690  -11.8360 N.2       1 SAM237      0.0000 
     21 C5          0.7460    3.1160  -12.8420 C.ar      1 SAM237      0.0000 
     22 C6          0.6180    3.5620  -14.1560 C.ar      1 SAM237      0.0000 
     23 N6         -0.5440    3.9580  -14.6550 N.pl3     1 SAM237      0.0000 
     24 N1          1.7330    3.6070  -14.9460 N.ar      1 SAM237      0.0000 
     25 C2          2.9630    3.2060  -14.4690 C.ar      1 SAM237      0.0000 
     26 N3          3.1050    2.7550  -13.1710 N.ar      1 SAM237      0.0000 
     27 C4          1.9920    2.7070  -12.3780 C.ar      1 SAM237      0.0000 
     28 H           2.2213   -0.6386   -7.2211 H         1 SAM237      0.0000 
     29 H           0.2139   -1.4108   -5.7350 H         1 SAM237      0.0000 
     30 H          -0.6083   -1.7050   -7.2769 H         1 SAM237      0.0000 
     31 H          -1.1003    0.6275   -6.5315 H         1 SAM237      0.0000 
     32 H           0.0501    0.7701   -7.8717 H         1 SAM237      0.0000 
     33 H           1.8688    3.4323   -6.3023 H         1 SAM237      0.0000 
     34 H           0.6982    2.9114   -7.5264 H         1 SAM237      0.0000 
     35 H           3.4579    1.6525   -7.2847 H         1 SAM237      0.0000 
     36 H           2.6446    4.1085   -8.6968 H         1 SAM237      0.0000 
     37 H           3.9321    3.6009  -10.5165 H         1 SAM237      0.0000 
     38 H           3.3875    0.9843  -10.6524 H         1 SAM237      0.0000 
     39 H           0.1136    2.2683   -9.9029 H         1 SAM237      0.0000 
     40 H          -0.5001    4.6431  -15.3821 H         1 SAM237      0.0000 
     41 H          -1.3596    3.5358  -14.2592 H         1 SAM237      0.0000 
     42 H           3.7920    3.2430  -15.0911 H         1 SAM237      0.0000 
     43 H           0.9695   -0.7452   -9.3063 H         1 SAM237      0.0000 
     44 H           2.2795   -1.6757   -9.3749 H         1 SAM237      0.0000 
     45 H           0.8269   -2.3436   -9.2014 H         1 SAM237      0.0000 
     46 H           0.3086    3.0139   -4.2756 H         1 SAM237      0.0000 
     47 H          -0.7235    2.9908   -5.5086 H         1 SAM237      0.0000 
     48 H          -0.8116    1.8635   -4.3651 H         1 SAM237      0.0000 
     49 H           4.0494    4.7163   -7.2384 H         1 SAM237      0.0000 
     50 H           5.7445    2.8360   -9.1322 H         1 SAM237      0.0000 
@<TRIPOS>BOND
     1    2    1 1    
     2   43    1 1    
     3   44    1 1    
     4   45    1 1    
     5    3    2 1    
     6    6    2 1    
     7   28    2 1    
     8    4    3 ar   
     9    5    3 ar   
    10    7    6 1    
    11   29    6 1    
    12   30    6 1    
    13    8    7 1    
    14   31    7 1    
    15   32    7 1    
    16    9    8 1    
    17   10    8 1    
    18   46    9 1    
    19   47    9 1    
    20   48    9 1    
    21   11   10 1    
    22   33   10 1    
    23   34   10 1    
    24   12   11 1    
    25   13   11 1    
    26   35   11 1    
    27   17   12 1    
    28   14   13 1    
    29   15   13 1    
    30   36   13 1    
    31   49   14 1    
    32   16   15 1    
    33   17   15 1    
    34   37   15 1    
    35   50   16 1    
    36   18   17 1    
    37   38   17 1    
    38   19   18 1    
    39   27   18 1    
    40   20   19 2    
    41   39   19 1    
    42   21   20 1    
    43   22   21 ar   
    44   27   21 ar   
    45   23   22 1    
    46   24   22 ar   
    47   40   23 1    
    48   41   23 1    
    49   25   24 ar   
    50   26   25 ar   
    51   42   25 1    
    52   27   26 ar   
@<TRIPOS>SUBSTRUCTURE
     1 SAM237      1 GROUP   
@<TRIPOS>SET

