#    Name: 1fpu_PRC_2_INTS_M
#    Modification time : Tue Mar 25 01:54:12 2014

@<TRIPOS>MOLECULE
1fpu_PRC_2_INTS_M
   82     0     9     0     0
SMALL
NO_CHARGES


@<TRIPOS>ATOM
      1 CA         18.9415  100.4505   52.5020 C.3       3 GLC5        0.0000 
      2 CA         17.1640  100.0410   51.4930 C.3       9 GLL5        0.0000 
      3 CA         20.7190  100.8600   53.5110 C.3       6 GLP5        0.0000 
      4 CA         17.6255   98.2640   52.7385 C.3       3 GLC5        0.0000 
      5 CA         18.0870   96.4870   53.9840 C.3       6 GLP5        0.0000 
      6 N          18.3050  100.9940   53.3610 N.am      2 SEC2        0.0000 
      7 N          17.0880  100.3970   52.8020 N.am      8 SEL2        0.0000 
      8 N          19.5220  101.5910   53.9200 N.am      5 SEP2        0.0000 
      9 CA         17.1830  101.7120   54.2635 C.3       3 GLC5        0.0000 
     10 CA         16.0730   99.9860   53.6180 C.3       9 GLL5        0.0000 
     11 CA         18.2930  103.4380   54.9090 C.3       6 GLP5        0.0000 
     12 CA         13.3665  100.3015   55.8370 C.3       3 GLC5        0.0000 
     13 CA         13.2270   98.2540   56.2570 C.3       9 GLL5        0.0000 
     14 CA         13.5060  102.3490   55.4170 C.3       6 GLP5        0.0000 
     15 CA         14.3220   99.4855   57.5425 C.3       3 GLC5        0.0000 
     16 CA         15.4170  100.7170   58.8280 C.3       6 GLP5        0.0000 
     17 CA         15.2750   97.5710   55.7520 C.3       3 GLC5        0.0000 
     18 CA         17.3230   96.8880   55.2470 C.3       6 GLP5        0.0000 
     19 CA         10.3480   97.1710   52.9900 C.3       3 GLC5        0.0000 
     20 CA         11.6750   98.0390   54.4500 C.3       9 GLL5        0.0000 
     21 CA          9.0210   96.3030   51.5300 C.3       6 GLP5        0.0000 
     22 CA         14.3570   96.7365   60.0840 C.3       3 GLC5        0.0000 
     23 CA         12.5000   96.8150   59.3540 C.3       9 GLL5        0.0000 
     24 CA         16.2140   96.6580   60.8140 C.3       6 GLP5        0.0000 
     25 CA         14.0035   95.3910   58.6345 C.3       3 GLC5        0.0000 
     26 CA         15.5070   93.9670   57.9150 C.3       6 GLP5        0.0000 
     27 CA         12.3735  101.3275   56.7560 C.3       3 GLC5        0.0000 
     28 CA         11.2410  100.3060   58.0950 C.3       9 GLL5        0.0000 
     29 CA          9.2820  100.2120   58.0335 C.3       3 GLC5        0.0000 
     30 CA          7.3230  100.1180   57.9720 C.3       6 GLP5        0.0000 
     31 CA         12.7670  100.7875   58.8785 C.3       3 GLC5        0.0000 
     32 CA         14.2930  101.2690   59.6620 C.3       6 GLP5        0.0000 
     33 O           9.8770   95.5875   61.3875 O.2       1 ALC1        0.0000 
     34 O          11.5430   95.4160   61.2020 O.2       7 ALL1        0.0000 
     35 O           8.2110   95.7590   61.5730 O.2       4 ALP1        0.0000 
     36 CA         14.6095   92.8040   60.9025 C.3       3 GLC5        0.0000 
     37 CA         13.5860   92.7560   62.8570 C.3       9 GLL5        0.0000 
     38 CA         15.6330   92.8520   58.9480 C.3       6 GLP5        0.0000 
     39 CA         14.4185   92.6030   65.3395 C.3       3 GLC5        0.0000 
     40 CA         13.4460   91.6570   63.7390 C.3       9 GLL5        0.0000 
     41 CA         15.3910   93.5490   66.9400 C.3       6 GLP5        0.0000 
     42 CA         11.6885   91.7970   66.3170 C.3       3 GLC5        0.0000 
     43 CA         12.1640   91.3450   64.2180 C.3       9 GLL5        0.0000 
     44 CA         11.2130   92.2490   68.4160 C.3       6 GLP5        0.0000 
     45 CA          9.3200   93.9345   63.2745 C.3       3 GLC5        0.0000 
     46 CA         11.1990   93.1640   62.9780 C.3       9 GLL5        0.0000 
     47 CA          7.4410   94.7050   63.5710 C.3       6 GLP5        0.0000 
     48 CA         14.0702  100.1270   51.4267 C.3       3 GLC5        0.0000 
     49 CA         15.1020   98.7720   51.7610 C.3       9 GLL5        0.0000 
     50 CA         12.5020  101.2590   51.5070 C.3       6 GLP5        0.0000 
     51 CA         17.7728   98.5112   50.1382 C.3       3 GLC5        0.0000 
     52 CA         16.1750   99.2180   50.9320 C.3       9 GLL5        0.0000 
     53 CA         18.8760   97.3930   49.0640 C.3       6 GLP5        0.0000 
     54 CA         16.4423   97.3040   52.2168 C.3       3 GLC5        0.0000 
     55 CA         17.2460   95.6130   53.0870 C.3       6 GLP5        0.0000 
     56 CA         14.0295  100.4145   52.4385 C.3       3 GLC5        0.0000 
     57 CA         15.0410   99.1540   53.1220 C.3       9 GLL5        0.0000 
     58 CA         14.5315  100.9595   54.3935 C.3       3 GLC5        0.0000 
     59 CA         13.4125  100.4652   54.5940 C.3       3 GLC5        0.0000 
     60 CA         12.6740   98.4300   53.5310 C.3       9 GLL5        0.0000 
     61 CA         16.0418   98.0198   54.4688 C.3       3 GLC5        0.0000 
     62 CA         13.9640   98.7330   54.0110 C.3       9 GLL5        0.0000 
     63 CA         12.4995   99.7846   52.8087 C.3       3 GLC5        0.0000 
     64 CA         10.9393   99.4818   53.8918 C.3       3 GLC5        0.0000 
     65 CA          9.7040  100.7290   53.7930 C.3       6 GLP5        0.0000 
     66 CA         13.1202   99.8840   59.1775 C.3       3 GLC5        0.0000 
     67 CA         11.4400   98.9870   58.8170 C.3       9 GLL5        0.0000 
     68 CA          9.3010   97.1502   59.6565 C.3       3 GLC5        0.0000 
     69 CA         10.5420   97.5500   60.6020 C.3       9 GLL5        0.0000 
     70 CA          7.5690   97.2370   58.8190 C.3       6 GLP5        0.0000 
     71 CA          9.9690   99.4718   61.3218 C.3       3 GLC5        0.0000 
     72 CA          9.4230  100.8060   62.4230 C.3       6 GLP5        0.0000 
     73 CA          9.2665   98.0465   59.0735 C.3       3 GLC5        0.0000 
     74 CA         10.4880   98.7250   59.8390 C.3       9 GLL5        0.0000 
     75 CA         11.0577   97.5981   61.9832 C.3       3 GLC5        0.0000 
     76 CA         11.3550   97.3020   63.8000 C.3       6 GLP5        0.0000 
     77 CA         11.8212   94.8565   63.9905 C.3       3 GLC5        0.0000 
     78 CA         12.4560   93.5280   62.4620 C.3       9 GLL5        0.0000 
     79 CA         11.8150   96.3670   65.2610 C.3       6 GLP5        0.0000 
     80 CA         12.1865   91.3510   61.9838 C.3       3 GLC5        0.0000 
     81 CA         11.5680   91.2010   59.9890 C.3       6 GLP5        0.0000 
     82 CA         11.8390   92.1770   61.4039 C.3       3 GLC5        0.0000 
@<TRIPOS>BOND
@<TRIPOS>SUBSTRUCTURE
     1 ALC1       33 GROUP        1 X    ALC  0     ROOT ALC X 1
     2 SEC2        6 GROUP        1 X    SEC  0     **** SEC X 2
     3 GLC5        1 GROUP        1 X    GLC  0     **** GLC X 6
     4 ALP1       35 GROUP        1 Y    ALP  0     ROOT ALP Y 8
     5 SEP2        8 GROUP        1 Y    SEP  0     **** SEP Y 9
     6 GLP5        3 GROUP        1 Y    GLP  0     **** GLP Y 13
     7 ALL1       34 GROUP        1 Z    ALL  0     ROOT ALL Z 15
     8 SEL2        7 GROUP        1 Z    SEL  0     **** SEL Z 16
     9 GLL5        2 GROUP        1 Z    GLL  0     **** GLL Z 20
@<TRIPOS>SET

