#    Name: 1fpu_PRC_2_ligand
#    Modification time : Tue Mar 25 01:54:13 2014

@<TRIPOS>MOLECULE
1fpu_PRC_2_ligand
   47    50     1     0     0
SMALL
NO_CHARGES


@<TRIPOS>ATOM
      1 C1         16.1750   99.2180   50.9320 C.ar      1 PRC2        0.0000 
      2 C2         17.1640  100.0410   51.4930 C.ar      1 PRC2        0.0000 
      3 N3         17.0880  100.3970   52.8020 N.ar      1 PRC2        0.0000 
      4 C4         16.0730   99.9860   53.6180 C.ar      1 PRC2        0.0000 
      5 C5         15.0410   99.1540   53.1220 C.ar      1 PRC2        0.0000 
      6 C6         15.1020   98.7720   51.7610 C.ar      1 PRC2        0.0000 
      7 C7         13.9640   98.7330   54.0110 C.ar      1 PRC2        0.0000 
      8 N8         14.1870   98.6310   55.3720 N.ar      1 PRC2        0.0000 
      9 C9         13.2270   98.2540   56.2570 C.ar      1 PRC2        0.0000 
     10 N10        11.9740   97.9620   55.7730 N.ar      1 PRC2        0.0000 
     11 C11        11.6750   98.0390   54.4500 C.ar      1 PRC2        0.0000 
     12 C12        12.6740   98.4300   53.5310 C.ar      1 PRC2        0.0000 
     13 N13        13.4520   98.1540   57.5890 N.pl3     1 PRC2        0.0000 
     14 C14        12.4550   98.0110   58.5690 C.ar      1 PRC2        0.0000 
     15 C15        12.5000   96.8150   59.3540 C.ar      1 PRC2        0.0000 
     16 C16        11.5240   96.5770   60.3860 C.ar      1 PRC2        0.0000 
     17 C17        10.5420   97.5500   60.6020 C.ar      1 PRC2        0.0000 
     18 C18        10.4880   98.7250   59.8390 C.ar      1 PRC2        0.0000 
     19 C19        11.4400   98.9870   58.8170 C.ar      1 PRC2        0.0000 
     20 C20        11.2410  100.3060   58.0950 C.3       1 PRC2        0.0000 
     21 N21        11.5430   95.4160   61.2020 N.am      1 PRC2        0.0000 
     22 C22        12.6090   94.6770   61.5500 C.2       1 PRC2        0.0000 
     23 C23        12.4560   93.5280   62.4620 C.ar      1 PRC2        0.0000 
     24 C25        13.5860   92.7560   62.8570 C.ar      1 PRC2        0.0000 
     25 C26        13.4460   91.6570   63.7390 C.ar      1 PRC2        0.0000 
     26 C27        12.1640   91.3450   64.2180 C.ar      1 PRC2        0.0000 
     27 N28        11.0870   92.0980   63.8320 N.ar      1 PRC2        0.0000 
     28 C29        11.1990   93.1640   62.9780 C.ar      1 PRC2        0.0000 
     29 O29        13.7490   94.9180   61.1710 O.2       1 PRC2        0.0000 
     30 H          16.2121   98.9404   49.9606 H         1 PRC2        0.0000 
     31 H          17.9396  100.3647   50.8953 H         1 PRC2        0.0000 
     32 H          16.0384  100.2731   54.6096 H         1 PRC2        0.0000 
     33 H          14.3761   98.1733   51.3640 H         1 PRC2        0.0000 
     34 H          10.7360   97.8194   54.0959 H         1 PRC2        0.0000 
     35 H          12.4644   98.4914   52.5402 H         1 PRC2        0.0000 
     36 H          14.4596   98.1841   57.9424 H         1 PRC2        0.0000 
     37 H          13.2274   96.1235   59.1842 H         1 PRC2        0.0000 
     38 H           9.8350   97.3993   61.3457 H         1 PRC2        0.0000 
     39 H           9.7458   99.4180   60.0166 H         1 PRC2        0.0000 
     40 H          10.5692   95.1131   61.5741 H         1 PRC2        0.0000 
     41 H          14.5133   93.0026   62.4953 H         1 PRC2        0.0000 
     42 H          14.2528   91.1142   64.0134 H         1 PRC2        0.0000 
     43 H          12.0491   90.5473   64.8588 H         1 PRC2        0.0000 
     44 H          10.3698   93.7106   62.7034 H         1 PRC2        0.0000 
     45 H          12.0398  100.9013   58.1821 H         1 PRC2        0.0000 
     46 H          11.0795  100.1734   57.1171 H         1 PRC2        0.0000 
     47 H          10.4575  100.8122   58.4555 H         1 PRC2        0.0000 
@<TRIPOS>BOND
     1    2    1 ar   
     2    6    1 ar   
     3   30    1 1    
     4    3    2 ar   
     5   31    2 1    
     6    4    3 ar   
     7    5    4 ar   
     8   32    4 1    
     9    6    5 ar   
    10    7    5 1    
    11   33    6 1    
    12    8    7 ar   
    13   12    7 ar   
    14    9    8 ar   
    15   10    9 ar   
    16   13    9 1    
    17   11   10 ar   
    18   12   11 ar   
    19   34   11 1    
    20   35   12 1    
    21   14   13 1    
    22   36   13 1    
    23   15   14 ar   
    24   19   14 ar   
    25   16   15 ar   
    26   37   15 1    
    27   17   16 ar   
    28   21   16 1    
    29   18   17 ar   
    30   38   17 1    
    31   19   18 ar   
    32   39   18 1    
    33   20   19 1    
    34   45   20 1    
    35   46   20 1    
    36   47   20 1    
    37   22   21 am   
    38   40   21 1    
    39   23   22 1    
    40   29   22 2    
    41   24   23 ar   
    42   28   23 ar   
    43   25   24 ar   
    44   41   24 1    
    45   26   25 ar   
    46   42   25 1    
    47   27   26 ar   
    48   43   26 1    
    49   28   27 ar   
    50   44   28 1    
@<TRIPOS>SUBSTRUCTURE
     1 PRC2        1 GROUP   
@<TRIPOS>SET

