#    Name: 3l70_JZV_1_INTS_M
#    Modification time : Mon Mar 24 21:04:26 2014

@<TRIPOS>MOLECULE
3l70_JZV_1_INTS_M
   82     0     6     0     0
SMALL
NO_CHARGES


@<TRIPOS>ATOM
      1 CA          5.2285  134.1210   78.6555 C.3       2 GLC5        0.0000 
      2 CA          5.8250  135.2120   79.9790 C.3       6 GLL5        0.0000 
      3 CA          4.6320  133.0300   77.3320 C.3       4 GLP5        0.0000 
      4 CA          6.1425  137.8960   78.2080 C.3       2 GLC5        0.0000 
      5 CA          6.5740  136.0240   79.1320 C.3       6 GLL5        0.0000 
      6 CA          5.7110  139.7680   77.2840 C.3       4 GLP5        0.0000 
      7 CA          7.7165  137.6825   77.9470 C.3       2 GLC5        0.0000 
      8 CA          7.9560  135.8830   79.0880 C.3       6 GLL5        0.0000 
      9 CA          7.4770  139.4820   76.8060 C.3       4 GLP5        0.0000 
     10 CA         10.8025  135.2455   83.5515 C.3       2 GLC5        0.0000 
     11 CA         11.1700  136.5570   82.6670 C.3       6 GLL5        0.0000 
     12 CA         10.4350  133.9340   84.4360 C.3       4 GLP5        0.0000 
     13 CA         11.5300  136.9960   80.5700 C.3       2 GLC5        0.0000 
     14 CA         11.8900  137.4350   78.4730 C.3       4 GLP5        0.0000 
     15 CA         12.4275  137.4010   83.2095 C.3       2 GLC5        0.0000 
     16 CA         13.6850  138.2450   83.7520 C.3       4 GLP5        0.0000 
     17 CA          9.1965  137.2765   82.3935 C.3       2 GLC5        0.0000 
     18 CA          7.2230  137.9960   82.1200 C.3       4 GLP5        0.0000 
     19 CA         10.2540  137.3850   83.9590 C.3       2 GLC5        0.0000 
     20 CA          9.3380  138.2130   85.2510 C.3       4 GLP5        0.0000 
     21 CA         12.7220  134.9155   77.8340 C.3       2 GLC5        0.0000 
     22 CA         12.3570  133.0340   77.5660 C.3       6 GLL5        0.0000 
     23 CA         13.0870  136.7970   78.1020 C.3       4 GLP5        0.0000 
     24 CA         11.9780  133.4590   75.9135 C.3       2 GLC5        0.0000 
     25 CA         11.5990  133.8840   74.2610 C.3       4 GLP5        0.0000 
     26 CA         12.7230  131.3700   76.8635 C.3       2 GLC5        0.0000 
     27 CA         13.0890  129.7060   76.1610 C.3       4 GLP5        0.0000 
     28 CA         11.8010  131.6875   78.6730 C.3       2 GLC5        0.0000 
     29 CA         11.2450  130.3410   79.7800 C.3       4 GLP5        0.0000 
     30 N           9.2820  133.5135   76.4100 N.am      1 SEC2        0.0000 
     31 N           9.9400  133.7950   77.6800 N.am      5 SEL2        0.0000 
     32 N           8.6240  133.2320   75.1400 N.am      3 SEP2        0.0000 
     33 CA         11.7715  131.1015   84.7800 C.3       2 GLC5        0.0000 
     34 CA         10.9830  129.3850   85.3850 C.3       6 GLL5        0.0000 
     35 CA         12.5600  132.8180   84.1750 C.3       4 GLP5        0.0000 
     36 CA          9.4235  133.5330   83.0925 C.3       2 GLC5        0.0000 
     37 CA          8.4120  133.1320   81.7490 C.3       6 GLL5        0.0000 
     38 CA          9.2250  131.7430   80.4285 C.3       2 GLC5        0.0000 
     39 CA         10.0380  130.3540   79.1080 C.3       4 GLP5        0.0000 
     40 CA         13.7490  128.0070   84.8595 C.3       2 GLC5        0.0000 
     41 CA         11.6970  127.3810   85.0250 C.3       6 GLL5        0.0000 
     42 CA         15.8010  128.6330   84.6940 C.3       4 GLP5        0.0000 
     43 CA          5.5990  130.8805   82.9605 C.3       2 GLC5        0.0000 
     44 CA          5.6400  129.5180   81.6960 C.3       6 GLL5        0.0000 
     45 CA          5.5580  132.2430   84.2250 C.3       4 GLP5        0.0000 
     46 CA          5.4860  127.4105   80.9750 C.3       2 GLC5        0.0000 
     47 CA          5.3320  125.3030   80.2540 C.3       4 GLP5        0.0000 
     48 CA          4.0630  130.5110   81.0815 C.3       2 GLC5        0.0000 
     49 CA          2.4860  131.5040   80.4670 C.3       4 GLP5        0.0000 
     50 CA          5.0745  128.5040   83.4590 C.3       2 GLC5        0.0000 
     51 CA          4.5090  127.4900   85.2220 C.3       4 GLP5        0.0000 
     52 CA         13.9100  128.7760   84.1165 C.3       2 GLC5        0.0000 
     53 CA         12.0190  128.9190   83.5390 C.3       6 GLL5        0.0000 
     54 CA         11.9615  129.0445   81.7505 C.3       2 GLC5        0.0000 
     55 CA         11.9040  129.1700   79.9620 C.3       4 GLP5        0.0000 
     56 CA          6.7112  136.8070   80.8377 C.3       2 GLC5        0.0000 
     57 CA          4.6137  136.8815   79.9062 C.3       2 GLC5        0.0000 
     58 CA          3.0280  138.1450   80.2570 C.3       4 GLP5        0.0000 
     59 CA          4.7923  135.5840   78.0358 C.3       2 GLC5        0.0000 
     60 CA          3.3850  135.5500   76.5160 C.3       4 GLP5        0.0000 
     61 CA          7.0265  134.8768   77.8315 C.3       2 GLC5        0.0000 
     62 CA          6.7880  133.8000   76.5530 C.3       4 GLP5        0.0000 
     63 CA          7.7475  136.7032   80.8042 C.3       2 GLC5        0.0000 
     64 CA          7.1857  136.0978   81.4405 C.3       2 GLC5        0.0000 
     65 CA          7.8400  134.1310   80.7420 C.3       6 GLL5        0.0000 
     66 CA          7.3976  133.5854   78.9020 C.3       2 GLC5        0.0000 
     67 CA          6.4570  134.2680   80.7800 C.3       6 GLL5        0.0000 
     68 CA          6.9270  132.6020   77.4790 C.3       4 GLP5        0.0000 
     69 CA          7.1651  133.5159   82.8335 C.3       2 GLC5        0.0000 
     70 CA          6.5500  133.3660   84.4120 C.3       4 GLP5        0.0000 
     71 CA         12.5408  130.3230   83.6860 C.3       2 GLC5        0.0000 
     72 CA         13.4890  131.9580   83.3780 C.3       4 GLP5        0.0000 
     73 CA          6.5790  126.1447   81.5120 C.3       2 GLC5        0.0000 
     74 CA          8.1930  126.4840   83.0800 C.3       6 GLL5        0.0000 
     75 CA          6.2375  126.3338   83.1375 C.3       2 GLC5        0.0000 
     76 CA          7.4590  127.4890   82.4600 C.3       6 GLL5        0.0000 
     77 CA          4.6490  125.6810   83.5050 C.3       4 GLP5        0.0000 
     78 CA          9.6875  125.6425   81.8570 C.3       2 GLC5        0.0000 
     79 CA         10.5880  124.6410   80.3100 C.3       4 GLP5        0.0000 
     80 CA         12.6691  127.1735   83.0560 C.3       2 GLC5        0.0000 
     81 CA         11.1660  128.4570   84.4490 C.3       6 GLL5        0.0000 
     82 CA         13.6130  125.9280   81.9740 C.3       4 GLP5        0.0000 
@<TRIPOS>BOND
@<TRIPOS>SUBSTRUCTURE
     1 SEC2       30 GROUP        1 X    SEC  0     ROOT SEC X 2
     2 GLC5        1 GROUP        1 X    GLC  0     **** GLC X 6
     3 SEP2       32 GROUP        1 Y    SEP  0     ROOT SEP Y 9
     4 GLP5        3 GROUP        1 Y    GLP  0     **** GLP Y 13
     5 SEL2       31 GROUP        1 Z    SEL  0     ROOT SEL Z 16
     6 GLL5        2 GROUP        1 Z    GLL  0     **** GLL Z 20
@<TRIPOS>SET

