#    Name: 3l70_JZV_1_ligand
#    Modification time : Mon Mar 24 21:04:27 2014

@<TRIPOS>MOLECULE
3l70_JZV_1_ligand
   48    49     1     0     0
SMALL
NO_CHARGES


@<TRIPOS>ATOM
      1 CAA         5.8250  135.2120   79.9790 C.ar      1 JZV2001     0.0000 
      2 CAB         6.5740  136.0240   79.1320 C.ar      1 JZV2001     0.0000 
      3 CAC         7.9560  135.8830   79.0880 C.ar      1 JZV2001     0.0000 
      4 NAD        10.7360  135.3660   80.7740 N.2       1 JZV2001     0.0000 
      5 OAE        10.1560  136.0320   81.8070 O.3       1 JZV2001     0.0000 
      6 CAF        11.1700  136.5570   82.6670 C.3       1 JZV2001     0.0000 
      7 CAG         6.4570  134.2680   80.7800 C.ar      1 JZV2001     0.0000 
      8 CAH         7.8400  134.1310   80.7420 C.ar      1 JZV2001     0.0000 
      9 CAI         8.5880  134.9380   79.8890 C.ar      1 JZV2001     0.0000 
     10 CAJ         9.9700  134.8090   79.8410 C.2       1 JZV2001     0.0000 
     11 CAK        10.6140  134.0630   78.6730 C.2       1 JZV2001     0.0000 
     12 OAL        11.9350  133.7400   78.7360 O.3       1 JZV2001     0.0000 
     13 CAM        12.3570  133.0340   77.5660 C.3       1 JZV2001     0.0000 
     14 OAN         9.9400  133.7950   77.6800 O.2       1 JZV2001     0.0000 
     15 FAO        10.9830  129.3850   85.3850 F         1 JZV2001     0.0000 
     16 CAP         8.4120  133.1320   81.7490 C.3       1 JZV2001     0.0000 
     17 OAQ         8.5480  131.7410   81.4480 O.3       1 JZV2001     0.0000 
     18 NAR         7.3880  131.0330   81.4760 N.2       1 JZV2001     0.0000 
     19 CAS         7.1270  129.8050   81.9090 C.2       1 JZV2001     0.0000 
     20 CAT         7.9070  128.8050   82.4870 C.ar      1 JZV2001     0.0000 
     21 CAU         9.0960  129.1170   83.1340 C.ar      1 JZV2001     0.0000 
     22 CAV         9.8390  128.1170   83.7580 C.ar      1 JZV2001     0.0000 
     23 CAW        11.1660  128.4570   84.4490 C.3       1 JZV2001     0.0000 
     24 FAX        11.6970  127.3810   85.0250 F         1 JZV2001     0.0000 
     25 CAY         5.6400  129.5180   81.6960 C.3       1 JZV2001     0.0000 
     26 CAZ         7.4590  127.4890   82.4600 C.ar      1 JZV2001     0.0000 
     27 CBA         8.1930  126.4840   83.0800 C.ar      1 JZV2001     0.0000 
     28 CBB         9.3810  126.8040   83.7280 C.ar      1 JZV2001     0.0000 
     29 FBC        12.0190  128.9190   83.5390 F         1 JZV2001     0.0000 
     30 H           4.8012  135.3115   80.0116 H         1 JZV2001     0.0000 
     31 H           6.1073  136.7228   78.5435 H         1 JZV2001     0.0000 
     32 H           8.5136  136.4795   78.4609 H         1 JZV2001     0.0000 
     33 H           5.8989  133.6678   81.4039 H         1 JZV2001     0.0000 
     34 H           7.7982  133.2650   82.7138 H         1 JZV2001     0.0000 
     35 H           9.4271  133.5609   82.0822 H         1 JZV2001     0.0000 
     36 H           9.4312  130.0906   83.1536 H         1 JZV2001     0.0000 
     37 H           6.5779  127.2572   81.9777 H         1 JZV2001     0.0000 
     38 H           7.8610  125.5146   83.0596 H         1 JZV2001     0.0000 
     39 H           9.9278  126.0608   84.1908 H         1 JZV2001     0.0000 
     40 H          11.7472  135.8334   83.0455 H         1 JZV2001     0.0000 
     41 H          11.7740  137.1916   82.1848 H         1 JZV2001     0.0000 
     42 H          10.7792  137.0552   83.4410 H         1 JZV2001     0.0000 
     43 H          13.3263  132.7918   77.6078 H         1 JZV2001     0.0000 
     44 H          11.8472  132.1827   77.4419 H         1 JZV2001     0.0000 
     45 H          12.2262  133.5775   76.7369 H         1 JZV2001     0.0000 
     46 H           5.3848  129.5773   80.7309 H         1 JZV2001     0.0000 
     47 H           5.3899  128.6019   82.0095 H         1 JZV2001     0.0000 
     48 H           5.0619  130.1656   82.1924 H         1 JZV2001     0.0000 
@<TRIPOS>BOND
     1    2    1 ar   
     2    7    1 ar   
     3   30    1 1    
     4    3    2 ar   
     5   31    2 1    
     6    9    3 ar   
     7   32    3 1    
     8    5    4 1    
     9   10    4 2    
    10    6    5 1    
    11   40    6 1    
    12   41    6 1    
    13   42    6 1    
    14    8    7 ar   
    15   33    7 1    
    16    9    8 ar   
    17   16    8 1    
    18   10    9 1    
    19   11   10 1    
    20   12   11 1    
    21   14   11 2    
    22   13   12 1    
    23   43   13 1    
    24   44   13 1    
    25   45   13 1    
    26   23   15 1    
    27   17   16 1    
    28   34   16 1    
    29   35   16 1    
    30   18   17 1    
    31   19   18 2    
    32   20   19 1    
    33   25   19 1    
    34   21   20 ar   
    35   26   20 ar   
    36   22   21 ar   
    37   36   21 1    
    38   23   22 1    
    39   28   22 ar   
    40   24   23 1    
    41   29   23 1    
    42   46   25 1    
    43   47   25 1    
    44   48   25 1    
    45   27   26 ar   
    46   37   26 1    
    47   28   27 ar   
    48   38   27 1    
    49   39   28 1    
@<TRIPOS>SUBSTRUCTURE
     1 JZV2001     1 GROUP   
@<TRIPOS>SET

