#    Name: 4dk7_0KS_1_INTS_M
#    Modification time : Mon Apr  7 22:47:59 2014

@<TRIPOS>MOLECULE
4dk7_0KS_1_INTS_M
   76     0     6     0     0
SMALL
NO_CHARGES


@<TRIPOS>ATOM
      1 CA         40.0450   67.8715   37.5375 C.3       2 GLC5        0.0000 
      2 CA         39.6690   68.1470   39.6380 C.3       6 GLL5        0.0000 
      3 CA         40.4210   67.5960   35.4370 C.3       4 GLP5        0.0000 
      4 N          35.1035   65.2865   38.2405 N.am      1 SEC2        0.0000 
      5 N          35.6080   65.4530   39.5150 N.am      5 SEL2        0.0000 
      6 N          34.5990   65.1200   36.9660 N.am      3 SEP2        0.0000 
      7 CA         38.1580   69.6465   38.4430 C.3       2 GLC5        0.0000 
      8 CA         36.9780   67.9490   39.1720 C.3       6 GLL5        0.0000 
      9 CA         39.3380   71.3440   37.7140 C.3       4 GLP5        0.0000 
     10 CA         35.6460   68.9785   38.9275 C.3       2 GLC5        0.0000 
     11 CA         34.3140   70.0080   38.6830 C.3       4 GLP5        0.0000 
     12 CA         37.2325   69.3455   40.8560 C.3       2 GLC5        0.0000 
     13 CA         37.4870   70.7420   42.5400 C.3       4 GLP5        0.0000 
     14 CA         35.9895   68.1100   41.0905 C.3       2 GLC5        0.0000 
     15 CA         35.0010   68.2710   43.0090 C.3       4 GLP5        0.0000 
     16 CA         46.3480   67.0630   43.3740 C.3       2 GLC5        0.0000 
     17 CA         45.2500   67.5470   41.4750 C.3       6 GLL5        0.0000 
     18 CA         47.4460   66.5790   45.2730 C.3       4 GLP5        0.0000 
     19 CA         44.9625   65.1275   40.1035 C.3       2 GLC5        0.0000 
     20 CA         43.8540   66.8780   39.9130 C.3       6 GLL5        0.0000 
     21 CA         46.0710   63.3770   40.2940 C.3       4 GLP5        0.0000 
     22 CA         43.2105   64.1805   42.4635 C.3       2 GLC5        0.0000 
     23 CA         43.6550   66.1270   41.9650 C.3       6 GLL5        0.0000 
     24 CA         42.7660   62.2340   42.9620 C.3       4 GLP5        0.0000 
     25 CA         45.3075   67.8295   44.5025 C.3       2 GLC5        0.0000 
     26 CA         44.4370   69.4030   43.2610 C.3       6 GLL5        0.0000 
     27 CA         46.1780   66.2560   45.7440 C.3       4 GLP5        0.0000 
     28 CA         44.4740   71.4775   42.7940 C.3       2 GLC5        0.0000 
     29 CA         44.5110   73.5520   42.3270 C.3       4 GLP5        0.0000 
     30 CA         46.0325   69.4275   42.4580 C.3       2 GLC5        0.0000 
     31 CA         47.6280   69.4520   41.6550 C.3       4 GLP5        0.0000 
     32 CA         44.4945   67.2115   44.8610 C.3       2 GLC5        0.0000 
     33 CA         42.8110   68.1670   43.9780 C.3       6 GLL5        0.0000 
     34 CA         40.2920   70.1395   43.3495 C.3       2 GLC5        0.0000 
     35 CA         42.3410   70.1610   43.1720 C.3       6 GLL5        0.0000 
     36 CA         38.2430   70.1180   43.5270 C.3       4 GLP5        0.0000 
     37 CA         43.4260   71.8565   42.7495 C.3       2 GLC5        0.0000 
     38 N          42.6215   70.5315   40.6055 N.am      1 SEC2        0.0000 
     39 N          43.4470   69.5230   40.6980 N.am      5 SEL2        0.0000 
     40 N          41.7960   71.5400   40.5130 N.am      3 SEP2        0.0000 
     41 CA         39.6172   66.6920   43.8100 C.3       2 GLC5        0.0000 
     42 CA         40.6920   67.3820   42.1320 C.3       6 GLL5        0.0000 
     43 CA         39.2050   66.1570   45.6560 C.3       4 GLP5        0.0000 
     44 CA         39.8323   69.8225   38.7602 C.3       2 GLC5        0.0000 
     45 CA         40.5388   70.0427   40.6219 C.3       2 GLC5        0.0000 
     46 CA         40.6120   71.8770   41.1240 C.3       4 GLP5        0.0000 
     47 CA         38.4823   65.7660   35.6090 C.3       2 GLC5        0.0000 
     48 CA         37.6440   64.6020   37.4290 C.3       6 GLL5        0.0000 
     49 CA         38.9150   67.2510   34.2700 C.3       4 GLP5        0.0000 
     50 CA         39.8790   63.9980   34.7717 C.3       2 GLC5        0.0000 
     51 CA         38.4550   63.9600   36.4670 C.3       6 GLL5        0.0000 
     52 CA         40.7140   64.3610   32.8610 C.3       4 GLP5        0.0000 
     53 CA         40.8800   61.6788   37.6658 C.3       2 GLC5        0.0000 
     54 CA         39.6330   63.3100   36.8980 C.3       6 GLL5        0.0000 
     55 CA         41.9330   60.0590   37.7500 C.3       4 GLP5        0.0000 
     56 CA         41.5700   63.6958   36.9817 C.3       2 GLC5        0.0000 
     57 CA         40.0210   63.2870   38.2650 C.3       6 GLL5        0.0000 
     58 CA         43.3130   64.0930   36.3820 C.3       4 GLP5        0.0000 
     59 CA         43.7710   66.0855   39.0125 C.3       2 GLC5        0.0000 
     60 CA         43.9500   67.2380   41.2270 C.3       6 GLL5        0.0000 
     61 CA         43.6400   65.1130   37.4550 C.3       4 GLP5        0.0000 
     62 CA         46.1140   68.4222   41.5030 C.3       2 GLC5        0.0000 
     63 CA         42.0635   68.0323   45.0365 C.3       2 GLC5        0.0000 
     64 CA         43.1470   69.0520   43.0080 C.3       6 GLL5        0.0000 
     65 CA         41.1480   67.4550   46.5800 C.3       4 GLP5        0.0000 
     66 CA         45.6775   66.9566   39.4535 C.3       2 GLC5        0.0000 
     67 CA         47.1280   66.7780   38.2750 C.3       4 GLP5        0.0000 
     68 CA         44.1354   68.6227   39.1521 C.3       2 GLC5        0.0000 
     69 CA         44.6070   69.8850   37.6560 C.3       4 GLP5        0.0000 
     70 CA         45.6672   65.7499   41.8735 C.3       2 GLC5        0.0000 
     71 CA         47.2070   64.7400   42.0890 C.3       4 GLP5        0.0000 
     72 CA         41.6593   70.6663   41.9235 C.3       2 GLC5        0.0000 
     73 CA         41.9790   70.3376   44.7062 C.3       2 GLC5        0.0000 
     74 CA         41.2980   71.2900   46.0800 C.3       4 GLP5        0.0000 
     75 CA         44.1666   69.6681   44.7006 C.3       2 GLC5        0.0000 
     76 CA         45.5120   69.9070   46.0370 C.3       4 GLP5        0.0000 
@<TRIPOS>BOND
@<TRIPOS>SUBSTRUCTURE
     1 SEC2        4 GROUP        1 X    SEC  0     ROOT SEC X 2
     2 GLC5        1 GROUP        1 X    GLC  0     **** GLC X 6
     3 SEP2        6 GROUP        1 Y    SEP  0     ROOT SEP Y 9
     4 GLP5        3 GROUP        1 Y    GLP  0     **** GLP Y 13
     5 SEL2        5 GROUP        1 Z    SEL  0     ROOT SEL Z 16
     6 GLL5        2 GROUP        1 Z    GLL  0     **** GLL Z 20
@<TRIPOS>SET

