#    Name: 4dk7_0KS_1_ligand
#    Modification time : Mon Apr  7 22:47:59 2014

@<TRIPOS>MOLECULE
4dk7_0KS_1_ligand
   40    41     1     0     0
SMALL
NO_CHARGES


@<TRIPOS>ATOM
      1 C1         41.5400   68.0850   41.2280 C.ar      1 0KS501      0.0000 
      2 C2         40.6920   67.3820   42.1320 C.ar      1 0KS501      0.0000 
      3 C3         40.9840   68.4550   39.9750 C.ar      1 0KS501      0.0000 
      4 C4         39.3670   67.0720   41.7960 C.ar      1 0KS501      0.0000 
      5 C5         39.6690   68.1470   39.6380 C.ar      1 0KS501      0.0000 
      6 C6         38.8240   67.4450   40.5480 C.ar      1 0KS501      0.0000 
      7 N1         37.4590   67.0790   40.2750 N.pl3     1 0KS501      0.0000 
      8 S2         36.9630   65.4040   40.0170 S.o2      1 0KS501      0.0000 
      9 O4         35.6080   65.4530   39.5150 O.2       1 0KS501      0.0000 
     10 O5         37.1310   64.7550   41.2970 O.2       1 0KS501      0.0000 
     11 C8         38.0180   64.5890   38.8050 C.ar      1 0KS501      0.0000 
     12 C9         39.2110   63.9300   39.2230 C.ar      1 0KS501      0.0000 
     13 C10        37.6440   64.6020   37.4290 C.ar      1 0KS501      0.0000 
     14 C11        38.4550   63.9600   36.4670 C.ar      1 0KS501      0.0000 
     15 C12        40.0210   63.2870   38.2650 C.ar      1 0KS501      0.0000 
     16 C13        39.6330   63.3100   36.8980 C.ar      1 0KS501      0.0000 
     17 C7         36.9780   67.9490   39.1720 C.3       1 0KS501      0.0000 
     18 C18        42.9970   68.4480   41.5400 C.3       1 0KS501      0.0000 
     19 C19        43.9500   67.2380   41.2270 C.3       1 0KS501      0.0000 
     20 C20        43.1470   69.0520   43.0080 C.3       1 0KS501      0.0000 
     21 F5         45.2500   67.5470   41.4750 F         1 0KS501      0.0000 
     22 F4         43.8540   66.8780   39.9130 F         1 0KS501      0.0000 
     23 F6         43.6550   66.1270   41.9650 F         1 0KS501      0.0000 
     24 F7         44.4370   69.4030   43.2610 F         1 0KS501      0.0000 
     25 F9         42.8110   68.1670   43.9780 F         1 0KS501      0.0000 
     26 F8         42.3410   70.1610   43.1720 F         1 0KS501      0.0000 
     27 O1         43.4470   69.5230   40.6980 O.3       1 0KS501      0.0000 
     28 H          41.0696   67.1004   43.0481 H         1 0KS501      0.0000 
     29 H          41.5821   68.9671   39.3024 H         1 0KS501      0.0000 
     30 H          38.7753   66.5626   42.4696 H         1 0KS501      0.0000 
     31 H          39.2871   68.4230   38.7234 H         1 0KS501      0.0000 
     32 H          39.4693   63.9278   40.2053 H         1 0KS501      0.0000 
     33 H          36.7878   65.0776   37.1447 H         1 0KS501      0.0000 
     34 H          38.1975   63.9655   35.4887 H         1 0KS501      0.0000 
     35 H          40.8733   62.8112   38.5434 H         1 0KS501      0.0000 
     36 H          40.2321   62.8366   36.2020 H         1 0KS501      0.0000 
     37 H          37.0150   68.9172   39.4196 H         1 0KS501      0.0000 
     38 H          37.5275   67.8370   38.3440 H         1 0KS501      0.0000 
     39 H          36.0306   67.7456   38.9248 H         1 0KS501      0.0000 
     40 H          44.0244   70.1004   41.2754 H         1 0KS501      0.0000 
@<TRIPOS>BOND
     1    2    1 ar   
     2    3    1 ar   
     3   18    1 1    
     4    4    2 ar   
     5   28    2 1    
     6    5    3 ar   
     7   29    3 1    
     8    6    4 ar   
     9   30    4 1    
    10    6    5 ar   
    11   31    5 1    
    12    7    6 1    
    13    8    7 1    
    14   17    7 1    
    15    9    8 2    
    16   10    8 2    
    17   11    8 1    
    18   12   11 ar   
    19   13   11 ar   
    20   15   12 ar   
    21   32   12 1    
    22   14   13 ar   
    23   33   13 1    
    24   16   14 ar   
    25   34   14 1    
    26   16   15 ar   
    27   35   15 1    
    28   36   16 1    
    29   37   17 1    
    30   38   17 1    
    31   39   17 1    
    32   19   18 1    
    33   20   18 1    
    34   27   18 1    
    35   21   19 1    
    36   22   19 1    
    37   23   19 1    
    38   24   20 1    
    39   25   20 1    
    40   26   20 1    
    41   40   27 1    
@<TRIPOS>SUBSTRUCTURE
     1 0KS501      1 GROUP   
@<TRIPOS>SET

