#    Name: 3ifc_AMP_2_INTS_M
#    Modification time : Tue Mar 25 16:27:23 2014

@<TRIPOS>MOLECULE
3ifc_AMP_2_INTS_M
   51     0    12     0     0
SMALL
NO_CHARGES


@<TRIPOS>ATOM
      1 NZ        -23.2265  -48.6510   10.7660 N.4       3 LYC4        0.0000 
      2 NZ        -22.7800  -48.7270   12.0230 N.4      11 LYL4        0.0000 
      3 NZ        -23.6730  -48.5750    9.5090 N.4       7 LYP4        0.0000 
      4 N         -23.2265  -48.6510   10.7660 N.am      2 SEC2        0.0000 
      5 N         -22.7800  -48.7270   12.0230 N.am     10 SEL2        0.0000 
      6 N         -23.6730  -48.5750    9.5090 N.am      6 SEP2        0.0000 
      7 NZ        -24.2070  -49.4435   10.8595 N.4       3 LYC4        0.0000 
      8 NZ        -24.7410  -50.3120   12.2100 N.4      11 LYL4        0.0000 
      9 N         -25.1880  -51.5145   12.7985 N.am      2 SEC2        0.0000 
     10 N         -24.7410  -50.3120   12.2100 N.am     10 SEL2        0.0000 
     11 N         -25.6350  -52.7170   13.3870 N.am      6 SEP2        0.0000 
     12 N         -24.2330  -51.6355   11.7355 N.am      2 SEC2        0.0000 
     13 N         -23.7250  -52.9590   11.2610 N.am      6 SEP2        0.0000 
     14 N         -24.2070  -49.4435   10.8595 N.am      2 SEC2        0.0000 
     15 N         -23.1490  -52.1690   14.1515 N.am      2 SEC2        0.0000 
     16 N         -22.8380  -50.4740   13.8680 N.am     10 SEL2        0.0000 
     17 N         -23.4600  -53.8640   14.4350 N.am      6 SEP2        0.0000 
     18 N         -21.3985  -50.3835   14.1620 N.am      2 SEC2        0.0000 
     19 N         -19.9590  -50.2930   14.4560 N.am      6 SEP2        0.0000 
     20 CA        -25.9710  -49.4045   14.2390 C.3       4 GLC5        0.0000 
     21 CA        -25.2460  -47.5500   13.4240 C.3      12 GLL5        0.0000 
     22 CA        -26.6960  -51.2590   15.0540 C.3       8 GLP5        0.0000 
     23 N         -22.6850  -45.7110   13.2310 N.am      2 SEC2        0.0000 
     24 N         -23.5390  -44.8350   13.9410 N.am     10 SEL2        0.0000 
     25 N         -21.8310  -46.5870   12.5210 N.am      6 SEP2        0.0000 
     26 CA        -26.6505  -47.1380   17.6525 C.3       4 GLC5        0.0000 
     27 CA        -25.5280  -46.2180   16.7550 C.3      12 GLL5        0.0000 
     28 CA        -27.7730  -48.0580   18.5500 C.3       8 GLP5        0.0000 
     29 CA        -23.7865  -48.5980   22.1765 C.3       4 GLC5        0.0000 
     30 CA        -22.8260  -48.6280   20.3010 C.3      12 GLL5        0.0000 
     31 CA        -24.7470  -48.5680   24.0520 C.3       8 GLP5        0.0000 
     32 CA        -20.6820  -48.0640   20.3960 C.3       4 GLC5        0.0000 
     33 CA        -18.5380  -47.5000   20.4910 C.3       8 GLP5        0.0000 
     34 O         -22.2150  -50.5345   21.6940 O.2       1 ALC1        0.0000 
     35 O         -22.0720  -49.7330   20.5420 O.2       9 ALL1        0.0000 
     36 O         -22.3580  -51.3360   22.8460 O.2       5 ALP1        0.0000 
     37 O         -21.8405  -50.9080   19.8535 O.2       1 ALC1        0.0000 
     38 O         -21.6090  -52.0830   19.1650 O.2       5 ALP1        0.0000 
     39 CA        -24.2920  -47.5795   22.5220 C.3       4 GLC5        0.0000 
     40 CA        -23.8370  -46.5910   20.9920 C.3      12 GLL5        0.0000 
     41 CA        -23.0840  -44.9625   21.3625 C.3       4 GLC5        0.0000 
     42 CA        -22.3310  -43.3340   21.7330 C.3       8 GLP5        0.0000 
     43 CA        -23.0395  -45.9709   16.5561 C.3       4 GLC5        0.0000 
     44 CA        -24.5590  -45.1520   16.2230 C.3      12 GLL5        0.0000 
     45 CA        -21.1400  -46.1090   16.9570 C.3       8 GLP5        0.0000 
     46 CA        -25.8070  -47.9310   18.7065 C.3       4 GLC5        0.0000 
     47 CA        -23.4330  -48.4160   18.9670 C.3      12 GLL5        0.0000 
     48 CA        -22.4905  -46.9565   17.9100 C.3       4 GLC5        0.0000 
     49 CA        -24.2490  -47.1920   18.7590 C.3      12 GLL5        0.0000 
     50 CA        -24.4391  -49.5200   19.7097 C.3       4 GLC5        0.0000 
     51 CA        -25.1890  -51.1830   20.2230 C.3       8 GLP5        0.0000 
@<TRIPOS>BOND
@<TRIPOS>SUBSTRUCTURE
     1 ALC1       34 GROUP        1 X    ALC  0     ROOT ALC X 1
     2 SEC2        4 GROUP        1 X    SEC  0     **** SEC X 2
     3 LYC4        1 GROUP        1 X    LYC  0     **** LYC X 4
     4 GLC5       20 GROUP        1 X    GLC  0     **** GLC X 6
     5 ALP1       36 GROUP        1 Y    ALP  0     ROOT ALP Y 8
     6 SEP2        6 GROUP        1 Y    SEP  0     **** SEP Y 9
     7 LYP4        3 GROUP        1 Y    LYP  0     **** LYP Y 11
     8 GLP5       22 GROUP        1 Y    GLP  0     **** GLP Y 13
     9 ALL1       35 GROUP        1 Z    ALL  0     ROOT ALL Z 15
    10 SEL2        5 GROUP        1 Z    SEL  0     **** SEL Z 16
    11 LYL4        2 GROUP        1 Z    LYL  0     **** LYL Z 18
    12 GLL5       21 GROUP        1 Z    GLL  0     **** GLL Z 20
@<TRIPOS>SET

