#    Name: 3ifc_AMP_2_ligand
#    Modification time : Tue Mar 25 16:27:24 2014

@<TRIPOS>MOLECULE
3ifc_AMP_2_ligand
   35    37     1     0     0
SMALL
NO_CHARGES


@<TRIPOS>ATOM
      1 P         -23.6370  -49.5420   12.9450 P.3       1 AMP339      0.0000 
      2 O1P       -22.7800  -48.7270   12.0230 O.co2     1 AMP339      0.0000 
      3 O2P       -24.7410  -50.3120   12.2100 O.co2     1 AMP339      0.0000 
      4 O3P       -22.8380  -50.4740   13.8680 O.co2     1 AMP339      0.0000 
      5 O5'       -24.4520  -48.6110   13.9650 O.3       1 AMP339      0.0000 
      6 C5'       -25.2460  -47.5500   13.4240 C.3       1 AMP339      0.0000 
      7 C4'       -25.4430  -46.4150   14.4060 C.3       1 AMP339      0.0000 
      8 O4'       -26.1260  -46.8640   15.5970 O.3       1 AMP339      0.0000 
      9 C3'       -24.1410  -45.7430   14.8880 C.3       1 AMP339      0.0000 
     10 O3'       -23.5390  -44.8350   13.9410 O.3       1 AMP339      0.0000 
     11 C2'       -24.5590  -45.1520   16.2230 C.3       1 AMP339      0.0000 
     12 O2'       -25.1190  -43.8490   16.1110 O.3       1 AMP339      0.0000 
     13 C1'       -25.5280  -46.2180   16.7550 C.3       1 AMP339      0.0000 
     14 N9        -24.6760  -47.2530   17.4780 N.pl3     1 AMP339      0.0000 
     15 C8        -24.1640  -48.3820   16.9150 C.2       1 AMP339      0.0000 
     16 N7        -23.4180  -49.0960   17.8100 N.2       1 AMP339      0.0000 
     17 C5        -23.4330  -48.4160   18.9670 C.ar      1 AMP339      0.0000 
     18 C6        -22.8260  -48.6280   20.3010 C.ar      1 AMP339      0.0000 
     19 N6        -22.0720  -49.7330   20.5420 N.pl3     1 AMP339      0.0000 
     20 N1        -23.0810  -47.6940   21.2240 N.ar      1 AMP339      0.0000 
     21 C2        -23.8370  -46.5910   20.9920 C.ar      1 AMP339      0.0000 
     22 N3        -24.4130  -46.3120   19.7900 N.ar      1 AMP339      0.0000 
     23 C4        -24.2490  -47.1920   18.7590 C.ar      1 AMP339      0.0000 
     24 H         -26.2481  -47.9151   13.1213 H         1 AMP339      0.0000 
     25 H         -24.7822  -47.1305   12.5085 H         1 AMP339      0.0000 
     26 H         -26.0444  -45.6319   13.9298 H         1 AMP339      0.0000 
     27 H         -23.4631  -46.5868   15.1323 H         1 AMP339      0.0000 
     28 H         -23.6829  -45.1882   16.8649 H         1 AMP339      0.0000 
     29 H         -26.2143  -45.7930   17.3923 H         1 AMP339      0.0000 
     30 H         -24.3107  -48.6515   15.9837 H         1 AMP339      0.0000 
     31 H         -21.7225  -49.8326   21.4736 H         1 AMP339      0.0000 
     32 H         -21.9334  -50.3488   19.7664 H         1 AMP339      0.0000 
     33 H         -23.9890  -45.9062   21.7911 H         1 AMP339      0.0000 
     34 H         -24.1618  -44.0537   13.8999 H         1 AMP339      0.0000 
     35 H         -24.6488  -43.3047   16.8058 H         1 AMP339      0.0000 
@<TRIPOS>BOND
     1    2    1 ar   
     2    3    1 ar   
     3    4    1 ar   
     4    5    1 1    
     5    6    5 1    
     6    7    6 1    
     7   24    6 1    
     8   25    6 1    
     9    8    7 1    
    10    9    7 1    
    11   26    7 1    
    12   13    8 1    
    13   10    9 1    
    14   11    9 1    
    15   27    9 1    
    16   34   10 1    
    17   12   11 1    
    18   13   11 1    
    19   28   11 1    
    20   35   12 1    
    21   14   13 1    
    22   29   13 1    
    23   15   14 1    
    24   23   14 1    
    25   16   15 2    
    26   30   15 1    
    27   17   16 1    
    28   18   17 ar   
    29   23   17 ar   
    30   19   18 1    
    31   20   18 ar   
    32   31   19 1    
    33   32   19 1    
    34   21   20 ar   
    35   22   21 ar   
    36   33   21 1    
    37   23   22 ar   
@<TRIPOS>SUBSTRUCTURE
     1 AMP339      1 GROUP   
@<TRIPOS>SET

