#    Name: 2ica_2IC_1_INTS_M
#    Modification time : Tue Mar 25 17:36:57 2014

@<TRIPOS>MOLECULE
2ica_2IC_1_INTS_M
   75     0     3     0     0
SMALL
NO_CHARGES


@<TRIPOS>ATOM
      1 CA         -3.7555    0.6045   29.2560 C.3       1 GLC5        0.0000 
      2 CA         -5.3870   -0.1250   29.6500 C.3       3 GLL5        0.0000 
      3 CA         -2.1240    1.3340   28.8620 C.3       2 GLP5        0.0000 
      4 CA         -3.7925   -0.3695   31.0280 C.3       1 GLC5        0.0000 
      5 CA         -2.1980   -0.6140   32.4060 C.3       2 GLP5        0.0000 
      6 CA        -10.8955    1.4350   22.9785 C.3       1 GLC5        0.0000 
      7 CA        -11.4780    2.4260   24.8100 C.3       3 GLL5        0.0000 
      8 CA        -10.3130    0.4440   21.1470 C.3       2 GLP5        0.0000 
      9 CA         -7.2690   -3.8410   25.2095 C.3       1 GLC5        0.0000 
     10 CA         -9.1980   -3.7090   26.0550 C.3       3 GLL5        0.0000 
     11 CA         -5.3400   -3.9730   24.3640 C.3       2 GLP5        0.0000 
     12 CA         -3.3305   -1.5615   26.3140 C.3       1 GLC5        0.0000 
     13 CA         -5.0550   -1.4000   27.3100 C.3       3 GLL5        0.0000 
     14 CA         -1.6060   -1.7230   25.3180 C.3       2 GLP5        0.0000 
     15 CA         -4.2410   -2.6775   28.7200 C.3       1 GLC5        0.0000 
     16 CA         -3.4270   -3.9550   30.1300 C.3       2 GLP5        0.0000 
     17 CA         -4.8645   -3.2265   26.9110 C.3       1 GLC5        0.0000 
     18 CA         -4.6740   -5.0530   26.5120 C.3       2 GLP5        0.0000 
     19 CA         -4.2450    0.3905   27.1015 C.3       1 GLC5        0.0000 
     20 CA         -3.4350    2.1810   26.8930 C.3       2 GLP5        0.0000 
     21 CA         -6.0730   -2.2330   28.9275 C.3       1 GLC5        0.0000 
     22 CA         -7.0910   -3.0660   30.5450 C.3       2 GLP5        0.0000 
     23 CA         -6.5995   -1.1785   30.5255 C.3       1 GLC5        0.0000 
     24 CA         -6.1080    0.7090   30.5060 C.3       3 GLL5        0.0000 
     25 CA         -9.5790    5.2590   23.7640 C.3       1 GLC5        0.0000 
     26 CA        -11.4910    4.6370   24.1370 C.3       3 GLL5        0.0000 
     27 CA         -7.6670    5.8810   23.3910 C.3       2 GLP5        0.0000 
     28 CA         -9.5085    6.5515   24.2730 C.3       1 GLC5        0.0000 
     29 CA        -11.3500    7.2220   25.1550 C.3       3 GLL5        0.0000 
     30 CA        -10.8870    3.5715   29.7725 C.3       1 GLC5        0.0000 
     31 CA        -12.4870    2.4400   28.9310 C.3       3 GLL5        0.0000 
     32 CA         -9.2870    4.7030   30.6140 C.3       2 GLP5        0.0000 
     33 CA        -13.1665    0.6500   29.9625 C.3       1 GLC5        0.0000 
     34 CA        -13.8460   -1.1400   30.9940 C.3       2 GLP5        0.0000 
     35 CA         -5.2755    2.7550   31.5340 C.3       1 GLC5        0.0000 
     36 CA         -5.5300    0.9450   32.1050 C.3       3 GLL5        0.0000 
     37 CA         -5.0210    4.5650   30.9630 C.3       2 GLP5        0.0000 
     38 CA         -3.8505    0.7135   32.7815 C.3       1 GLC5        0.0000 
     39 CA         -2.1710    0.4820   33.4580 C.3       2 GLP5        0.0000 
     40 CA         -5.6865    1.1660   33.8145 C.3       1 GLC5        0.0000 
     41 CA         -5.8430    1.3870   35.5240 C.3       2 GLP5        0.0000 
     42 CA         -5.0230   -0.9430   33.0755 C.3       1 GLC5        0.0000 
     43 CA         -4.5160   -2.8310   34.0460 C.3       2 GLP5        0.0000 
     44 CA         -5.5217    1.4325   27.9142 C.3       1 GLC5        0.0000 
     45 CA         -5.9170   -0.3460   28.3750 C.3       3 GLL5        0.0000 
     46 CA         -4.5250    2.9200   27.6690 C.3       2 GLP5        0.0000 
     47 CA         -8.3715   -0.3327   30.3560 C.3       1 GLC5        0.0000 
     48 CA         -7.8190    1.1030   28.8260 C.3       3 GLL5        0.0000 
     49 CA         -9.1850   -1.8840   31.2430 C.3       2 GLP5        0.0000 
     50 CA         -6.7385   -1.5329   29.5116 C.3       1 GLC5        0.0000 
     51 CA         -7.1200    0.2360   27.9440 C.3       3 GLL5        0.0000 
     52 CA         -9.6650    4.1022   28.1640 C.3       1 GLC5        0.0000 
     53 CA        -10.7030    2.5370   27.0990 C.3       3 GLL5        0.0000 
     54 CA         -8.5040    4.9630   29.5080 C.3       2 GLP5        0.0000 
     55 CA        -11.3458   -1.7005   24.7638 C.3       1 GLC5        0.0000 
     56 CA        -10.8010    0.2210   25.9750 C.3       3 GLL5        0.0000 
     57 CA        -12.4300   -3.4450   23.9820 C.3       2 GLP5        0.0000 
     58 CA        -12.8380   -1.8610   27.8635 C.3       1 GLC5        0.0000 
     59 CA        -10.8020   -2.0610   26.8730 C.3       3 GLL5        0.0000 
     60 CA        -14.5960   -2.3050   28.8840 C.3       2 GLP5        0.0000 
     61 CA        -11.7550   -2.4310   25.4125 C.3       1 GLC5        0.0000 
     62 CA        -11.3580   -0.7730   26.8130 C.3       3 GLL5        0.0000 
     63 CA         -8.9108   -2.9986   23.8585 C.3       1 GLC5        0.0000 
     64 CA         -9.7150   -2.3790   26.0470 C.3       3 GLL5        0.0000 
     65 CA         -8.5010   -3.1920   21.8840 C.3       2 GLP5        0.0000 
     66 CA         -9.5196   -3.5412   28.1962 C.3       1 GLC5        0.0000 
     67 CA         -9.3110   -4.1180   30.1350 C.3       2 GLP5        0.0000 
     68 CA        -10.8752   -3.1251   24.9075 C.3       1 GLC5        0.0000 
     69 CA         -5.6790    1.9419   28.8283 C.3       1 GLC5        0.0000 
     70 CA         -7.2970    1.3340   30.1120 C.3       3 GLL5        0.0000 
     71 CA         -5.8617    2.7933   30.6360 C.3       1 GLC5        0.0000 
     72 CA        -10.6502    8.8975   25.3807 C.3       1 GLC5        0.0000 
     73 CA         -9.2490   10.0560   25.6770 C.3       2 GLP5        0.0000 
     74 CA        -11.6672    7.9431   22.8751 C.3       1 GLC5        0.0000 
     75 CA        -10.4490    8.6550   21.3270 C.3       2 GLP5        0.0000 
@<TRIPOS>BOND
@<TRIPOS>SUBSTRUCTURE
     1 GLC5        1 GROUP        1 X    GLC  0     ROOT GLC X 6
     2 GLP5        3 GROUP        1 Y    GLP  0     ROOT GLP Y 13
     3 GLL5        2 GROUP        1 Z    GLL  0     ROOT GLL Z 20
@<TRIPOS>SET

