#    Name: 2ica_2IC_1_ligand
#    Modification time : Tue Mar 25 17:36:57 2014

@<TRIPOS>MOLECULE
2ica_2IC_1_ligand
   57    61     1     0     0
SMALL
NO_CHARGES


@<TRIPOS>ATOM
      1 C2         -5.9170   -0.3460   28.3750 C.ar      1 2IC1        0.0000 
      2 C3         -5.3870   -0.1250   29.6500 C.ar      1 2IC1        0.0000 
      3 C8         -7.8190    1.1030   28.8260 C.ar      1 2IC1        0.0000 
      4 C9         -7.1200    0.2360   27.9440 C.ar      1 2IC1        0.0000 
      5 C12       -10.1350    1.7020   29.1900 C.2       1 2IC1        0.0000 
      6 C14       -10.7030    2.5370   27.0990 C.3       1 2IC1        0.0000 
      7 C15       -10.9490    3.9460   26.5410 C.3       1 2IC1        0.0000 
      8 N18       -11.7360    3.7710   25.2940 N.4       1 2IC1        0.0000 
      9 C19       -11.4780    2.4260   24.8100 C.3       1 2IC1        0.0000 
     10 C22       -11.3600    1.6130   26.0770 C.3       1 2IC1        0.0000 
     11 C24       -10.8010    0.2210   25.9750 C.ar      1 2IC1        0.0000 
     12 C27       -10.8020   -2.0610   26.8730 C.ar      1 2IC1        0.0000 
     13 C30        -9.1710   -1.4240   25.1750 C.ar      1 2IC1        0.0000 
     14 C32        -9.7220   -0.1330   25.1160 C.ar      1 2IC1        0.0000 
     15 C34        -9.1980   -3.7090   26.0550 C.1       1 2IC1        0.0000 
     16 CL1        -5.0550   -1.4000   27.3100 Cl        1 2IC1        0.0000 
     17 C5         -6.1080    0.7090   30.5060 C.ar      1 2IC1        0.0000 
     18 C6         -7.2970    1.3340   30.1120 C.ar      1 2IC1        0.0000 
     19 N11        -8.9920    1.6820   28.4480 N.am      1 2IC1        0.0000 
     20 N13       -11.1120    2.2600   28.4660 N.am      1 2IC1        0.0000 
     21 C25       -11.3580   -0.7730   26.8130 C.ar      1 2IC1        0.0000 
     22 C29        -9.7150   -2.3790   26.0470 C.ar      1 2IC1        0.0000 
     23 N35        -8.8040   -4.7980   26.0330 N.1       1 2IC1        0.0000 
     24 C36       -11.4910    4.6370   24.1370 C.3       1 2IC1        0.0000 
     25 C39       -12.1830    5.9530   24.2900 C.2       1 2IC1        0.0000 
     26 S40       -11.3500    7.2220   25.1550 S.3       1 2IC1        0.0000 
     27 C41       -12.7530    8.2560   25.0140 C.2       1 2IC1        0.0000 
     28 C43       -13.6670    7.7260   24.1900 C.2       1 2IC1        0.0000 
     29 C44       -13.3550    6.3550   23.7660 C.2       1 2IC1        0.0000 
     30 C46       -14.8570    8.4870   23.7440 C.2       1 2IC1        0.0000 
     31 O47       -15.6030    7.9730   22.8830 O.co2     1 2IC1        0.0000 
     32 O48       -15.0660    9.6200   24.2290 O.co2     1 2IC1        0.0000 
     33 C50        -9.2020    2.2330   27.2230 C.2       1 2IC1        0.0000 
     34 O51        -8.3850    2.4670   26.3330 O.2       1 2IC1        0.0000 
     35 C52       -12.4870    2.4400   28.9310 C.3       1 2IC1        0.0000 
     36 O56       -10.2820    1.2740   30.3330 O.2       1 2IC1        0.0000 
     37 CL57       -5.5300    0.9450   32.1050 Cl        1 2IC1        0.0000 
     38 H          -4.5209   -0.5505   29.9375 H         1 2IC1        0.0000 
     39 H          -7.4900    0.0453   27.0199 H         1 2IC1        0.0000 
     40 H         -10.0005    4.4062   26.3329 H         1 2IC1        0.0000 
     41 H         -11.5030    4.5135   27.2661 H         1 2IC1        0.0000 
     42 H         -12.8134    3.8032   25.5429 H         1 2IC1        0.0000 
     43 H         -10.5543    2.3734   24.2726 H         1 2IC1        0.0000 
     44 H         -12.2968    2.0544   24.2302 H         1 2IC1        0.0000 
     45 H         -12.4429    1.5196   26.4564 H         1 2IC1        0.0000 
     46 H         -11.1858   -2.7572   27.5113 H         1 2IC1        0.0000 
     47 H          -8.3730   -1.6669   24.5817 H         1 2IC1        0.0000 
     48 H          -9.3547    0.5573   24.4602 H         1 2IC1        0.0000 
     49 H          -7.7886    1.9590   30.7565 H         1 2IC1        0.0000 
     50 H         -12.1820   -0.5447   27.3849 H         1 2IC1        0.0000 
     51 H         -11.8467    4.1497   23.2160 H         1 2IC1        0.0000 
     52 H         -10.4107    4.8118   24.0157 H         1 2IC1        0.0000 
     53 H         -12.6717    9.0268   25.5274 H         1 2IC1        0.0000 
     54 H         -13.9502    5.8683   23.1919 H         1 2IC1        0.0000 
     55 H         -12.5302    3.0122   29.7500 H         1 2IC1        0.0000 
     56 H         -13.0594    2.8773   28.2374 H         1 2IC1        0.0000 
     57 H         -12.9189    1.5676   29.1599 H         1 2IC1        0.0000 
@<TRIPOS>BOND
     1    2    1 ar   
     2    4    1 ar   
     3   16    1 1    
     4   17    2 ar   
     5   38    2 1    
     6    4    3 ar   
     7   18    3 ar   
     8   19    3 1    
     9   39    4 1    
    10   19    5 am   
    11   20    5 am   
    12   36    5 2    
    13    7    6 1    
    14   10    6 1    
    15   20    6 1    
    16   33    6 1    
    17    8    7 1    
    18   40    7 1    
    19   41    7 1    
    20    9    8 1    
    21   24    8 1    
    22   42    8 1    
    23   10    9 1    
    24   43    9 1    
    25   44    9 1    
    26   11   10 1    
    27   45   10 1    
    28   14   11 ar   
    29   21   11 ar   
    30   21   12 ar   
    31   22   12 ar   
    32   46   12 1    
    33   14   13 ar   
    34   22   13 ar   
    35   47   13 1    
    36   48   14 1    
    37   22   15 1    
    38   23   15 3    
    39   18   17 ar   
    40   37   17 1    
    41   49   18 1    
    42   33   19 am   
    43   35   20 1    
    44   50   21 1    
    45   25   24 1    
    46   51   24 1    
    47   52   24 1    
    48   26   25 1    
    49   29   25 2    
    50   27   26 1    
    51   28   27 2    
    52   53   27 1    
    53   29   28 1    
    54   30   28 1    
    55   54   29 1    
    56   31   30 ar   
    57   32   30 ar   
    58   34   33 2    
    59   55   35 1    
    60   56   35 1    
    61   57   35 1    
@<TRIPOS>SUBSTRUCTURE
     1 2IC1        1 GROUP   
@<TRIPOS>SET

