#    Name: 3nal_DBK_1_INTS_M
#    Modification time : Tue Mar 25 01:09:03 2014

@<TRIPOS>MOLECULE
3nal_DBK_1_INTS_M
   98     0     6     0     0
SMALL
NO_CHARGES


@<TRIPOS>ATOM
      1 CA         -1.1205    7.8205   82.5050 C.3       2 GLC5        0.0000 
      2 CA         -2.5670    9.2780   83.0960 C.3       6 GLL5        0.0000 
      3 CA          0.3260    6.3630   81.9140 C.3       4 GLP5        0.0000 
      4 CA         -1.7010   11.6875   86.7895 C.3       2 GLC5        0.0000 
      5 CA         -2.5700    9.9890   86.8870 C.3       6 GLL5        0.0000 
      6 CA         -0.8320   13.3860   86.6920 C.3       4 GLP5        0.0000 
      7 N          -6.7375   12.3445   90.2740 N.am      1 SEC2        0.0000 
      8 N          -5.4160   11.9770   89.5700 N.am      5 SEL2        0.0000 
      9 N          -8.0590   12.7120   90.9780 N.am      3 SEP2        0.0000 
     10 CA         -3.9240   12.0120   78.3880 C.3       2 GLC5        0.0000 
     11 CA         -2.1730   10.6140   78.3930 C.3       6 GLL5        0.0000 
     12 CA         -5.6750   13.4100   78.3830 C.3       4 GLP5        0.0000 
     13 CA         -2.0765   10.6420   76.7385 C.3       2 GLC5        0.0000 
     14 CA         -1.9800   10.6700   75.0840 C.3       4 GLP5        0.0000 
     15 CA         -0.1170   13.0875   79.0435 C.3       2 GLC5        0.0000 
     16 CA         -1.8560   12.4270   80.1110 C.3       6 GLL5        0.0000 
     17 CA          1.6220   13.7480   77.9760 C.3       4 GLP5        0.0000 
     18 CA         -3.7655   12.9185   79.2470 C.3       2 GLC5        0.0000 
     19 CA         -1.0485   13.6820   83.0625 C.3       2 GLC5        0.0000 
     20 CA         -1.6940   12.9230   81.5500 C.3       6 GLL5        0.0000 
     21 CA         -0.4030   14.4410   84.5750 C.3       4 GLP5        0.0000 
     22 CA          0.3140   13.3425   81.7985 C.3       2 GLC5        0.0000 
     23 CA          2.3220   13.7620   82.0470 C.3       4 GLP5        0.0000 
     24 CA         -0.8555   11.8040   85.0515 C.3       2 GLC5        0.0000 
     25 CA         -0.4680    9.8930   84.6990 C.3       6 GLL5        0.0000 
     26 CA         -1.2430   13.7150   85.4040 C.3       4 GLP5        0.0000 
     27 CA          1.1455    9.9620   83.8380 C.3       2 GLC5        0.0000 
     28 CA          2.7590   10.0310   82.9770 C.3       4 GLP5        0.0000 
     29 CA         -5.5080   14.7580   90.3570 C.3       2 GLC5        0.0000 
     30 CA         -4.5560   14.1360   88.9510 C.3       6 GLL5        0.0000 
     31 CA         -6.4600   15.3800   91.7630 C.3       4 GLP5        0.0000 
     32 CA         -6.4085   14.1525   87.9660 C.3       2 GLC5        0.0000 
     33 CA         -8.2610   14.1690   86.9810 C.3       4 GLP5        0.0000 
     34 CA         -3.0255   12.6865   85.0530 C.3       2 GLC5        0.0000 
     35 CA         -4.8080   11.6580   84.7020 C.3       6 GLL5        0.0000 
     36 CA         -4.9325   13.5380   84.5530 C.3       2 GLC5        0.0000 
     37 CA         -5.0570   15.4180   84.4040 C.3       4 GLP5        0.0000 
     38 CA         -5.5885   12.3810   82.7390 C.3       2 GLC5        0.0000 
     39 CA         -6.3690   13.1040   80.7760 C.3       4 GLP5        0.0000 
     40 CA         -7.5090   11.7180   82.0545 C.3       2 GLC5        0.0000 
     41 CA         -8.6490   10.3320   83.3330 C.3       6 GLL5        0.0000 
     42 CA         -8.5865    9.1210   84.6770 C.3       2 GLC5        0.0000 
     43 CA         -8.5240    7.9100   86.0210 C.3       4 GLP5        0.0000 
     44 CA         -9.8980   11.4950   83.0645 C.3       2 GLC5        0.0000 
     45 CA        -11.1470   12.6580   82.7960 C.3       4 GLP5        0.0000 
     46 CA         -9.9240    9.5500   81.9120 C.3       2 GLC5        0.0000 
     47 CA        -11.1990    8.7680   80.4910 C.3       4 GLP5        0.0000 
     48 CA         -3.8195   17.6895   89.0575 C.3       2 GLC5        0.0000 
     49 CA         -2.7090   15.8610   89.2960 C.3       6 GLL5        0.0000 
     50 CA         -4.9300   19.5180   88.8190 C.3       4 GLP5        0.0000 
     51 CA         -0.1550   14.7190   88.8840 C.3       2 GLC5        0.0000 
     52 CA         -1.1910   16.0530   89.2330 C.3       6 GLL5        0.0000 
     53 CA          0.8810   13.3850   88.5350 C.3       4 GLP5        0.0000 
     54 CA         -3.0600   17.6250   91.3320 C.3       2 GLC5        0.0000 
     55 CA         -1.2270   17.9350   90.8930 C.3       6 GLL5        0.0000 
     56 CA         -4.8930   17.3150   91.7710 C.3       4 GLP5        0.0000 
     57 CA         -2.6750   20.3850   91.2040 C.3       2 GLC5        0.0000 
     58 CA         -0.8880   19.3960   91.1970 C.3       6 GLL5        0.0000 
     59 CA         -4.4620   21.3740   91.2110 C.3       4 GLP5        0.0000 
     60 CA          1.9975   18.5355   91.3935 C.3       2 GLC5        0.0000 
     61 CA          0.6170   19.6750   91.2450 C.3       6 GLL5        0.0000 
     62 CA          3.3780   17.3960   91.5420 C.3       4 GLP5        0.0000 
     63 CA         -0.0065   22.4625   90.9990 C.3       2 GLC5        0.0000 
     64 CA          0.8710   21.0370   91.8970 C.3       6 GLL5        0.0000 
     65 CA         -0.8840   23.8880   90.1010 C.3       4 GLP5        0.0000 
     66 CA          0.6050   22.2200   93.7995 C.3       2 GLC5        0.0000 
     67 CA          2.5710   22.6210   92.8810 C.3       6 GLL5        0.0000 
     68 CA         -1.3610   21.8190   94.7180 C.3       4 GLP5        0.0000 
     69 CA         -5.8267    8.2325   84.6790 C.3       2 GLC5        0.0000 
     70 CA         -4.2690    9.1920   84.8900 C.3       6 GLL5        0.0000 
     71 CA         -7.5070    7.4100   85.2110 C.3       4 GLP5        0.0000 
     72 CA         -1.8388   11.6645   85.1775 C.3       2 GLC5        0.0000 
     73 CA         -2.9180    9.6230   85.4480 C.3       6 GLL5        0.0000 
     74 CA          0.1138    8.8280   85.5468 C.3       2 GLC5        0.0000 
     75 CA         -1.9510    9.6050   84.4540 C.3       6 GLL5        0.0000 
     76 CA          1.4370    7.9070   86.5170 C.3       4 GLP5        0.0000 
     77 CA         -6.9865   11.3742   87.8367 C.3       2 GLC5        0.0000 
     78 CA         -4.9230   10.6800   87.6300 C.3       6 GLL5        0.0000 
     79 CA         -8.5640   12.2700   88.6000 C.3       4 GLP5        0.0000 
     80 CA         -6.5600    8.8430   85.5080 C.3       2 GLC5        0.0000 
     81 CA         -5.8950   10.2770   86.5170 C.3       6 GLL5        0.0000 
     82 CA         -1.6700   12.3478   77.9172 C.3       2 GLC5        0.0000 
     83 CA         -2.1060   11.0880   79.8460 C.3       6 GLL5        0.0000 
     84 CA         -1.3590   12.9380   75.8560 C.3       4 GLP5        0.0000 
     85 CA         -3.8860   16.2223   90.4588 C.3       2 GLC5        0.0000 
     86 CA         -3.0490   14.3980   88.9970 C.3       6 GLL5        0.0000 
     87 CA         -2.0439   14.2250   87.9135 C.3       2 GLC5        0.0000 
     88 CA         -2.3680   16.4435   87.2467 C.3       2 GLC5        0.0000 
     89 CA         -2.7860   16.9300   85.2290 C.3       4 GLP5        0.0000 
     90 CA         -1.6633   19.1223   92.6395 C.3       2 GLC5        0.0000 
     91 CA         -2.2690   19.5790   94.2340 C.3       4 GLP5        0.0000 
     92 CA          0.8110   16.6895   90.7550 C.3       2 GLC5        0.0000 
     93 CA          2.7270   16.0230   91.3810 C.3       4 GLP5        0.0000 
     94 CA          0.2475   20.5885   93.2625 C.3       2 GLC5        0.0000 
     95 CA          2.3600   21.3120   92.1150 C.3       6 GLL5        0.0000 
     96 CA         -1.0570   20.3430   94.6820 C.3       4 GLP5        0.0000 
     97 CA          3.2921   20.6564   91.5563 C.3       2 GLC5        0.0000 
     98 CA          4.4910   19.4150   90.6690 C.3       4 GLP5        0.0000 
@<TRIPOS>BOND
@<TRIPOS>SUBSTRUCTURE
     1 SEC2        7 GROUP        1 X    SEC  0     ROOT SEC X 2
     2 GLC5        1 GROUP        1 X    GLC  0     **** GLC X 6
     3 SEP2        9 GROUP        1 Y    SEP  0     ROOT SEP Y 9
     4 GLP5        3 GROUP        1 Y    GLP  0     **** GLP Y 13
     5 SEL2        8 GROUP        1 Z    SEL  0     ROOT SEL Z 16
     6 GLL5        2 GROUP        1 Z    GLL  0     **** GLL Z 20
@<TRIPOS>SET

