#    Name: 3nal_DBK_1_ligand
#    Modification time : Tue Mar 25 01:09:03 2014

@<TRIPOS>MOLECULE
3nal_DBK_1_ligand
   96    98     1     0     0
SMALL
NO_CHARGES


@<TRIPOS>ATOM
      1 C1         -4.2690    9.1920   84.8900 C.3       1 DBK997      0.0000 
      2 C2         -4.0240    8.9180   83.4040 C.3       1 DBK997      0.0000 
      3 C3         -2.5670    9.2780   83.0960 C.3       1 DBK997      0.0000 
      4 O3         -2.4670   10.4410   82.2580 O.3       1 DBK997      0.0000 
      5 C4         -1.9510    9.6050   84.4540 C.2       1 DBK997      0.0000 
      6 O4         -2.0830    8.8640   80.7240 O.2       1 DBK997      0.0000 
      7 C5         -2.9180    9.6230   85.4480 C.2       1 DBK997      0.0000 
      8 O5         -1.5650    9.1120   87.4160 O.3       1 DBK997      0.0000 
      9 C6         -2.5700    9.9890   86.8870 C.3       1 DBK997      0.0000 
     10 O6         -4.1640    8.3670   87.7400 O.3       1 DBK997      0.0000 
     11 C7         -3.7420    9.7290   87.8250 C.3       1 DBK997      0.0000 
     12 O7         -4.5210   12.0540   87.5350 O.3       1 DBK997      0.0000 
     13 C8         -4.9230   10.6800   87.6300 C.3       1 DBK997      0.0000 
     14 O8         -5.4160   11.9770   89.5700 O.2       1 DBK997      0.0000 
     15 C9         -5.8950   10.2770   86.5170 C.3       1 DBK997      0.0000 
     16 O9         -6.3700    9.8700   84.2030 O.3       1 DBK997      0.0000 
     17 C10        -5.3310   10.2750   85.0930 C.3       1 DBK997      0.0000 
     18 O10        -7.4070   11.7730   84.7990 O.2       1 DBK997      0.0000 
     19 C11        -2.9910    9.9320   89.1370 C.3       1 DBK997      0.0000 
     20 O11        -2.8010   11.3300   89.3670 O.3       1 DBK997      0.0000 
     21 C12        -1.6580    9.2850   88.7630 C.2       1 DBK997      0.0000 
     22 O12        -0.8010    8.9140   89.5650 O.2       1 DBK997      0.0000 
     23 C21        -2.2410   10.0580   80.9720 C.2       1 DBK997      0.0000 
     24 C22        -2.1060   11.0880   79.8460 C.2       1 DBK997      0.0000 
     25 C23        -2.1730   10.6140   78.3930 C.3       1 DBK997      0.0000 
     26 C24        -1.8560   12.4270   80.1110 C.2       1 DBK997      0.0000 
     27 C25        -1.6940   12.9230   81.5500 C.3       1 DBK997      0.0000 
     28 C26        -0.4680    9.8930   84.6990 C.3       1 DBK997      0.0000 
     29 C27        -4.8570   12.6570   88.7030 C.2       1 DBK997      0.0000 
     30 C28        -4.5560   14.1360   88.9510 C.3       1 DBK997      0.0000 
     31 C31        -4.8080   11.6580   84.7020 C.3       1 DBK997      0.0000 
     32 C32        -7.4270   10.7330   84.1550 C.2       1 DBK997      0.0000 
     33 C33        -8.6490   10.3320   83.3330 C.3       1 DBK997      0.0000 
     34 C34        -3.6600    9.2270   90.3190 C.3       1 DBK997      0.0000 
     35 C35        -3.0490   14.3980   88.9970 C.3       1 DBK997      0.0000 
     36 C36        -2.7090   15.8610   89.2960 C.3       1 DBK997      0.0000 
     37 C37        -1.1910   16.0530   89.2330 C.3       1 DBK997      0.0000 
     38 C38        -0.7750   17.5010   89.4970 C.3       1 DBK997      0.0000 
     39 C39        -1.2270   17.9350   90.8930 C.3       1 DBK997      0.0000 
     40 C40        -0.8880   19.3960   91.1970 C.3       1 DBK997      0.0000 
     41 C41         0.6170   19.6750   91.2450 C.3       1 DBK997      0.0000 
     42 C42         0.8710   21.0370   91.8970 C.3       1 DBK997      0.0000 
     43 C43         2.3600   21.3120   92.1150 C.3       1 DBK997      0.0000 
     44 C44         2.5710   22.6210   92.8810 C.3       1 DBK997      0.0000 
     45 H          -4.5649    8.2847   85.3614 H         1 DBK997      0.0000 
     46 H          -4.6781    9.5331   82.8124 H         1 DBK997      0.0000 
     47 H          -4.1867    7.8751   83.1991 H         1 DBK997      0.0000 
     48 H          -2.0768    8.4311   82.7028 H         1 DBK997      0.0000 
     49 H          -2.2874   10.9980   86.9679 H         1 DBK997      0.0000 
     50 H          -5.5379   10.5832   88.5984 H         1 DBK997      0.0000 
     51 H          -6.7735   10.9577   86.5496 H         1 DBK997      0.0000 
     52 H          -6.2921    9.2633   86.7427 H         1 DBK997      0.0000 
     53 H          -1.7691   13.1313   79.3883 H         1 DBK997      0.0000 
     54 H          -5.0013   14.4387   89.8994 H         1 DBK997      0.0000 
     55 H          -4.9988   14.7312   88.1517 H         1 DBK997      0.0000 
     56 H          -2.6075   14.1186   88.0327 H         1 DBK997      0.0000 
     57 H          -2.5984   13.7618   89.7684 H         1 DBK997      0.0000 
     58 H          -3.0622   16.1163   90.2862 H         1 DBK997      0.0000 
     59 H          -3.1820   16.4970   88.5597 H         1 DBK997      0.0000 
     60 H          -0.8337   15.7522   88.2427 H         1 DBK997      0.0000 
     61 H          -0.7176   15.4028   89.9760 H         1 DBK997      0.0000 
     62 H          -1.2330   18.1474   88.7546 H         1 DBK997      0.0000 
     63 H           0.3055   17.5825   89.4283 H         1 DBK997      0.0000 
     64 H          -0.7458   17.2932   91.6405 H         1 DBK997      0.0000 
     65 H          -2.3111   17.7942   90.9779 H         1 DBK997      0.0000 
     66 H          -1.3331   19.6727   92.1634 H         1 DBK997      0.0000 
     67 H          -1.3452   20.0364   90.4292 H         1 DBK997      0.0000 
     68 H           1.0131   19.6805   90.2365 H         1 DBK997      0.0000 
     69 H           1.1067   18.9023   91.8257 H         1 DBK997      0.0000 
     70 H           0.3549   21.0729   92.8623 H         1 DBK997      0.0000 
     71 H           0.4512   21.8223   91.2594 H         1 DBK997      0.0000 
     72 H           2.8581   21.3784   91.1488 H         1 DBK997      0.0000 
     73 H           2.7975   20.4912   92.6815 H         1 DBK997      0.0000 
     74 H          -2.0690   11.3725   77.7497 H         1 DBK997      0.0000 
     75 H          -1.4529    9.9522   78.1847 H         1 DBK997      0.0000 
     76 H          -3.0459   10.1720   78.1864 H         1 DBK997      0.0000 
     77 H          -0.9315   12.4726   82.0144 H         1 DBK997      0.0000 
     78 H          -1.5193   13.9070   81.5862 H         1 DBK997      0.0000 
     79 H          -2.5133   12.7505   82.0968 H         1 DBK997      0.0000 
     80 H           0.1088    9.1194   84.4368 H         1 DBK997      0.0000 
     81 H          -0.1521   10.6847   84.1761 H         1 DBK997      0.0000 
     82 H          -0.2811   10.0846   85.6625 H         1 DBK997      0.0000 
     83 H          -4.0085   11.9193   85.2429 H         1 DBK997      0.0000 
     84 H          -4.5358   11.6939   83.7404 H         1 DBK997      0.0000 
     85 H          -5.4987   12.3683   84.8378 H         1 DBK997      0.0000 
     86 H          -8.4184   10.1883   82.3706 H         1 DBK997      0.0000 
     87 H          -9.0584    9.4827   83.6663 H         1 DBK997      0.0000 
     88 H          -9.3622   11.0323   83.3620 H         1 DBK997      0.0000 
     89 H          -3.7224    8.2393   90.1754 H         1 DBK997      0.0000 
     90 H          -3.1544    9.3681   91.1701 H         1 DBK997      0.0000 
     91 H          -4.5903    9.5603   90.4721 H         1 DBK997      0.0000 
     92 H           3.5414   22.8137   93.0269 H         1 DBK997      0.0000 
     93 H           2.1871   23.4039   92.3914 H         1 DBK997      0.0000 
     94 H           2.1381   22.5979   93.7821 H         1 DBK997      0.0000 
     95 H          -3.3512    7.8620   87.4496 H         1 DBK997      0.0000 
     96 H          -3.6978   11.6698   89.6507 H         1 DBK997      0.0000 
@<TRIPOS>BOND
     1    2    1 1    
     2    7    1 1    
     3   17    1 1    
     4   45    1 1    
     5    3    2 1    
     6   46    2 1    
     7   47    2 1    
     8    4    3 1    
     9    5    3 1    
    10   48    3 1    
    11   23    4 1    
    12    7    5 2    
    13   28    5 1    
    14   23    6 2    
    15    9    7 1    
    16    9    8 1    
    17   21    8 1    
    18   11    9 1    
    19   49    9 1    
    20   11   10 1    
    21   95   10 1    
    22   13   11 1    
    23   19   11 1    
    24   13   12 1    
    25   29   12 1    
    26   15   13 1    
    27   50   13 1    
    28   29   14 2    
    29   17   15 1    
    30   51   15 1    
    31   52   15 1    
    32   17   16 1    
    33   32   16 1    
    34   31   17 1    
    35   32   18 2    
    36   20   19 1    
    37   21   19 1    
    38   34   19 1    
    39   96   20 1    
    40   22   21 2    
    41   24   23 1    
    42   25   24 1    
    43   26   24 2    
    44   74   25 1    
    45   75   25 1    
    46   76   25 1    
    47   27   26 1    
    48   53   26 1    
    49   77   27 1    
    50   78   27 1    
    51   79   27 1    
    52   80   28 1    
    53   81   28 1    
    54   82   28 1    
    55   30   29 1    
    56   35   30 1    
    57   54   30 1    
    58   55   30 1    
    59   83   31 1    
    60   84   31 1    
    61   85   31 1    
    62   33   32 1    
    63   86   33 1    
    64   87   33 1    
    65   88   33 1    
    66   89   34 1    
    67   90   34 1    
    68   91   34 1    
    69   36   35 1    
    70   56   35 1    
    71   57   35 1    
    72   37   36 1    
    73   58   36 1    
    74   59   36 1    
    75   38   37 1    
    76   60   37 1    
    77   61   37 1    
    78   39   38 1    
    79   62   38 1    
    80   63   38 1    
    81   40   39 1    
    82   64   39 1    
    83   65   39 1    
    84   41   40 1    
    85   66   40 1    
    86   67   40 1    
    87   42   41 1    
    88   68   41 1    
    89   69   41 1    
    90   43   42 1    
    91   70   42 1    
    92   71   42 1    
    93   44   43 1    
    94   72   43 1    
    95   73   43 1    
    96   92   44 1    
    97   93   44 1    
    98   94   44 1    
@<TRIPOS>SUBSTRUCTURE
     1 DBK997      1 GROUP   
@<TRIPOS>SET

