#    Name: 1s7n_COA_3_INTS_M
#    Modification time : Tue Mar 25 02:06:25 2014

@<TRIPOS>MOLECULE
1s7n_COA_3_INTS_M
   93     0     9     0     0
SMALL
NO_CHARGES


@<TRIPOS>ATOM
      1 CA          3.1755   25.3060   49.8560 C.3       3 GLC5        0.0000 
      2 CA          2.8810   26.3620   51.2730 C.3       9 GLL5        0.0000 
      3 CA          3.4700   24.2500   48.4390 C.3       6 GLP5        0.0000 
      4 CA          4.1495   24.6715   51.8525 C.3       3 GLC5        0.0000 
      5 CA          5.4180   22.9810   52.4320 C.3       6 GLP5        0.0000 
      6 CA          4.6030   26.7365   52.1585 C.3       3 GLC5        0.0000 
      7 CA          6.3250   27.1110   53.0440 C.3       6 GLP5        0.0000 
      8 CA          4.8625   28.0515   45.8980 C.3       3 GLC5        0.0000 
      9 CA          4.1150   28.8450   47.6910 C.3       9 GLL5        0.0000 
     10 CA          5.6100   27.2580   44.1050 C.3       6 GLP5        0.0000 
     11 CA          5.9450   27.6000   45.8580 C.3       3 GLC5        0.0000 
     12 CA          6.2800   27.9420   47.6110 C.3       9 GLL5        0.0000 
     13 N           4.2045   26.3200   47.0980 N.am      2 SEC2        0.0000 
     14 N           4.9600   27.8370   47.0980 N.am      8 SEL2        0.0000 
     15 N           3.4490   24.8030   47.0980 N.am      5 SEP2        0.0000 
     16 CA          5.0110   25.5265   48.5290 C.3       3 GLC5        0.0000 
     17 CA          6.5520   26.8030   48.6190 C.3       9 GLL5        0.0000 
     18 CA          6.4385   26.9570   50.8315 C.3       3 GLC5        0.0000 
     19 N           4.9100   25.1570   47.5630 N.am      2 SEC2        0.0000 
     20 N           6.3710   25.5110   48.0280 N.am      8 SEL2        0.0000 
     21 N           7.0005   24.1185   51.2920 N.am      2 SEC2        0.0000 
     22 N           7.4010   24.4590   50.1160 N.am      8 SEL2        0.0000 
     23 N           6.6000   23.7780   52.4680 N.am      5 SEP2        0.0000 
     24 N           6.0800   21.7055   48.2515 N.am      2 SEC2        0.0000 
     25 N           6.3720   23.0240   48.4020 N.am      8 SEL2        0.0000 
     26 N           5.7880   20.3870   48.1010 N.am      5 SEP2        0.0000 
     27 N           6.2410   22.1250   49.6130 N.am      2 SEC2        0.0000 
     28 N           6.1100   21.2260   50.8240 N.am      5 SEP2        0.0000 
     29 N           7.1970   25.3380   44.5765 N.am      2 SEC2        0.0000 
     30 N           7.9410   24.5340   45.4670 N.am      8 SEL2        0.0000 
     31 N           6.4530   26.1420   43.6860 N.am      5 SEP2        0.0000 
     32 CA         12.6790   25.1875   46.7535 C.3       3 GLC5        0.0000 
     33 CA         11.2880   23.6440   47.0290 C.3       9 GLL5        0.0000 
     34 CA         14.0700   26.7310   46.4780 C.3       6 GLP5        0.0000 
     35 CA         13.7340   21.3205   48.6445 C.3       3 GLC5        0.0000 
     36 CA         13.5120   22.4640   47.3280 C.3       9 GLL5        0.0000 
     37 CA         13.9560   20.1770   49.9610 C.3       6 GLP5        0.0000 
     38 CA         13.7910   24.5975   46.9030 C.3       3 GLC5        0.0000 
     39 CA         14.5240   23.4670   48.7720 C.3       3 GLC5        0.0000 
     40 CA         15.5360   24.4700   50.2160 C.3       6 GLP5        0.0000 
     41 CA         12.4690   20.1325   47.8595 C.3       3 GLC5        0.0000 
     42 CA         11.4680   21.2020   46.5340 C.3       9 GLL5        0.0000 
     43 CA         13.4700   19.0630   49.1850 C.3       6 GLP5        0.0000 
     44 CA         12.3140   19.3135   45.6895 C.3       3 GLC5        0.0000 
     45 CA         13.1600   17.4250   44.8450 C.3       6 GLP5        0.0000 
     46 CA         10.0675   20.3650   45.4530 C.3       3 GLC5        0.0000 
     47 CA          8.6670   19.5280   44.3720 C.3       6 GLP5        0.0000 
     48 CA          9.8415   20.7080   47.5960 C.3       3 GLC5        0.0000 
     49 CA          8.2150   20.2140   48.6580 C.3       6 GLP5        0.0000 
     50 CA         13.1125   22.3810   42.8060 C.3       3 GLC5        0.0000 
     51 CA         12.5700   22.8660   44.9240 C.3       9 GLL5        0.0000 
     52 CA         13.6550   21.8960   40.6880 C.3       6 GLP5        0.0000 
     53 CA         11.2760   23.5120   43.4280 C.3       3 GLC5        0.0000 
     54 CA          9.9820   24.1580   41.9320 C.3       6 GLP5        0.0000 
     55 CA         13.3200   24.7985   45.7010 C.3       3 GLC5        0.0000 
     56 O          12.6555   24.6410   43.4780 O.2       1 ALC1        0.0000 
     57 O          13.1250   24.1760   44.7630 O.2       7 ALL1        0.0000 
     58 O          12.1860   25.1060   42.1930 O.2       4 ALP1        0.0000 
     59 N          12.3430   19.5390   43.7375 N.am      2 SEC2        0.0000 
     60 N          13.1930   20.7050   44.0170 N.am      8 SEL2        0.0000 
     61 N          11.4930   18.3730   43.4580 N.am      5 SEP2        0.0000 
     62 CA         14.7285   21.7540   42.0685 C.3       3 GLC5        0.0000 
     63 CA         15.8020   21.6120   43.4490 C.3       9 GLL5        0.0000 
     64 CA         17.6620   18.6390   43.9510 C.3       3 GLC5        0.0000 
     65 CA         16.3720   20.3550   44.1120 C.3       9 GLL5        0.0000 
     66 CA         18.9520   16.9230   43.7900 C.3       6 GLP5        0.0000 
     67 CA         15.3525   18.7255   44.0135 C.3       3 GLC5        0.0000 
     68 CA         14.3330   17.0960   43.9150 C.3       6 GLP5        0.0000 
     69 N          18.3260   22.5475   46.4635 N.am      2 SEC2        0.0000 
     70 N          17.4680   21.7440   45.7430 N.am      8 SEL2        0.0000 
     71 N          19.1840   23.3510   47.1840 N.am      5 SEP2        0.0000 
     72 O          15.7870   18.6340   46.6865 O.2       1 ALC1        0.0000 
     73 O          16.5050   19.7910   46.4560 O.2       7 ALL1        0.0000 
     74 O          15.0690   17.4770   46.9170 O.2       4 ALP1        0.0000 
     75 CA         15.4185   20.0560   48.9115 C.3       3 GLC5        0.0000 
     76 CA         16.8810   19.9350   47.8620 C.3       9 GLL5        0.0000 
     77 CA         16.8070   21.7515   48.9465 C.3       3 GLC5        0.0000 
     78 CA         16.7330   23.5680   50.0310 C.3       6 GLP5        0.0000 
     79 CA         19.3470   18.9105   46.7615 C.3       3 GLC5        0.0000 
     80 CA         18.3940   19.7920   48.0460 C.3       9 GLL5        0.0000 
     81 CA         20.3000   18.0290   45.4770 C.3       6 GLP5        0.0000 
     82 CA         19.1820   21.2265   51.0975 C.3       3 GLC5        0.0000 
     83 CA         18.8150   20.0420   49.7640 C.3       9 GLL5        0.0000 
     84 CA         19.5490   22.4110   52.4310 C.3       6 GLP5        0.0000 
     85 CA         17.7740   21.8050   49.8975 C.3       3 GLC5        0.0000 
     86 CA          2.4346   25.5475   49.0791 C.3       3 GLC5        0.0000 
     87 CA          2.6940   27.5220   49.2680 C.3       9 GLL5        0.0000 
     88 CA         11.8792   23.1945   48.8255 C.3       3 GLC5        0.0000 
     89 CA         11.1230   23.6030   50.6180 C.3       6 GLP5        0.0000 
     90 CA         16.1085   19.7377   42.1252 C.3       3 GLC5        0.0000 
     91 CA         16.1300   18.4920   40.4700 C.3       6 GLP5        0.0000 
     92 CA         18.1750   21.5038   43.7788 C.3       3 GLC5        0.0000 
     93 CA         20.2630   22.0240   43.7770 C.3       6 GLP5        0.0000 
@<TRIPOS>BOND
@<TRIPOS>SUBSTRUCTURE
     1 ALC1       56 GROUP        1 X    ALC  0     ROOT ALC X 1
     2 SEC2       13 GROUP        1 X    SEC  0     **** SEC X 2
     3 GLC5        1 GROUP        1 X    GLC  0     **** GLC X 6
     4 ALP1       58 GROUP        1 Y    ALP  0     ROOT ALP Y 8
     5 SEP2       15 GROUP        1 Y    SEP  0     **** SEP Y 9
     6 GLP5        3 GROUP        1 Y    GLP  0     **** GLP Y 13
     7 ALL1       57 GROUP        1 Z    ALL  0     ROOT ALL Z 15
     8 SEL2       14 GROUP        1 Z    SEL  0     **** SEL Z 16
     9 GLL5        2 GROUP        1 Z    GLL  0     **** GLL Z 20
@<TRIPOS>SET

