#    Name: 1s7n_COA_3_ligand
#    Modification time : Tue Mar 25 02:06:25 2014

@<TRIPOS>MOLECULE
1s7n_COA_3_ligand
   79    81     1     0     0
SMALL
NO_CHARGES


@<TRIPOS>ATOM
      1 N1A         1.5780   25.9620   51.2610 N.ar      1 COA601      0.0000 
      2 C2A         2.8810   26.3620   51.2730 C.ar      1 COA601      0.0000 
      3 N3A         3.4840   27.1050   50.3490 N.ar      1 COA601      0.0000 
      4 C4A         2.6940   27.5220   49.2680 C.ar      1 COA601      0.0000 
      5 C5A         1.3410   27.1600   49.1710 C.ar      1 COA601      0.0000 
      6 C6A         0.7810   26.3490   50.2190 C.ar      1 COA601      0.0000 
      7 N6A        -0.5300   26.0050   50.1000 N.pl3     1 COA601      0.0000 
      8 N7A         0.7300   27.6600   48.0170 N.2       1 COA601      0.0000 
      9 C8A         1.6800   28.3350   47.3830 C.2       1 COA601      0.0000 
     10 N9A         2.8540   28.2600   48.1110 N.pl3     1 COA601      0.0000 
     11 C1B         4.1150   28.8450   47.6910 C.3       1 COA601      0.0000 
     12 C2B         4.9730   29.5050   48.7780 C.3       1 COA601      0.0000 
     13 O2B         4.5920   30.9050   48.9380 O.3       1 COA601      0.0000 
     14 C3B         6.3510   29.3850   48.1220 C.3       1 COA601      0.0000 
     15 O3B         6.4720   30.2990   47.0440 O.3       1 COA601      0.0000 
     16 P3B         7.7480   31.3080   46.9600 P.3       1 COA601      0.0000 
     17 O7A         7.2830   32.3850   45.9810 O.co2     1 COA601      0.0000 
     18 O8A         8.9600   30.5170   46.5290 O.co2     1 COA601      0.0000 
     19 O9A         7.9080   31.8490   48.3700 O.co2     1 COA601      0.0000 
     20 C4B         6.2800   27.9420   47.6110 C.3       1 COA601      0.0000 
     21 O4B         4.9600   27.8370   47.0980 O.3       1 COA601      0.0000 
     22 C5B         6.5520   26.8030   48.6190 C.3       1 COA601      0.0000 
     23 O5B         6.3710   25.5110   48.0280 O.3       1 COA601      0.0000 
     24 P1A         7.1310   24.2520   48.7180 P.3       1 COA601      0.0000 
     25 O1A         7.4010   24.4590   50.1160 O.co2     1 COA601      0.0000 
     26 O2A         6.3720   23.0240   48.4020 O.co2     1 COA601      0.0000 
     27 O3A         8.5120   24.2540   47.9630 O.3       1 COA601      0.0000 
     28 P2A         8.9410   24.6600   46.5030 P.3       1 COA601      0.0000 
     29 O4A         7.9410   24.5340   45.4670 O.co2     1 COA601      0.0000 
     30 O5A         9.5710   26.0110   46.5780 O.co2     1 COA601      0.0000 
     31 O6A        10.1360   23.6650   46.2030 O.3       1 COA601      0.0000 
     32 CBP        12.2300   22.5720   46.4470 C.3       1 COA601      0.0000 
     33 CCP        11.2880   23.6440   47.0290 C.3       1 COA601      0.0000 
     34 CDP        13.5120   22.4640   47.3280 C.3       1 COA601      0.0000 
     35 CEP        11.4680   21.2020   46.5340 C.3       1 COA601      0.0000 
     36 CAP        12.5700   22.8660   44.9240 C.3       1 COA601      0.0000 
     37 OAP        13.1250   24.1760   44.7630 O.3       1 COA601      0.0000 
     38 C9P        13.5200   21.8630   44.2700 C.2       1 COA601      0.0000 
     39 O9P        13.1930   20.7050   44.0170 O.2       1 COA601      0.0000 
     40 N8P        14.8020   22.2730   44.3040 N.am      1 COA601      0.0000 
     41 C7P        15.8020   21.6120   43.4490 C.3       1 COA601      0.0000 
     42 C6P        16.3720   20.3550   44.1120 C.3       1 COA601      0.0000 
     43 C5P        16.8950   20.6890   45.4990 C.2       1 COA601      0.0000 
     44 O5P        17.4680   21.7440   45.7430 O.2       1 COA601      0.0000 
     45 N4P        16.5050   19.7910   46.4560 N.am      1 COA601      0.0000 
     46 C3P        16.8810   19.9350   47.8620 C.3       1 COA601      0.0000 
     47 C2P        18.3940   19.7920   48.0460 C.3       1 COA601      0.0000 
     48 S1P        18.8150   20.0420   49.7640 S.3       1 COA601      0.0000 
     49 H           3.4727   26.0365   52.1235 H         1 COA601      0.0000 
     50 H          -0.9201   25.4877   50.8618 H         1 COA601      0.0000 
     51 H          -0.9879   26.2998   49.2613 H         1 COA601      0.0000 
     52 H           1.5977   28.8137   46.5448 H         1 COA601      0.0000 
     53 H           3.9384   29.6194   46.9223 H         1 COA601      0.0000 
     54 H           4.9432   28.9340   49.6316 H         1 COA601      0.0000 
     55 H           7.0793   29.4446   48.8591 H         1 COA601      0.0000 
     56 H           6.9865   27.8538   46.7812 H         1 COA601      0.0000 
     57 H           5.8749   26.9577   49.4761 H         1 COA601      0.0000 
     58 H           7.5802   26.9390   48.9947 H         1 COA601      0.0000 
     59 H          11.0623   23.3606   48.0505 H         1 COA601      0.0000 
     60 H          11.8223   24.5870   47.0217 H         1 COA601      0.0000 
     61 H          11.6102   22.8117   44.3774 H         1 COA601      0.0000 
     62 H          15.1353   23.0327   44.8998 H         1 COA601      0.0000 
     63 H          16.6357   22.2940   43.2331 H         1 COA601      0.0000 
     64 H          15.3557   21.3208   42.4884 H         1 COA601      0.0000 
     65 H          17.1817   19.9666   43.5013 H         1 COA601      0.0000 
     66 H          15.5886   19.6068   44.1886 H         1 COA601      0.0000 
     67 H          15.9225   18.9674   46.2154 H         1 COA601      0.0000 
     68 H          16.3890   19.1716   48.4778 H         1 COA601      0.0000 
     69 H          16.5821   20.9179   48.2473 H         1 COA601      0.0000 
     70 H          18.9497   20.5464   47.5490 H         1 COA601      0.0000 
     71 H          18.7491   18.8118   47.8506 H         1 COA601      0.0000 
     72 H          14.1456   21.7736   46.9788 H         1 COA601      0.0000 
     73 H          14.0120   23.3293   47.3638 H         1 COA601      0.0000 
     74 H          13.2945   22.2119   48.2709 H         1 COA601      0.0000 
     75 H          12.0185   20.4475   46.1766 H         1 COA601      0.0000 
     76 H          11.2287   20.9693   47.4767 H         1 COA601      0.0000 
     77 H          10.6161   21.2170   46.0105 H         1 COA601      0.0000 
     78 H           5.4326   31.4220   48.7762 H         1 COA601      0.0000 
     79 H          12.8312   24.4715   43.8539 H         1 COA601      0.0000 
@<TRIPOS>BOND
     1    2    1 ar   
     2    6    1 ar   
     3    3    2 ar   
     4   49    2 1    
     5    4    3 ar   
     6    5    4 ar   
     7   10    4 1    
     8    6    5 ar   
     9    8    5 1    
    10    7    6 1    
    11   50    7 1    
    12   51    7 1    
    13    9    8 2    
    14   10    9 1    
    15   52    9 1    
    16   11   10 1    
    17   12   11 1    
    18   21   11 1    
    19   53   11 1    
    20   13   12 1    
    21   14   12 1    
    22   54   12 1    
    23   78   13 1    
    24   15   14 1    
    25   20   14 1    
    26   55   14 1    
    27   16   15 1    
    28   17   16 ar   
    29   18   16 ar   
    30   19   16 ar   
    31   21   20 1    
    32   22   20 1    
    33   56   20 1    
    34   23   22 1    
    35   57   22 1    
    36   58   22 1    
    37   24   23 1    
    38   25   24 ar   
    39   26   24 ar   
    40   27   24 1    
    41   28   27 1    
    42   29   28 ar   
    43   30   28 ar   
    44   31   28 1    
    45   33   31 1    
    46   33   32 1    
    47   34   32 1    
    48   35   32 1    
    49   36   32 1    
    50   59   33 1    
    51   60   33 1    
    52   72   34 1    
    53   73   34 1    
    54   74   34 1    
    55   75   35 1    
    56   76   35 1    
    57   77   35 1    
    58   37   36 1    
    59   38   36 1    
    60   61   36 1    
    61   79   37 1    
    62   39   38 2    
    63   40   38 am   
    64   41   40 1    
    65   62   40 1    
    66   42   41 1    
    67   63   41 1    
    68   64   41 1    
    69   43   42 1    
    70   65   42 1    
    71   66   42 1    
    72   44   43 2    
    73   45   43 am   
    74   46   45 1    
    75   67   45 1    
    76   47   46 1    
    77   68   46 1    
    78   69   46 1    
    79   48   47 1    
    80   70   47 1    
    81   71   47 1    
@<TRIPOS>SUBSTRUCTURE
     1 COA601      1 GROUP   
@<TRIPOS>SET

