#    Name: 1nnu_TCT_1_INTS_M
#    Modification time : Mon Mar 24 18:28:11 2014

@<TRIPOS>MOLECULE
1nnu_TCT_1_INTS_M
   64     0     9     0     0
SMALL
NO_CHARGES


@<TRIPOS>ATOM
      1 CA         52.0795   88.6625   37.1180 C.3       3 GLC5        0.0000 
      2 CA         52.7650   89.7600   35.3370 C.3       9 GLL5        0.0000 
      3 CA         51.3940   87.5650   38.8990 C.3       6 GLP5        0.0000 
      4 CA         51.9980   89.2240   33.9325 C.3       3 GLC5        0.0000 
      5 CA         53.8070   90.1330   34.4710 C.3       9 GLL5        0.0000 
      6 CA         50.1890   88.3150   33.3940 C.3       6 GLP5        0.0000 
      7 CA         55.9400   88.7310   31.3680 C.3       3 GLC5        0.0000 
      8 CA         55.8910   89.6310   33.3040 C.3       9 GLL5        0.0000 
      9 CA         55.9890   87.8310   29.4320 C.3       6 GLP5        0.0000 
     10 N          56.1705   88.1065   31.8785 N.am      2 SEC2        0.0000 
     11 N          56.9020   88.7520   33.0300 N.am      8 SEL2        0.0000 
     12 N          55.4390   87.4610   30.7270 N.am      5 SEP2        0.0000 
     13 CA         55.5895   90.0065   30.8075 C.3       3 GLC5        0.0000 
     14 CA         55.8900   90.9240   32.7090 C.3       9 GLL5        0.0000 
     15 CA         55.2890   89.0890   28.9060 C.3       6 GLP5        0.0000 
     16 CA         57.0640   91.9395   31.8215 C.3       3 GLC5        0.0000 
     17 CA         58.2380   92.9550   30.9340 C.3       6 GLP5        0.0000 
     18 CA         55.4600   92.7970   31.4770 C.3       3 GLC5        0.0000 
     19 CA         54.8540   91.8510   32.9810 C.3       9 GLL5        0.0000 
     20 CA         56.0660   93.7430   29.9730 C.3       6 GLP5        0.0000 
     21 CA         53.7165   91.7070   31.0700 C.3       3 GLC5        0.0000 
     22 CA         52.5790   91.5630   29.1590 C.3       6 GLP5        0.0000 
     23 CA         55.2295   93.7240   33.3015 C.3       3 GLC5        0.0000 
     24 CA         55.6050   95.5970   33.6220 C.3       6 GLP5        0.0000 
     25 CA         51.2495   98.1890   36.5400 C.3       3 GLC5        0.0000 
     26 CA         50.8850   96.5320   35.3760 C.3       9 GLL5        0.0000 
     27 CA         51.6140   99.8460   37.7040 C.3       6 GLP5        0.0000 
     28 CA         48.6195   99.1220   32.7750 C.3       3 GLC5        0.0000 
     29 CA         49.7480   98.5680   33.9330 C.3       9 GLL5        0.0000 
     30 CA         47.4910   99.6760   31.6170 C.3       6 GLP5        0.0000 
     31 CA         51.3695   98.9965   33.4265 C.3       3 GLC5        0.0000 
     32 CA         52.9910   99.4250   32.9200 C.3       6 GLP5        0.0000 
     33 CA         50.6810   99.2070   35.8185 C.3       3 GLC5        0.0000 
     34 CA         47.6490   95.7565   32.4210 C.3       3 GLC5        0.0000 
     35 CA         49.3280   95.8430   33.6060 C.3       9 GLL5        0.0000 
     36 CA         45.9700   95.6700   31.2360 C.3       6 GLP5        0.0000 
     37 N          48.4075   92.3395   33.6375 N.am      2 SEC2        0.0000 
     38 N          48.8760   93.4850   33.2600 N.am      8 SEL2        0.0000 
     39 N          47.9390   91.1940   34.0150 N.am      5 SEP2        0.0000 
     40 O          48.9075   93.5020   31.9230 O.2       1 ALC1        0.0000 
     41 O          48.8760   93.4850   33.2600 O.2       7 ALL1        0.0000 
     42 O          48.9390   93.5190   30.5860 O.2       4 ALP1        0.0000 
     43 CA         53.1710   90.7460   36.8535 C.3       3 GLC5        0.0000 
     44 CA         54.0970   91.2810   38.2280 C.3       6 GLP5        0.0000 
     45 CA         49.7422   91.2263   35.3695 C.3       3 GLC5        0.0000 
     46 CA         51.7250   90.6620   35.6210 C.3       9 GLL5        0.0000 
     47 CA         47.7740   91.1400   35.4020 C.3       6 GLP5        0.0000 
     48 CA         51.0797   89.7010   34.3300 C.3       3 GLC5        0.0000 
     49 CA         53.1578   91.7258   36.4185 C.3       3 GLC5        0.0000 
     50 CA         51.6960   91.9630   35.0530 C.3       9 GLL5        0.0000 
     51 CA         53.7045   93.9077   33.6940 C.3       3 GLC5        0.0000 
     52 CA         52.7410   92.3780   34.1650 C.3       9 GLL5        0.0000 
     53 CA         54.1390   95.8830   33.3770 C.3       6 GLP5        0.0000 
     54 CA         53.9500   91.0455   36.1960 C.3       3 GLC5        0.0000 
     55 CA         53.7990   91.4870   33.8570 C.3       9 GLL5        0.0000 
     56 CA         54.5565   87.9724   33.0332 C.3       3 GLC5        0.0000 
     57 CA         54.0010   86.2860   32.2530 C.3       6 GLP5        0.0000 
     58 CA         52.4450   95.2647   34.3740 C.3       3 GLC5        0.0000 
     59 CA         50.4140   94.1230   35.0190 C.3       9 GLL5        0.0000 
     60 CA         48.8743   92.7167   34.9432 C.3       3 GLC5        0.0000 
     61 CA         52.0862   96.2325   37.1097 C.3       3 GLC5        0.0000 
     62 CA         51.0880   95.1700   35.7230 C.3       9 GLL5        0.0000 
     63 CA         53.1860   96.6140   38.6700 C.3       6 GLP5        0.0000 
     64 CA         52.2918   96.2933   34.1140 C.3       3 GLC5        0.0000 
@<TRIPOS>BOND
@<TRIPOS>SUBSTRUCTURE
     1 ALC1       40 GROUP        1 X    ALC  0     ROOT ALC X 1
     2 SEC2       10 GROUP        1 X    SEC  0     **** SEC X 2
     3 GLC5        1 GROUP        1 X    GLC  0     **** GLC X 6
     4 ALP1       42 GROUP        1 Y    ALP  0     ROOT ALP Y 8
     5 SEP2       12 GROUP        1 Y    SEP  0     **** SEP Y 9
     6 GLP5        3 GROUP        1 Y    GLP  0     **** GLP Y 13
     7 ALL1       41 GROUP        1 Z    ALL  0     ROOT ALL Z 15
     8 SEL2       11 GROUP        1 Z    SEL  0     **** SEL Z 16
     9 GLL5        2 GROUP        1 Z    GLL  0     **** GLL Z 20
@<TRIPOS>SET

