#    Name: 1nnu_TCT_1_ligand
#    Modification time : Mon Mar 24 18:28:11 2014

@<TRIPOS>MOLECULE
1nnu_TCT_1_ligand
   31    33     1     0     0
SMALL
NO_CHARGES


@<TRIPOS>ATOM
      1 C16        52.7650   89.7600   35.3370 C.ar      1 TCT500      0.0000 
      2 C15        51.7250   90.6620   35.6210 C.ar      1 TCT500      0.0000 
      3 C14        51.6960   91.9630   35.0530 C.ar      1 TCT500      0.0000 
      4 C13        52.7410   92.3780   34.1650 C.ar      1 TCT500      0.0000 
      5 C12        53.7990   91.4870   33.8570 C.ar      1 TCT500      0.0000 
      6 C11        53.8070   90.1330   34.4710 C.ar      1 TCT500      0.0000 
      7 C10        54.8590   89.2400   34.1750 C.ar      1 TCT500      0.0000 
      8 C9         55.8910   89.6310   33.3040 C.ar      1 TCT500      0.0000 
      9 O3         56.9020   88.7520   33.0300 O.3       1 TCT500      0.0000 
     10 C8         55.8900   90.9240   32.7090 C.ar      1 TCT500      0.0000 
     11 C7         54.8540   91.8510   32.9810 C.ar      1 TCT500      0.0000 
     12 O2         50.6230   92.7860   35.4250 O.3       1 TCT500      0.0000 
     13 C3         50.4140   94.1230   35.0190 C.ar      1 TCT500      0.0000 
     14 C4         51.0880   95.1700   35.7230 C.ar      1 TCT500      0.0000 
     15 C5         50.8850   96.5320   35.3760 C.ar      1 TCT500      0.0000 
     16 C6         50.0040   96.8750   34.3260 C.ar      1 TCT500      0.0000 
     17 CL1        49.7480   98.5680   33.9330 Cl        1 TCT500      0.0000 
     18 C1         49.3280   95.8430   33.6060 C.ar      1 TCT500      0.0000 
     19 C2         49.5350   94.4640   33.9500 C.ar      1 TCT500      0.0000 
     20 O1         48.8760   93.4850   33.2600 O.3       1 TCT500      0.0000 
     21 H          52.7632   88.8280   35.7627 H         1 TCT500      0.0000 
     22 H          50.9629   90.3782   36.2556 H         1 TCT500      0.0000 
     23 H          52.7173   93.3094   33.7611 H         1 TCT500      0.0000 
     24 H          54.8685   88.3078   34.5958 H         1 TCT500      0.0000 
     25 H          56.6519   91.1856   32.0744 H         1 TCT500      0.0000 
     26 H          54.8655   92.7723   32.5513 H         1 TCT500      0.0000 
     27 H          51.7250   94.9294   36.4873 H         1 TCT500      0.0000 
     28 H          51.3791   97.2639   35.8892 H         1 TCT500      0.0000 
     29 H          48.6967   96.0822   32.8459 H         1 TCT500      0.0000 
     30 H          57.6862   89.3254   32.7929 H         1 TCT500      0.0000 
     31 H          48.8007   93.8331   32.3255 H         1 TCT500      0.0000 
@<TRIPOS>BOND
     1    2    1 ar   
     2    6    1 ar   
     3   21    1 1    
     4    3    2 ar   
     5   22    2 1    
     6    4    3 ar   
     7   12    3 1    
     8    5    4 ar   
     9   23    4 1    
    10    6    5 ar   
    11   11    5 ar   
    12    7    6 ar   
    13    8    7 ar   
    14   24    7 1    
    15    9    8 1    
    16   10    8 ar   
    17   30    9 1    
    18   11   10 ar   
    19   25   10 1    
    20   26   11 1    
    21   13   12 1    
    22   14   13 ar   
    23   19   13 ar   
    24   15   14 ar   
    25   27   14 1    
    26   16   15 ar   
    27   28   15 1    
    28   17   16 1    
    29   18   16 ar   
    30   19   18 ar   
    31   29   18 1    
    32   20   19 1    
    33   31   20 1    
@<TRIPOS>SUBSTRUCTURE
     1 TCT500      1 GROUP   
@<TRIPOS>SET

