#    Name: 4dch_4DC_1_INTS_M
#    Modification time : Tue Mar 25 09:35:54 2014

@<TRIPOS>MOLECULE
4dch_4DC_1_INTS_M
   68     0     9     0     0
SMALL
NO_CHARGES


@<TRIPOS>ATOM
      1 CA          5.2585   -8.9330   -5.9180 C.3       3 GLC5        0.0000 
      2 CA          4.3060   -7.8230   -4.5300 C.3       9 GLL5        0.0000 
      3 CA          6.2110  -10.0430   -7.3060 C.3       6 GLP5        0.0000 
      4 CA          3.7805   -9.1895   -5.6810 C.3       3 GLC5        0.0000 
      5 CA          3.2550  -10.5560   -6.8320 C.3       6 GLP5        0.0000 
      6 CA          2.9275   -7.7315   -0.3375 C.3       3 GLC5        0.0000 
      7 CA          3.3080   -8.4440   -2.4310 C.3       9 GLL5        0.0000 
      8 CA          2.5470   -7.0190    1.7560 C.3       6 GLP5        0.0000 
      9 O           8.0540  -10.0580   -3.2585 O.2       1 ALC1        0.0000 
     10 O           7.1400  -10.7620   -2.3680 O.2       7 ALL1        0.0000 
     11 O           8.9680   -9.3540   -4.1490 O.2       4 ALP1        0.0000 
     12 CA          6.1735   -8.7010    0.0940 C.3       3 GLC5        0.0000 
     13 CA          6.3180   -7.9220   -1.5990 C.3       9 GLL5        0.0000 
     14 CA          6.0290   -9.4800    1.7870 C.3       6 GLP5        0.0000 
     15 CA          5.3720   -4.8110   -2.0985 C.3       3 GLC5        0.0000 
     16 CA          6.4920   -6.4350   -1.9010 C.3       9 GLL5        0.0000 
     17 CA          4.2520   -3.1870   -2.2960 C.3       6 GLP5        0.0000 
     18 CA          5.9410   -4.1845   -0.9055 C.3       3 GLC5        0.0000 
     19 CA          6.9650   -5.6900   -0.6370 C.3       9 GLL5        0.0000 
     20 CA          4.9170   -2.6790   -1.1740 C.3       6 GLP5        0.0000 
     21 CA          5.1955   -5.1945    0.6470 C.3       3 GLC5        0.0000 
     22 CA          3.4260   -4.6990    1.9310 C.3       6 GLP5        0.0000 
     23 CA          7.2310   -3.5445   -1.1465 C.3       3 GLC5        0.0000 
     24 CA          8.3560   -5.1290   -0.9870 C.3       9 GLL5        0.0000 
     25 CA          6.1060   -1.9600   -1.3060 C.3       6 GLP5        0.0000 
     26 CA          9.7060   -7.5330   -1.2475 C.3       3 GLC5        0.0000 
     27 CA          8.8190   -5.8120   -2.2540 C.3       9 GLL5        0.0000 
     28 CA         10.5930   -9.2540   -0.2410 C.3       6 GLP5        0.0000 
     29 CA         10.9255   -5.4885   -2.8225 C.3       3 GLC5        0.0000 
     30 CA         13.0320   -5.1650   -3.3910 C.3       6 GLP5        0.0000 
     31 CA          8.3410   -6.9595   -4.6900 C.3       3 GLC5        0.0000 
     32 CA          7.5340   -6.1880   -2.9930 C.3       9 GLL5        0.0000 
     33 CA          9.1480   -7.7310   -6.3870 C.3       6 GLP5        0.0000 
     34 CA          6.1600   -4.5750   -3.2740 C.3       3 GLC5        0.0000 
     35 CA          4.7860   -2.9620   -3.5550 C.3       6 GLP5        0.0000 
     36 CA          7.2745  -11.7935    0.6325 C.3       3 GLC5        0.0000 
     37 CA          6.3440  -12.9090   -0.9370 C.3       9 GLL5        0.0000 
     38 CA          8.2050  -10.6780    2.2020 C.3       6 GLP5        0.0000 
     39 CA         10.2735  -12.5560   -1.2205 C.3       3 GLC5        0.0000 
     40 CA          8.6860  -13.8180   -1.3300 C.3       9 GLL5        0.0000 
     41 CA         11.8610  -11.2940   -1.1110 C.3       6 GLP5        0.0000 
     42 CA          8.0705  -14.3115   -3.0505 C.3       3 GLC5        0.0000 
     43 CA          7.4550  -14.8050   -4.7710 C.3       6 GLP5        0.0000 
     44 N           9.7320  -11.8605   -2.6555 N.am      2 SEC2        0.0000 
     45 N           8.6350  -12.6250   -2.0050 N.am      8 SEL2        0.0000 
     46 N          10.8290  -11.0960   -3.3060 N.am      5 SEP2        0.0000 
     47 CA         -0.7810   -4.9370   -6.3090 C.3       3 GLC5        0.0000 
     48 CA          0.6760   -5.6910   -5.7460 C.3       9 GLL5        0.0000 
     49 CA         -2.2380   -4.1830   -6.8720 C.3       6 GLP5        0.0000 
     50 CA          4.4990  -10.3545   -4.0427 C.3       3 GLC5        0.0000 
     51 CA          4.4280   -8.3590   -3.2520 C.3       9 GLL5        0.0000 
     52 CA          3.8930  -12.1250   -5.0810 C.3       6 GLP5        0.0000 
     53 CA          2.2973   -9.0995   -5.2218 C.3       3 GLC5        0.0000 
     54 CA          3.0710   -7.3720   -4.9860 C.3       9 GLL5        0.0000 
     55 CA          2.0860  -10.7740   -5.8620 C.3       6 GLP5        0.0000 
     56 CA          2.3865   -9.4997   -4.2625 C.3       3 GLC5        0.0000 
     57 CA          2.0660   -8.0070   -2.8950 C.3       9 GLL5        0.0000 
     58 CA          8.3477   -5.7122    1.0475 C.3       3 GLC5        0.0000 
     59 CA          9.0350   -6.0150    2.9070 C.3       6 GLP5        0.0000 
     60 CA         10.2487   -5.0247   -0.7817 C.3       3 GLC5        0.0000 
     61 CA         11.9100   -4.5790    0.0570 C.3       6 GLP5        0.0000 
     62 CA          6.7642  -14.6532   -2.3697 C.3       3 GLC5        0.0000 
     63 CA          6.6030  -15.7650   -3.9440 C.3       6 GLP5        0.0000 
     64 CA          5.7183  -14.5413    0.1922 C.3       3 GLC5        0.0000 
     65 CA          7.5070  -14.1740   -0.6540 C.3       9 GLL5        0.0000 
     66 CA          4.5110  -15.5410    1.1800 C.3       6 GLP5        0.0000 
     67 CA          8.5132  -15.2880    0.5090 C.3       3 GLC5        0.0000 
     68 CA          8.9300  -16.5800    2.0100 C.3       6 GLP5        0.0000 
@<TRIPOS>BOND
@<TRIPOS>SUBSTRUCTURE
     1 ALC1        9 GROUP        1 X    ALC  0     ROOT ALC X 1
     2 SEC2       44 GROUP        1 X    SEC  0     **** SEC X 2
     3 GLC5        1 GROUP        1 X    GLC  0     **** GLC X 6
     4 ALP1       11 GROUP        1 Y    ALP  0     ROOT ALP Y 8
     5 SEP2       46 GROUP        1 Y    SEP  0     **** SEP Y 9
     6 GLP5        3 GROUP        1 Y    GLP  0     **** GLP Y 13
     7 ALL1       10 GROUP        1 Z    ALL  0     ROOT ALL Z 15
     8 SEL2       45 GROUP        1 Z    SEL  0     **** SEL Z 16
     9 GLL5        2 GROUP        1 Z    GLL  0     **** GLL Z 20
@<TRIPOS>SET

