#    Name: 4dch_4DC_1_ligand
#    Modification time : Tue Mar 25 09:35:54 2014

@<TRIPOS>MOLECULE
4dch_4DC_1_ligand
   47    49     1     0     0
SMALL
NO_CHARGES


@<TRIPOS>ATOM
      1 C1          4.4280   -8.3590   -3.2520 C.ar      1 4DC502      0.0000 
      2 C2          4.3060   -7.8230   -4.5300 C.ar      1 4DC502      0.0000 
      3 C3          3.0710   -7.3720   -4.9860 C.ar      1 4DC502      0.0000 
      4 C4          1.9460   -7.4780   -4.1770 C.ar      1 4DC502      0.0000 
      5 C5          2.0660   -8.0070   -2.8950 C.ar      1 4DC502      0.0000 
      6 C6          3.3080   -8.4440   -2.4310 C.ar      1 4DC502      0.0000 
      7 N7          7.1400  -10.7620   -2.3680 N.am      1 4DC502      0.0000 
      8 C8          5.8920  -10.2310   -2.2810 C.2       1 4DC502      0.0000 
      9 O9          4.9030  -10.8350   -1.8420 O.2       1 4DC502      0.0000 
     10 C10         5.7820   -8.8090   -2.7570 C.3       1 4DC502      0.0000 
     11 C11         6.3180   -7.9220   -1.5990 C.3       1 4DC502      0.0000 
     12 C12         6.4920   -6.4350   -1.9010 C.3       1 4DC502      0.0000 
     13 C13         6.9650   -5.6900   -0.6370 C.3       1 4DC502      0.0000 
     14 C14         8.3560   -5.1290   -0.9870 C.3       1 4DC502      0.0000 
     15 C15         8.8190   -5.8120   -2.2540 C.3       1 4DC502      0.0000 
     16 C16         7.5340   -6.1880   -2.9930 C.3       1 4DC502      0.0000 
     17 C17         7.4360  -12.0070   -1.8920 C.2       1 4DC502      0.0000 
     18 S18         6.3440  -12.9090   -0.9370 S.3       1 4DC502      0.0000 
     19 C19         7.5070  -14.1740   -0.6540 C.2       1 4DC502      0.0000 
     20 C20         8.6860  -13.8180   -1.3300 C.2       1 4DC502      0.0000 
     21 N21         8.6350  -12.6250   -2.0050 N.2       1 4DC502      0.0000 
     22 S22         0.4730   -6.9820   -4.7520 S.o2      1 4DC502      0.0000 
     23 C23         0.6760   -5.6910   -5.7460 C.3       1 4DC502      0.0000 
     24 O24        -0.0980   -8.1120   -5.4640 O.2       1 4DC502      0.0000 
     25 O25        -0.4460   -6.6640   -3.7080 O.2       1 4DC502      0.0000 
     26 H           5.1325   -7.7597   -5.1409 H         1 4DC502      0.0000 
     27 H           2.9913   -6.9587   -5.9256 H         1 4DC502      0.0000 
     28 H           1.2397   -8.0767   -2.2875 H         1 4DC502      0.0000 
     29 H           3.3929   -8.8285   -1.4817 H         1 4DC502      0.0000 
     30 H           7.9063  -10.1964   -2.8171 H         1 4DC502      0.0000 
     31 H           6.5244   -8.6794   -3.5786 H         1 4DC502      0.0000 
     32 H           7.2931   -8.3411   -1.2688 H         1 4DC502      0.0000 
     33 H           5.6318   -8.0377   -0.7322 H         1 4DC502      0.0000 
     34 H           5.5571   -6.0125   -2.2071 H         1 4DC502      0.0000 
     35 H           7.0500   -6.3773    0.1706 H         1 4DC502      0.0000 
     36 H           6.2990   -4.8875   -0.4264 H         1 4DC502      0.0000 
     37 H           9.0341   -5.3457   -0.1804 H         1 4DC502      0.0000 
     38 H           8.2758   -4.0681   -1.1462 H         1 4DC502      0.0000 
     39 H           9.3642   -6.6974   -2.0163 H         1 4DC502      0.0000 
     40 H           9.3866   -5.1343   -2.8507 H         1 4DC502      0.0000 
     41 H           7.2228   -5.3751   -3.6094 H         1 4DC502      0.0000 
     42 H           7.6891   -7.0837   -3.5509 H         1 4DC502      0.0000 
     43 H           7.2259  -14.8435   -0.1492 H         1 4DC502      0.0000 
     44 H           9.4928  -14.4018   -1.3104 H         1 4DC502      0.0000 
     45 H           1.1060   -4.9220   -5.2729 H         1 4DC502      0.0000 
     46 H           1.2552   -5.9136   -6.5303 H         1 4DC502      0.0000 
     47 H          -0.1954   -5.3614   -6.1093 H         1 4DC502      0.0000 
@<TRIPOS>BOND
     1    2    1 ar   
     2    6    1 ar   
     3   10    1 1    
     4    3    2 ar   
     5   26    2 1    
     6    4    3 ar   
     7   27    3 1    
     8    5    4 ar   
     9   22    4 1    
    10    6    5 ar   
    11   28    5 1    
    12   29    6 1    
    13    8    7 am   
    14   17    7 1    
    15   30    7 1    
    16    9    8 2    
    17   10    8 1    
    18   11   10 1    
    19   31   10 1    
    20   12   11 1    
    21   32   11 1    
    22   33   11 1    
    23   13   12 1    
    24   16   12 1    
    25   34   12 1    
    26   14   13 1    
    27   35   13 1    
    28   36   13 1    
    29   15   14 1    
    30   37   14 1    
    31   38   14 1    
    32   16   15 1    
    33   39   15 1    
    34   40   15 1    
    35   41   16 1    
    36   42   16 1    
    37   18   17 1    
    38   21   17 2    
    39   19   18 1    
    40   20   19 2    
    41   43   19 1    
    42   21   20 1    
    43   44   20 1    
    44   23   22 1    
    45   24   22 2    
    46   25   22 2    
    47   45   23 1    
    48   46   23 1    
    49   47   23 1    
@<TRIPOS>SUBSTRUCTURE
     1 4DC502      1 GROUP   
@<TRIPOS>SET

