#    Name: 3dfr_MTX_1_INTS_M
#    Modification time : Mon Mar 24 23:15:09 2014

@<TRIPOS>MOLECULE
3dfr_MTX_1_INTS_M
   78     0    12     0     0
SMALL
NO_CHARGES


@<TRIPOS>ATOM
      1 N          -5.3660   31.0075   20.3570 N.am      2 SEC2        0.0000 
      2 N          -4.3220   30.5500   21.0110 N.am     10 SEL2        0.0000 
      3 N          -6.4100   31.4650   19.7030 N.am      6 SEP2        0.0000 
      4 CA         -4.0705   28.3530   23.6065 C.3       4 GLC5        0.0000 
      5 CA         -4.3940   29.3550   21.7390 C.3      12 GLL5        0.0000 
      6 CA         -3.7470   27.3510   25.4740 C.3       8 GLP5        0.0000 
      7 CA         -3.6250   27.5505   21.3980 C.3       4 GLC5        0.0000 
      8 CA         -2.8560   25.7460   21.0570 C.3       8 GLP5        0.0000 
      9 CA         -4.8610   28.8760   19.8665 C.3       4 GLC5        0.0000 
     10 CA         -5.3280   28.3970   17.9940 C.3       8 GLP5        0.0000 
     11 CA         -4.6940   31.0010   23.1630 C.3       4 GLC5        0.0000 
     12 CA         -4.9940   32.6470   24.5870 C.3       8 GLP5        0.0000 
     13 O          -6.7605   29.4390   21.2065 O.2       1 ALC1        0.0000 
     14 O          -5.6450   28.8070   21.8600 O.2       9 ALL1        0.0000 
     15 O          -7.8760   30.0710   20.5530 O.2       5 ALP1        0.0000 
     16 O          -6.4530   27.4630   22.3875 O.2       1 ALC1        0.0000 
     17 O          -7.2610   26.1190   22.9150 O.2       5 ALP1        0.0000 
     18 CA         -2.8830   28.3125   23.8540 C.3       4 GLC5        0.0000 
     19 CA         -2.0190   29.2740   22.2340 C.3      12 GLL5        0.0000 
     20 CA         -2.4375   27.5100   21.6455 C.3       4 GLC5        0.0000 
     21 O           0.4455   28.4530   22.8830 O.2       1 ALC1        0.0000 
     22 O          -0.9740   28.7080   22.7850 O.2       9 ALL1        0.0000 
     23 O           1.8650   28.1980   22.9810 O.2       5 ALP1        0.0000 
     24 CA         -1.9240   33.4655   18.5360 C.3       4 GLC5        0.0000 
     25 CA         -1.9440   32.8030   20.2170 C.3      12 GLL5        0.0000 
     26 CA         -1.9040   34.1280   16.8550 C.3       8 GLP5        0.0000 
     27 CA         -3.1495   34.2745   20.3150 C.3       4 GLC5        0.0000 
     28 CA         -4.3550   35.7460   20.4130 C.3       8 GLP5        0.0000 
     29 CA         -4.0385   31.8815   22.7425 C.3       4 GLC5        0.0000 
     30 CA         -3.0830   31.1160   20.8980 C.3      12 GLL5        0.0000 
     31 CA          2.6035   32.4205   21.2720 C.3       4 GLC5        0.0000 
     32 CA          0.6400   33.0210   20.6840 C.3      12 GLL5        0.0000 
     33 CA          4.5670   31.8200   21.8600 C.3       8 GLP5        0.0000 
     34 CA          1.7265   33.7705   22.2435 C.3       4 GLC5        0.0000 
     35 CA          2.8130   34.5200   23.8030 C.3       8 GLP5        0.0000 
     36 CA          1.5830   31.1010   20.3335 C.3       4 GLC5        0.0000 
     37 CA          2.5260   29.1810   19.9830 C.3       8 GLP5        0.0000 
     38 CA          0.3055   34.1780   17.6955 C.3       4 GLC5        0.0000 
     39 CA          1.3080   34.8130   19.2270 C.3      12 GLL5        0.0000 
     40 CA         -0.6970   33.5430   16.1640 C.3       8 GLP5        0.0000 
     41 CA         -1.4820   38.7180   26.0950 C.3       4 GLC5        0.0000 
     42 CA         -3.5710   38.5720   25.4550 C.3      12 GLL5        0.0000 
     43 CA          0.6070   38.8640   26.7350 C.3       8 GLP5        0.0000 
     44 NZ         -2.8260   36.0855   28.1350 N.4       3 LYC4        0.0000 
     45 NZ         -3.3490   36.5800   27.0050 N.4      11 LYL4        0.0000 
     46 NZ         -1.9870   36.3000   30.4330 N.4       7 LYP4        0.0000 
     47 N          -2.8260   36.0855   28.1350 N.am      2 SEC2        0.0000 
     48 N          -3.3490   36.5800   27.0050 N.am     10 SEL2        0.0000 
     49 N          -2.3030   35.5910   29.2650 N.am      6 SEP2        0.0000 
     50 NZ         -2.9405   38.1145   29.0595 N.4       3 LYC4        0.0000 
     51 NZ         -3.6070   38.6340   27.7990 N.4      11 LYL4        0.0000 
     52 N          -2.9405   38.1145   29.0595 N.am      2 SEC2        0.0000 
     53 N          -3.6070   38.6340   27.7990 N.am     10 SEL2        0.0000 
     54 N          -2.2740   37.5950   30.3200 N.am      6 SEP2        0.0000 
     55 CA         -5.8065   37.4640   26.8930 C.3       4 GLC5        0.0000 
     56 CA         -5.1200   38.8520   25.5390 C.3      12 GLL5        0.0000 
     57 CA         -6.4930   36.0760   28.2470 C.3       8 GLP5        0.0000 
     58 CA         -6.0795   38.2610   23.1490 C.3       4 GLC5        0.0000 
     59 CA         -5.7450   39.8480   24.6430 C.3      12 GLL5        0.0000 
     60 CA         -6.4140   36.6740   21.6550 C.3       8 GLP5        0.0000 
     61 N          -8.9430   39.1445   24.2415 N.am      2 SEC2        0.0000 
     62 N          -7.7070   39.3250   24.7550 N.am     10 SEL2        0.0000 
     63 N         -10.1790   38.9640   23.7280 N.am      6 SEP2        0.0000 
     64 CA         -0.3438   32.4435   18.6550 C.3       4 GLC5        0.0000 
     65 CA         -0.7650   32.4050   20.8420 C.3      12 GLL5        0.0000 
     66 CA         -0.6250   32.1740   16.5470 C.3       8 GLP5        0.0000 
     67 CA         -2.7128   36.5615   21.3537 C.3       4 GLC5        0.0000 
     68 CA         -0.8620   37.5510   21.6550 C.3      12 GLL5        0.0000 
     69 CA         -0.3395   36.4438   24.9653 C.3       4 GLC5        0.0000 
     70 CA         -1.2790   37.2030   22.9340 C.3      12 GLL5        0.0000 
     71 CA          0.5750   36.3690   26.8190 C.3       8 GLP5        0.0000 
     72 CA         -2.2180   35.9375   20.6863 C.3       4 GLC5        0.0000 
     73 CA          0.0320   35.4040   21.2070 C.3      12 GLL5        0.0000 
     74 CA          0.0649   38.8582   21.9246 C.3       4 GLC5        0.0000 
     75 CA         -0.1940   36.8540   20.7120 C.3      12 GLL5        0.0000 
     76 CA          0.7620   40.6010   22.3460 C.3       8 GLP5        0.0000 
     77 CA         -2.6230   35.5938   21.6620 C.3       4 GLC5        0.0000 
     78 CA         -1.2290   35.8340   23.2890 C.3      12 GLL5        0.0000 
@<TRIPOS>BOND
@<TRIPOS>SUBSTRUCTURE
     1 ALC1       13 GROUP        1 X    ALC  0     ROOT ALC X 1
     2 SEC2        1 GROUP        1 X    SEC  0     **** SEC X 2
     3 LYC4       44 GROUP        1 X    LYC  0     **** LYC X 4
     4 GLC5        4 GROUP        1 X    GLC  0     **** GLC X 6
     5 ALP1       15 GROUP        1 Y    ALP  0     ROOT ALP Y 8
     6 SEP2        3 GROUP        1 Y    SEP  0     **** SEP Y 9
     7 LYP4       46 GROUP        1 Y    LYP  0     **** LYP Y 11
     8 GLP5        6 GROUP        1 Y    GLP  0     **** GLP Y 13
     9 ALL1       14 GROUP        1 Z    ALL  0     ROOT ALL Z 15
    10 SEL2        2 GROUP        1 Z    SEL  0     **** SEL Z 16
    11 LYL4       45 GROUP        1 Z    LYL  0     **** LYL Z 18
    12 GLL5        5 GROUP        1 Z    GLL  0     **** GLL Z 20
@<TRIPOS>SET

