#    Name: 3dfr_MTX_1_ligand
#    Modification time : Mon Mar 24 23:15:09 2014

@<TRIPOS>MOLECULE
3dfr_MTX_1_ligand
   53    55     1     0     0
SMALL
NO_CHARGES


@<TRIPOS>ATOM
      1 N1         -4.3220   30.5500   21.0110 N.ar      1 MTX164      0.0000 
      2 C2         -4.3940   29.3550   21.7390 C.ar      1 MTX164      0.0000 
      3 NA2        -5.6450   28.8070   21.8600 N.pl3     1 MTX164      0.0000 
      4 N3         -3.2880   28.7830   22.2520 N.ar      1 MTX164      0.0000 
      5 C4         -2.0190   29.2740   22.2340 C.ar      1 MTX164      0.0000 
      6 NA4        -0.9740   28.7080   22.7850 N.pl3     1 MTX164      0.0000 
      7 C4A        -1.9330   30.5690   21.5330 C.ar      1 MTX164      0.0000 
      8 N5         -0.7580   31.2350   21.4960 N.ar      1 MTX164      0.0000 
      9 C6         -0.7650   32.4050   20.8420 C.ar      1 MTX164      0.0000 
     10 C7         -1.9440   32.8030   20.2170 C.ar      1 MTX164      0.0000 
     11 N8         -3.0540   32.3240   20.2350 N.ar      1 MTX164      0.0000 
     12 C8A        -3.0830   31.1160   20.8980 C.ar      1 MTX164      0.0000 
     13 C9          0.6400   33.0210   20.6840 C.3       1 MTX164      0.0000 
     14 N10         0.5780   34.3840   20.4880 N.pl3     1 MTX164      0.0000 
     15 CM          1.3080   34.8130   19.2270 C.3       1 MTX164      0.0000 
     16 C11        -1.2790   37.2030   22.9340 C.ar      1 MTX164      0.0000 
     17 C12        -0.8620   37.5510   21.6550 C.ar      1 MTX164      0.0000 
     18 C13        -0.1940   36.8540   20.7120 C.ar      1 MTX164      0.0000 
     19 C14         0.0320   35.4040   21.2070 C.ar      1 MTX164      0.0000 
     20 C15        -0.5530   35.0490   22.5330 C.ar      1 MTX164      0.0000 
     21 C16        -1.2290   35.8340   23.2890 C.ar      1 MTX164      0.0000 
     22 C          -1.9650   38.1300   23.5410 C.2       1 MTX164      0.0000 
     23 O          -2.1380   39.3370   23.4290 O.2       1 MTX164      0.0000 
     24 N          -2.9250   37.9740   24.4190 N.am      1 MTX164      0.0000 
     25 CA         -3.5710   38.5720   25.4550 C.3       1 MTX164      0.0000 
     26 CT         -3.4100   37.7690   26.7440 C.2       1 MTX164      0.0000 
     27 O1         -3.3490   36.5800   27.0050 O.co2     1 MTX164      0.0000 
     28 O2         -3.6070   38.6340   27.7990 O.co2     1 MTX164      0.0000 
     29 CB         -5.1200   38.8520   25.5390 C.3       1 MTX164      0.0000 
     30 CG         -5.7450   39.8480   24.6430 C.3       1 MTX164      0.0000 
     31 CD         -7.1320   39.9100   23.7190 C.2       1 MTX164      0.0000 
     32 OE1        -7.2900   40.7060   22.6170 O.co2     1 MTX164      0.0000 
     33 OE2        -7.7070   39.3250   24.7550 O.co2     1 MTX164      0.0000 
     34 H          -5.7123   27.9842   22.4244 H         1 MTX164      0.0000 
     35 H          -6.3807   29.2781   21.3733 H         1 MTX164      0.0000 
     36 H          -0.0965   28.8705   22.3338 H         1 MTX164      0.0000 
     37 H          -1.1495   28.1653   23.6064 H         1 MTX164      0.0000 
     38 H          -1.7678   33.7411   19.6018 H         1 MTX164      0.0000 
     39 H           1.1243   32.4845   19.8424 H         1 MTX164      0.0000 
     40 H           1.2091   32.7402   21.5938 H         1 MTX164      0.0000 
     41 H          -1.1344   38.5956   21.3691 H         1 MTX164      0.0000 
     42 H           0.1274   37.1033   19.8664 H         1 MTX164      0.0000 
     43 H          -0.3454   34.0308   22.8055 H         1 MTX164      0.0000 
     44 H          -1.7370   35.5425   24.1334 H         1 MTX164      0.0000 
     45 H          -3.4399   36.8859   24.2538 H         1 MTX164      0.0000 
     46 H          -3.1130   39.5690   25.7552 H         1 MTX164      0.0000 
     47 H          -5.3348   39.1158   26.6185 H         1 MTX164      0.0000 
     48 H          -5.6291   37.8487   25.4153 H         1 MTX164      0.0000 
     49 H          -4.9119   40.2172   23.8550 H         1 MTX164      0.0000 
     50 H          -5.7976   40.8986   25.2303 H         1 MTX164      0.0000 
     51 H           2.2775   34.5700   19.2582 H         1 MTX164      0.0000 
     52 H           0.9239   34.3818   18.4106 H         1 MTX164      0.0000 
     53 H           1.2580   35.8019   19.0872 H         1 MTX164      0.0000 
@<TRIPOS>BOND
     1    2    1 ar   
     2   12    1 ar   
     3    3    2 1    
     4    4    2 ar   
     5   34    3 1    
     6   35    3 1    
     7    5    4 ar   
     8    6    5 1    
     9    7    5 ar   
    10   36    6 1    
    11   37    6 1    
    12    8    7 ar   
    13   12    7 ar   
    14    9    8 ar   
    15   10    9 ar   
    16   13    9 1    
    17   11   10 ar   
    18   38   10 1    
    19   12   11 ar   
    20   14   13 1    
    21   39   13 1    
    22   40   13 1    
    23   15   14 1    
    24   19   14 1    
    25   51   15 1    
    26   52   15 1    
    27   53   15 1    
    28   17   16 ar   
    29   21   16 ar   
    30   22   16 1    
    31   18   17 ar   
    32   41   17 1    
    33   19   18 ar   
    34   42   18 1    
    35   20   19 ar   
    36   21   20 ar   
    37   43   20 1    
    38   44   21 1    
    39   23   22 2    
    40   24   22 am   
    41   25   24 1    
    42   45   24 1    
    43   26   25 1    
    44   29   25 1    
    45   46   25 1    
    46   27   26 ar   
    47   28   26 ar   
    48   30   29 1    
    49   47   29 1    
    50   48   29 1    
    51   31   30 1    
    52   49   30 1    
    53   50   30 1    
    54   32   31 ar   
    55   33   31 ar   
@<TRIPOS>SUBSTRUCTURE
     1 MTX164      1 GROUP   
@<TRIPOS>SET

