#    Name: 2vue_BLA_1_INTS_M
#    Modification time : Tue Mar 25 02:55:59 2014

@<TRIPOS>MOLECULE
2vue_BLA_1_INTS_M
  100     0     9     0     0
SMALL
NO_CHARGES


@<TRIPOS>ATOM
      1 CA          0.9070   16.9675   12.2455 C.3       3 GLC5        0.0000 
      2 CA         -0.9220   16.0770   12.6500 C.3       9 GLL5        0.0000 
      3 CA          2.7360   17.8580   11.8410 C.3       6 GLP5        0.0000 
      4 CA         -2.0775   14.5125   12.8670 C.3       3 GLC5        0.0000 
      5 CA         -1.2100   14.1650   14.5010 C.3       9 GLL5        0.0000 
      6 CA         -2.9450   14.8600   11.2330 C.3       6 GLP5        0.0000 
      7 CA         -1.3530   13.6610   11.7295 C.3       3 GLC5        0.0000 
      8 CA          0.2390   12.4620   12.2260 C.3       9 GLL5        0.0000 
      9 CA          0.3915   10.9465   13.7385 C.3       3 GLC5        0.0000 
     10 CA          0.5440    9.4310   15.2510 C.3       6 GLP5        0.0000 
     11 CA         -0.5765   10.8425   11.4280 C.3       3 GLC5        0.0000 
     12 CA         -1.3920    9.2230   10.6300 C.3       6 GLP5        0.0000 
     13 CA          1.5345   10.4740   13.7250 C.3       3 GLC5        0.0000 
     14 CA          1.5750   12.1660   12.9910 C.3       9 GLL5        0.0000 
     15 CA          1.4940    8.7820   14.4590 C.3       6 GLP5        0.0000 
     16 CA          2.5665   11.8910   14.4750 C.3       3 GLC5        0.0000 
     17 CA          3.5580   11.6160   15.9590 C.3       6 GLP5        0.0000 
     18 NZ          4.4030   14.3920   11.8765 N.4       2 LYC4        0.0000 
     19 NZ          3.6310   13.5510   12.9810 N.4       8 LYL4        0.0000 
     20 NZ          5.1750   15.2330   10.7720 N.4       5 LYP4        0.0000 
     21 NZ          4.1235   13.1910   10.6625 N.4       2 LYC4        0.0000 
     22 NZ          3.1830   12.3440   11.1180 N.4       8 LYL4        0.0000 
     23 N           4.1235   13.1910   10.6625 N.am      1 SEC2        0.0000 
     24 N           3.1830   12.3440   11.1180 N.am      7 SEL2        0.0000 
     25 N           5.0640   14.0380   10.2070 N.am      4 SEP2        0.0000 
     26 CA         -2.4000   16.7410   12.0450 C.3       3 GLC5        0.0000 
     27 CA         -1.5140   17.2080   13.3030 C.3       9 GLL5        0.0000 
     28 CA         -3.2860   16.2740   10.7870 C.3       6 GLP5        0.0000 
     29 CA          0.0175   18.6310   12.8750 C.3       3 GLC5        0.0000 
     30 CA          1.5490   20.0540   12.4470 C.3       6 GLP5        0.0000 
     31 CA         -3.0645   17.1875   13.1260 C.3       3 GLC5        0.0000 
     32 CA         -1.6630   17.5600   14.6720 C.3       9 GLL5        0.0000 
     33 CA         -4.4660   16.8150   11.5800 C.3       6 GLP5        0.0000 
     34 CA          1.8625   18.2860   14.0115 C.3       3 GLC5        0.0000 
     35 CA          0.8740   17.3190   15.6020 C.3       9 GLL5        0.0000 
     36 CA          2.8510   19.2530   12.4210 C.3       6 GLP5        0.0000 
     37 CA          0.6350   19.2180   15.2775 C.3       3 GLC5        0.0000 
     38 CA          0.3960   21.1170   14.9530 C.3       6 GLP5        0.0000 
     39 CA          2.3475   17.8655   16.0405 C.3       3 GLC5        0.0000 
     40 CA          3.8210   18.4120   16.4790 C.3       6 GLP5        0.0000 
     41 CA         -0.4195   20.8755   17.1950 C.3       3 GLC5        0.0000 
     42 CA         -0.5000   19.5000   18.7680 C.3       9 GLL5        0.0000 
     43 CA         -0.3390   22.2510   15.6220 C.3       6 GLP5        0.0000 
     44 CA         -0.3275   21.5445   19.4915 C.3       3 GLC5        0.0000 
     45 CA         -0.1550   23.5890   20.2150 C.3       6 GLP5        0.0000 
     46 CA         -0.6300   19.0605   20.8105 C.3       3 GLC5        0.0000 
     47 CA         -0.7600   18.6210   22.8530 C.3       6 GLP5        0.0000 
     48 CA          4.3285    4.7175   11.1235 C.3       3 GLC5        0.0000 
     49 CA          3.1670    6.0280   10.4880 C.3       9 GLL5        0.0000 
     50 CA          5.4900    3.4070   11.7590 C.3       6 GLP5        0.0000 
     51 CA          3.5705    5.4290    8.8260 C.3       3 GLC5        0.0000 
     52 CA          3.9740    4.8300    7.1640 C.3       6 GLP5        0.0000 
     53 N           3.0790    7.6885   12.7845 N.am      1 SEC2        0.0000 
     54 N           3.5570    8.6160   11.7720 N.am      7 SEL2        0.0000 
     55 N           2.6010    6.7610   13.7970 N.am      4 SEP2        0.0000 
     56 CA         -1.4820    6.7370    6.9275 C.3       3 GLC5        0.0000 
     57 CA         -0.0410    6.6380    7.8210 C.3       9 GLL5        0.0000 
     58 CA         -2.9230    6.8360    6.0340 C.3       6 GLP5        0.0000 
     59 CA          2.4415   10.7550    7.4715 C.3       3 GLC5        0.0000 
     60 CA          0.9680   10.0690    8.1140 C.3       9 GLL5        0.0000 
     61 CA          3.9150   11.4410    6.8290 C.3       6 GLP5        0.0000 
     62 CA         -2.2855   15.4680    8.1130 C.3       3 GLC5        0.0000 
     63 CA         -0.9910   14.6250    6.9390 C.3       9 GLL5        0.0000 
     64 CA         -3.5800   16.3110    9.2870 C.3       6 GLP5        0.0000 
     65 NZ          3.2445   15.2010    5.7535 N.4       2 LYC4        0.0000 
     66 NZ          1.7900   15.5070    5.4780 N.4       8 LYL4        0.0000 
     67 NZ          4.6990   14.8950    6.0290 N.4       5 LYP4        0.0000 
     68 NZ          3.0925   14.1835    5.3460 N.4       2 LYC4        0.0000 
     69 NZ          1.4860   13.4720    4.6630 N.4       8 LYL4        0.0000 
     70 CA          1.5645   16.3323   11.1170 C.3       3 GLC5        0.0000 
     71 CA          0.0830   14.9250   11.0420 C.3       9 GLL5        0.0000 
     72 CA          2.1013   13.5098    8.1590 C.3       3 GLC5        0.0000 
     73 CA          0.7030   14.6880    9.7440 C.3       9 GLL5        0.0000 
     74 CA          3.5980   12.9110    6.9980 C.3       6 GLP5        0.0000 
     75 CA         -1.8150   15.0299   11.9419 C.3       3 GLC5        0.0000 
     76 CA         -0.1370   13.9590   12.1620 C.3       9 GLL5        0.0000 
     77 CA         -0.4081   19.4631   15.5068 C.3       3 GLC5        0.0000 
     78 CA          1.1852   19.1295   18.1600 C.3       3 GLC5        0.0000 
     79 CA         -0.8890   18.2700   18.2300 C.3       9 GLL5        0.0000 
     80 CA          3.0650   19.3740   17.8210 C.3       6 GLP5        0.0000 
     81 CA         -0.1605   17.3135   19.2680 C.3       3 GLC5        0.0000 
     82 CA          0.4730   15.8030   20.3670 C.3       6 GLP5        0.0000 
     83 CA          0.4318    8.3965   10.0475 C.3       3 GLC5        0.0000 
     84 CA          2.6260    7.3850    9.9980 C.3       9 GLL5        0.0000 
     85 CA          3.1147    6.2000    8.3145 C.3       3 GLC5        0.0000 
     86 CA          1.8850    7.7550    8.9320 C.3       9 GLL5        0.0000 
     87 CA         -0.0337    9.4435    9.5968 C.3       3 GLC5        0.0000 
     88 CA          1.6810    9.2590    9.0130 C.3       9 GLL5        0.0000 
     89 CA          3.5961    8.9962    8.6095 C.3       3 GLC5        0.0000 
     90 CA          5.2240    9.5780    7.9800 C.3       6 GLP5        0.0000 
     91 CA         -0.7320    6.4605    9.1440 C.3       3 GLC5        0.0000 
     92 CA          1.3990    6.8660    7.9230 C.3       9 GLL5        0.0000 
     93 CA         -2.1430    6.1690   10.4160 C.3       6 GLP5        0.0000 
     94 CA          0.3405    4.9275    7.9195 C.3       3 GLC5        0.0000 
     95 CA          0.0020    3.1030    7.9670 C.3       6 GLP5        0.0000 
     96 CA          2.3265    5.7910    7.5180 C.3       3 GLC5        0.0000 
     97 CA          1.6997   12.8537    7.2115 C.3       3 GLC5        0.0000 
     98 CA         -0.1540   12.1350    7.2090 C.3       9 GLL5        0.0000 
     99 CA         -1.2477   14.5139   10.4387 C.3       3 GLC5        0.0000 
    100 CA          0.5060   13.5290    8.8960 C.3       9 GLL5        0.0000 
@<TRIPOS>BOND
@<TRIPOS>SUBSTRUCTURE
     1 SEC2       23 GROUP        1 X    SEC  0     ROOT SEC X 2
     2 LYC4       18 GROUP        1 X    LYC  0     **** LYC X 4
     3 GLC5        1 GROUP        1 X    GLC  0     **** GLC X 6
     4 SEP2       25 GROUP        1 Y    SEP  0     ROOT SEP Y 9
     5 LYP4       20 GROUP        1 Y    LYP  0     **** LYP Y 11
     6 GLP5        3 GROUP        1 Y    GLP  0     **** GLP Y 13
     7 SEL2       24 GROUP        1 Z    SEL  0     ROOT SEL Z 16
     8 LYL4       19 GROUP        1 Z    LYL  0     **** LYL Z 18
     9 GLL5        2 GROUP        1 Z    GLL  0     **** GLL Z 20
@<TRIPOS>SET

