#    Name: 2vue_BLA_1_ligand
#    Modification time : Tue Mar 25 02:55:59 2014

@<TRIPOS>MOLECULE
2vue_BLA_1_ligand
   71    74     1     0     0
SMALL
NO_CHARGES


@<TRIPOS>ATOM
      1 CHA         0.7030   14.6880    9.7440 C.2       1 BLA2001     0.0000 
      2 NA         -0.4020   16.1730   11.3870 N.pl3     1 BLA2001     0.0000 
      3 C1A         0.0830   14.9250   11.0420 C.2       1 BLA2001     0.0000 
      4 C2A        -0.1370   13.9590   12.1620 C.2       1 BLA2001     0.0000 
      5 C3A        -0.7590   14.6860   13.1410 C.2       1 BLA2001     0.0000 
      6 C4A        -0.9220   16.0770   12.6500 C.2       1 BLA2001     0.0000 
      7 CMA        -1.2100   14.1650   14.5010 C.3       1 BLA2001     0.0000 
      8 CAA         0.2390   12.4620   12.2260 C.3       1 BLA2001     0.0000 
      9 CBA         1.5750   12.1660   12.9910 C.3       1 BLA2001     0.0000 
     10 CGA         2.8660   12.7510   12.3980 C.2       1 BLA2001     0.0000 
     11 O1A         3.6310   13.5510   12.9810 O.co2     1 BLA2001     0.0000 
     12 O2A         3.1830   12.3440   11.1180 O.co2     1 BLA2001     0.0000 
     13 CHB        -1.5140   17.2080   13.3030 C.2       1 BLA2001     0.0000 
     14 NB         -2.8940   17.9020   15.1660 N.am      1 BLA2001     0.0000 
     15 C1B        -1.6630   17.5600   14.6720 C.2       1 BLA2001     0.0000 
     16 C2B        -0.6120   17.6250   15.7500 C.2       1 BLA2001     0.0000 
     17 C3B        -1.2870   18.0260   16.9100 C.2       1 BLA2001     0.0000 
     18 C4B        -2.6800   18.1810   16.4930 C.2       1 BLA2001     0.0000 
     19 CMB         0.8740   17.3190   15.6020 C.3       1 BLA2001     0.0000 
     20 OB         -3.6060   18.5280   17.2340 O.2       1 BLA2001     0.0000 
     21 CAB        -0.8890   18.2700   18.2300 C.2       1 BLA2001     0.0000 
     22 CBB        -0.5000   19.5000   18.7680 C.2       1 BLA2001     0.0000 
     23 NC          2.3190    9.6930   10.1270 N.am      1 BLA2001     0.0000 
     24 C1C         2.8910    8.5880   10.7270 C.2       1 BLA2001     0.0000 
     25 C2C         2.6260    7.3850    9.9980 C.2       1 BLA2001     0.0000 
     26 C3C         1.8850    7.7550    8.9320 C.2       1 BLA2001     0.0000 
     27 C4C         1.6810    9.2590    9.0130 C.2       1 BLA2001     0.0000 
     28 CMC         3.1670    6.0280   10.4880 C.3       1 BLA2001     0.0000 
     29 OC          3.5570    8.6160   11.7720 O.2       1 BLA2001     0.0000 
     30 CAC         1.3990    6.8660    7.9230 C.2       1 BLA2001     0.0000 
     31 CBC        -0.0410    6.6380    7.8210 C.2       1 BLA2001     0.0000 
     32 CHD         0.9680   10.0690    8.1140 C.2       1 BLA2001     0.0000 
     33 ND          1.0370   12.2880    9.2070 N.2       1 BLA2001     0.0000 
     34 C1D         0.6500   11.4290    8.1980 C.2       1 BLA2001     0.0000 
     35 C2D        -0.1540   12.1350    7.2090 C.2       1 BLA2001     0.0000 
     36 C3D        -0.2430   13.4580    7.6410 C.2       1 BLA2001     0.0000 
     37 C4D         0.5060   13.5290    8.8960 C.2       1 BLA2001     0.0000 
     38 CMD        -0.7890   11.5450    5.9250 C.3       1 BLA2001     0.0000 
     39 CAD        -0.9910   14.6250    6.9390 C.3       1 BLA2001     0.0000 
     40 CBD        -0.5420   14.8230    5.4290 C.3       1 BLA2001     0.0000 
     41 CGD         0.9650   14.6300    5.1940 C.2       1 BLA2001     0.0000 
     42 O1D         1.7900   15.5070    5.4780 O.co2     1 BLA2001     0.0000 
     43 O2D         1.4860   13.4720    4.6630 O.co2     1 BLA2001     0.0000 
     44 H           1.3584   15.4346    9.3901 H         1 BLA2001     0.0000 
     45 H          -0.3755   16.9497   10.8421 H         1 BLA2001     0.0000 
     46 H           0.3341   12.0709   11.2049 H         1 BLA2001     0.0000 
     47 H          -0.5697   11.9087   12.7205 H         1 BLA2001     0.0000 
     48 H           1.6821   11.0625   13.0716 H         1 BLA2001     0.0000 
     49 H           1.4573   12.5337   14.0334 H         1 BLA2001     0.0000 
     50 H          -1.9379   17.9522   12.5977 H         1 BLA2001     0.0000 
     51 H          -3.7052   17.9382   14.7016 H         1 BLA2001     0.0000 
     52 H          -0.8822   17.4282   18.8942 H         1 BLA2001     0.0000 
     53 H           2.3720   10.5861   10.4483 H         1 BLA2001     0.0000 
     54 H           2.0216    6.4017    7.2915 H         1 BLA2001     0.0000 
     55 H           0.6087    9.5592    7.2153 H         1 BLA2001     0.0000 
     56 H          -0.7962   15.5525    7.4732 H         1 BLA2001     0.0000 
     57 H          -2.0608   14.4271    6.9497 H         1 BLA2001     0.0000 
     58 H          -0.8360   15.8332    5.1244 H         1 BLA2001     0.0000 
     59 H          -1.1046   14.1086    4.8184 H         1 BLA2001     0.0000 
     60 H          -0.4430   13.8107   15.0360 H         1 BLA2001     0.0000 
     61 H          -1.6429   14.8813   15.0482 H         1 BLA2001     0.0000 
     62 H          -1.8737   13.4222   14.4127 H         1 BLA2001     0.0000 
     63 H           1.3128   17.9221   14.9359 H         1 BLA2001     0.0000 
     64 H           1.3642   17.4311   16.4664 H         1 BLA2001     0.0000 
     65 H           1.0311   16.3802   15.2955 H         1 BLA2001     0.0000 
     66 H           4.1657    6.0227   10.5385 H         1 BLA2001     0.0000 
     67 H           2.8262    5.7997   11.4000 H         1 BLA2001     0.0000 
     68 H           2.9003    5.2803    9.8798 H         1 BLA2001     0.0000 
     69 H          -0.0977   11.1701    5.3073 H         1 BLA2001     0.0000 
     70 H          -1.4283   10.8048    6.1332 H         1 BLA2001     0.0000 
     71 H          -1.2977   12.2357    5.4111 H         1 BLA2001     0.0000 
@<TRIPOS>BOND
     1    3    1 1    
     2   37    1 2    
     3   44    1 1    
     4    3    2 1    
     5    6    2 1    
     6   45    2 1    
     7    4    3 2    
     8    5    4 1    
     9    8    4 1    
    10    6    5 2    
    11    7    5 1    
    12   13    6 1    
    13   60    7 1    
    14   61    7 1    
    15   62    7 1    
    16    9    8 1    
    17   46    8 1    
    18   47    8 1    
    19   10    9 1    
    20   48    9 1    
    21   49    9 1    
    22   11   10 ar   
    23   12   10 ar   
    24   15   13 2    
    25   50   13 1    
    26   15   14 1    
    27   18   14 am   
    28   51   14 1    
    29   16   15 1    
    30   17   16 2    
    31   19   16 1    
    32   18   17 1    
    33   21   17 1    
    34   20   18 2    
    35   63   19 1    
    36   64   19 1    
    37   65   19 1    
    38   22   21 2    
    39   52   21 1    
    40   24   23 am   
    41   27   23 1    
    42   53   23 1    
    43   25   24 1    
    44   29   24 2    
    45   26   25 2    
    46   28   25 1    
    47   27   26 1    
    48   30   26 1    
    49   32   27 2    
    50   66   28 1    
    51   67   28 1    
    52   68   28 1    
    53   31   30 2    
    54   54   30 1    
    55   34   32 1    
    56   55   32 1    
    57   34   33 2    
    58   37   33 1    
    59   35   34 1    
    60   36   35 2    
    61   38   35 1    
    62   37   36 1    
    63   39   36 1    
    64   69   38 1    
    65   70   38 1    
    66   71   38 1    
    67   40   39 1    
    68   56   39 1    
    69   57   39 1    
    70   41   40 1    
    71   58   40 1    
    72   59   40 1    
    73   42   41 ar   
    74   43   41 ar   
@<TRIPOS>SUBSTRUCTURE
     1 BLA2001     1 GROUP   
@<TRIPOS>SET

