#    Name: 4mqf_2BQ_1_INTS_M
#    Modification time : Tue Mar 25 12:20:55 2014

@<TRIPOS>MOLECULE
4mqf_2BQ_1_INTS_M
   44     0    12     0     0
SMALL
NO_CHARGES


@<TRIPOS>ATOM
      1 CA        -50.4375   24.5470  -21.4210 C.3       4 GLC5        0.0000 
      2 CA        -51.2800   23.5250  -22.7750 C.3      12 GLL5        0.0000 
      3 CA        -49.5950   25.5690  -20.0670 C.3       8 GLP5        0.0000 
      4 CA        -51.8975   25.2200  -22.3815 C.3       4 GLC5        0.0000 
      5 CA        -52.5150   26.9150  -21.9880 C.3       8 GLP5        0.0000 
      6 CA        -48.0915   23.8245  -27.6830 C.3       4 GLC5        0.0000 
      7 CA        -49.3720   22.8770  -26.2860 C.3      12 GLL5        0.0000 
      8 CA        -46.8110   24.7720  -29.0800 C.3       8 GLP5        0.0000 
      9 CA        -49.1295   18.7925  -24.9845 C.3       4 GLC5        0.0000 
     10 CA        -49.8050   20.7330  -25.2840 C.3      12 GLL5        0.0000 
     11 CA        -48.4540   16.8520  -24.6850 C.3       8 GLP5        0.0000 
     12 N         -47.3520   23.0850  -28.0315 N.am      2 SEC2        0.0000 
     13 N         -48.0160   21.8330  -28.3290 N.am     10 SEL2        0.0000 
     14 N         -46.6880   24.3370  -27.7340 N.am      6 SEP2        0.0000 
     15 O         -47.3890   21.0325  -29.2250 O.2       1 ALC1        0.0000 
     16 O         -48.0160   21.8330  -28.3290 O.2       9 ALL1        0.0000 
     17 O         -46.7620   20.2320  -30.1210 O.2       5 ALP1        0.0000 
     18 CA        -49.8220   18.4245  -28.2460 C.3       4 GLC5        0.0000 
     19 CA        -49.6220   20.1200  -28.4030 C.3      12 GLL5        0.0000 
     20 CA        -50.0220   16.7290  -28.0890 C.3       8 GLP5        0.0000 
     21 CA        -49.2940   20.7580  -30.3350 C.3       4 GLC5        0.0000 
     22 CA        -48.9660   21.3960  -32.2670 C.3       8 GLP5        0.0000 
     23 CA        -50.7560   19.5700  -29.9370 C.3       4 GLC5        0.0000 
     24 CA        -51.8900   19.0200  -31.4710 C.3       8 GLP5        0.0000 
     25 OD1       -51.7855   20.4775  -29.2245 O.co2     3 ASC3        0.0000 
     26 OD1       -50.5940   21.0840  -28.9240 O.co2    11 ASL3        0.0000 
     27 OD1       -52.9770   19.8710  -29.5250 O.co2     7 ASP3        0.0000 
     28 O         -50.0955   21.6460  -30.1345 O.2       1 ALC1        0.0000 
     29 O         -50.5940   21.0840  -28.9240 O.2       9 ALL1        0.0000 
     30 O         -49.5970   22.2080  -31.3450 O.2       5 ALP1        0.0000 
     31 O         -51.7855   20.4775  -29.2245 O.2       1 ALC1        0.0000 
     32 O         -52.9770   19.8710  -29.5250 O.2       5 ALP1        0.0000 
     33 N         -44.2140   21.8705  -27.2490 N.am      2 SEC2        0.0000 
     34 N         -45.5150   21.5160  -27.0430 N.am     10 SEL2        0.0000 
     35 N         -42.9130   22.2250  -27.4550 N.am      6 SEP2        0.0000 
     36 N         -45.2540   22.4000  -28.3830 N.am      2 SEC2        0.0000 
     37 N         -44.9930   23.2840  -29.7230 N.am      6 SEP2        0.0000 
     38 N         -46.1015   22.9265  -27.3885 N.am      2 SEC2        0.0000 
     39 N         -43.8525   19.2385  -26.4755 N.am      2 SEC2        0.0000 
     40 N         -45.1680   19.3430  -25.9100 N.am     10 SEL2        0.0000 
     41 N         -42.5370   19.1340  -27.0410 N.am      6 SEP2        0.0000 
     42 CA        -48.4660   18.4610  -27.2673 C.3       4 GLC5        0.0000 
     43 CA        -47.4830   19.8770  -27.0550 C.3      12 GLL5        0.0000 
     44 CA        -48.8940   16.5700  -27.2550 C.3       8 GLP5        0.0000 
@<TRIPOS>BOND
@<TRIPOS>SUBSTRUCTURE
     1 ALC1       15 GROUP        1 X    ALC  0     ROOT ALC X 1
     2 SEC2       12 GROUP        1 X    SEC  0     **** SEC X 2
     3 ASC3       25 GROUP        1 X    ASC  0     **** ASC X 3
     4 GLC5        1 GROUP        1 X    GLC  0     **** GLC X 6
     5 ALP1       17 GROUP        1 Y    ALP  0     ROOT ALP Y 8
     6 SEP2       14 GROUP        1 Y    SEP  0     **** SEP Y 9
     7 ASP3       27 GROUP        1 Y    ASP  0     **** ASP Y 10
     8 GLP5        3 GROUP        1 Y    GLP  0     **** GLP Y 13
     9 ALL1       16 GROUP        1 Z    ALL  0     ROOT ALL Z 15
    10 SEL2       13 GROUP        1 Z    SEL  0     **** SEL Z 16
    11 ASL3       26 GROUP        1 Z    ASL  0     **** ASL Z 17
    12 GLL5        2 GROUP        1 Z    GLL  0     **** GLL Z 20
@<TRIPOS>SET

