#    Name: 4mqf_2BQ_1_ligand
#    Modification time : Tue Mar 25 12:20:55 2014

@<TRIPOS>MOLECULE
4mqf_2BQ_1_ligand
   28    28     1     0     0
SMALL
NO_CHARGES


@<TRIPOS>ATOM
      1 CL        -51.2800   23.5250  -22.7750 Cl        1 2BQ501      0.0000 
      2 C3        -50.4880   22.7430  -24.1650 C.ar      1 2BQ501      0.0000 
      3 C2        -50.4210   21.3560  -24.1960 C.ar      1 2BQ501      0.0000 
      4 C4        -49.9360   23.5190  -25.1850 C.ar      1 2BQ501      0.0000 
      5 C5        -49.3720   22.8770  -26.2860 C.ar      1 2BQ501      0.0000 
      6 C6        -49.2750   21.4850  -26.3380 C.ar      1 2BQ501      0.0000 
      7 C1        -49.8050   20.7330  -25.2840 C.ar      1 2BQ501      0.0000 
      8 C7        -48.5930   20.8270  -27.5040 C.3       1 2BQ501      0.0000 
      9 O4        -48.0160   21.8330  -28.3290 O.3       1 2BQ501      0.0000 
     10 C8        -49.6220   20.1200  -28.4030 C.3       1 2BQ501      0.0000 
     11 N         -50.5940   21.0840  -28.9240 N.4       1 2BQ501      0.0000 
     12 C9        -47.4830   19.8770  -27.0550 C.3       1 2BQ501      0.0000 
     13 S         -46.1740   20.5500  -26.2400 S.o2      1 2BQ501      0.0000 
     14 O1        -46.5570   21.2040  -25.0340 O.co2     1 2BQ501      0.0000 
     15 O2        -45.5150   21.5160  -27.0430 O.co2     1 2BQ501      0.0000 
     16 O3        -45.1680   19.3430  -25.9100 O.co2     1 2BQ501      0.0000 
     17 H         -50.8143   20.7979  -23.4381 H         1 2BQ501      0.0000 
     18 H         -49.9455   24.5355  -25.1253 H         1 2BQ501      0.0000 
     19 H         -49.0189   23.4403  -27.0788 H         1 2BQ501      0.0000 
     20 H         -49.7394   19.7030  -25.3116 H         1 2BQ501      0.0000 
     21 H         -50.1169   19.3476  -27.8082 H         1 2BQ501      0.0000 
     22 H         -49.0805   19.6310  -29.2173 H         1 2BQ501      0.0000 
     23 H         -47.0421   19.3496  -27.9176 H         1 2BQ501      0.0000 
     24 H         -47.8768   19.1038  -26.3740 H         1 2BQ501      0.0000 
     25 H         -50.2972   21.4772  -29.7942 H         1 2BQ501      0.0000 
     26 H         -51.4869   20.6625  -29.0822 H         1 2BQ501      0.0000 
     27 H         -50.7372   21.8456  -28.2919 H         1 2BQ501      0.0000 
     28 H         -47.5337   21.3327  -29.0481 H         1 2BQ501      0.0000 
@<TRIPOS>BOND
     1    2    1 1    
     2    3    2 ar   
     3    4    2 ar   
     4    7    3 ar   
     5   17    3 1    
     6    5    4 ar   
     7   18    4 1    
     8    6    5 ar   
     9   19    5 1    
    10    7    6 ar   
    11    8    6 1    
    12   20    7 1    
    13    9    8 1    
    14   10    8 1    
    15   12    8 1    
    16   28    9 1    
    17   11   10 1    
    18   21   10 1    
    19   22   10 1    
    20   25   11 1    
    21   26   11 1    
    22   27   11 1    
    23   13   12 1    
    24   23   12 1    
    25   24   12 1    
    26   14   13 ar   
    27   15   13 ar   
    28   16   13 ar   
@<TRIPOS>SUBSTRUCTURE
     1 2BQ501      1 GROUP   
@<TRIPOS>SET

