#    Name: 3bl7_DD1_1_INTS_M
#    Modification time : Mon Mar 24 19:49:58 2014

@<TRIPOS>MOLECULE
3bl7_DD1_1_INTS_M
   61     0     9     0     0
SMALL
NO_CHARGES


@<TRIPOS>ATOM
      1 CA          6.2165   -3.8470   17.0610 C.3       3 GLC5        0.0000 
      2 CA          7.8920   -3.6710   17.4080 C.3       9 GLL5        0.0000 
      3 CA          4.5410   -4.0230   16.7140 C.3       6 GLP5        0.0000 
      4 CA          5.8055   -2.4095   17.2360 C.3       3 GLC5        0.0000 
      5 CA          7.0700   -0.7960   17.7580 C.3       9 GLL5        0.0000 
      6 CA          5.6290   -3.0510   18.3465 C.3       3 GLC5        0.0000 
      7 CA          6.7170   -2.0790   19.9790 C.3       9 GLL5        0.0000 
      8 CA          3.2075   -1.1040   19.1190 C.3       3 GLC5        0.0000 
      9 CA          5.2050   -0.1730   19.3120 C.3       9 GLL5        0.0000 
     10 CA          1.2100   -2.0350   18.9260 C.3       6 GLP5        0.0000 
     11 CA          2.7885   -1.2725   23.4730 C.3       3 GLC5        0.0000 
     12 CA          4.6790   -0.5730   22.9800 C.3       9 GLL5        0.0000 
     13 CA          0.8980   -1.9720   23.9660 C.3       6 GLP5        0.0000 
     14 CA          5.2885    1.3570   23.6290 C.3       3 GLC5        0.0000 
     15 CA          5.8980    3.2870   24.2780 C.3       6 GLP5        0.0000 
     16 CA         -0.2860    2.6505   21.7215 C.3       3 GLC5        0.0000 
     17 CA          1.5010    2.5870   22.8130 C.3       9 GLL5        0.0000 
     18 CA         -2.0730    2.7140   20.6300 C.3       6 GLP5        0.0000 
     19 O           1.6460    2.9640   20.2745 O.2       1 ALC1        0.0000 
     20 O           1.9620    2.2250   21.5980 O.2       7 ALL1        0.0000 
     21 O           1.3300    3.7030   18.9510 O.2       4 ALP1        0.0000 
     22 N           1.5240    4.7635   22.4335 N.am      2 SEC2        0.0000 
     23 N           0.5870    3.5620   22.9030 N.am      8 SEL2        0.0000 
     24 N           2.4610    5.9650   21.9640 N.am      5 SEP2        0.0000 
     25 CA         -1.5390    2.9615   24.9215 C.3       3 GLC5        0.0000 
     26 CA          0.0860    3.9740   24.0990 C.3       9 GLL5        0.0000 
     27 CA         -3.1640    1.9490   25.7440 C.3       6 GLP5        0.0000 
     28 CA          0.3035    5.2130   22.3390 C.3       3 GLC5        0.0000 
     29 CA          0.5210    6.4520   20.5790 C.3       6 GLP5        0.0000 
     30 CA          2.1560    4.4020   23.6810 C.3       3 GLC5        0.0000 
     31 CA          4.2260    4.8300   23.2630 C.3       6 GLP5        0.0000 
     32 CA         -0.9935    3.3440   22.3645 C.3       3 GLC5        0.0000 
     33 O          -1.0485    5.3600   25.5570 O.2       1 ALC1        0.0000 
     34 O          -0.8390    4.9540   24.0940 O.2       7 ALL1        0.0000 
     35 O          -1.2580    5.7660   27.0200 O.2       4 ALP1        0.0000 
     36 O          -0.9970    6.0750   23.3725 O.2       1 ALC1        0.0000 
     37 O          -1.1550    7.1960   22.6510 O.2       4 ALP1        0.0000 
     38 N          -0.1900    3.5955   26.4755 N.am      2 SEC2        0.0000 
     39 N           0.4580    3.4310   25.2880 N.am      8 SEL2        0.0000 
     40 N          -0.8380    3.7600   27.6630 N.am      5 SEP2        0.0000 
     41 CA          8.4245   -4.0590   19.0325 C.3       3 GLC5        0.0000 
     42 CA          8.8480   -2.7290   17.4260 C.3       9 GLL5        0.0000 
     43 CA          8.4790   -4.9180   20.6480 C.3       6 GLP5        0.0000 
     44 CA         10.7157   -4.2325   18.5385 C.3       3 GLC5        0.0000 
     45 CA         10.1800   -3.1080   17.2790 C.3       9 GLL5        0.0000 
     46 CA         10.7500   -5.8390   19.7920 C.3       6 GLP5        0.0000 
     47 CA          7.3565   -3.4808   20.6122 C.3       3 GLC5        0.0000 
     48 CA          6.1340   -0.9415   24.1015 C.3       3 GLC5        0.0000 
     49 CA          5.6670   -0.6070   21.7940 C.3       9 GLL5        0.0000 
     50 CA          7.0950   -1.2930   25.8160 C.3       6 GLP5        0.0000 
     51 CA          4.5317    1.9545   24.5087 C.3       3 GLC5        0.0000 
     52 CA          3.3300    0.3840   25.3720 C.3       9 GLL5        0.0000 
     53 CA          2.8936    3.5939   23.8264 C.3       3 GLC5        0.0000 
     54 CA          1.9820    1.9480   24.0660 C.3       9 GLL5        0.0000 
     55 CA          1.5558    1.6887   28.3957 C.3       3 GLC5        0.0000 
     56 CA          2.7330    0.8840   26.5450 C.3       9 GLL5        0.0000 
     57 CA          0.8590    1.9880   30.2470 C.3       6 GLP5        0.0000 
     58 CA          4.4582    0.8590   27.2353 C.3       3 GLC5        0.0000 
     59 CA          5.8850    1.0840   28.5120 C.3       6 GLP5        0.0000 
     60 CA          1.7181   -0.5001   26.8341 C.3       3 GLC5        0.0000 
     61 CA          0.6450   -1.8870   27.7100 C.3       6 GLP5        0.0000 
@<TRIPOS>BOND
@<TRIPOS>SUBSTRUCTURE
     1 ALC1       19 GROUP        1 X    ALC  0     ROOT ALC X 1
     2 SEC2       22 GROUP        1 X    SEC  0     **** SEC X 2
     3 GLC5        1 GROUP        1 X    GLC  0     **** GLC X 6
     4 ALP1       21 GROUP        1 Y    ALP  0     ROOT ALP Y 8
     5 SEP2       24 GROUP        1 Y    SEP  0     **** SEP Y 9
     6 GLP5        3 GROUP        1 Y    GLP  0     **** GLP Y 13
     7 ALL1       20 GROUP        1 Z    ALL  0     ROOT ALL Z 15
     8 SEL2       23 GROUP        1 Z    SEL  0     **** SEL Z 16
     9 GLL5        2 GROUP        1 Z    GLL  0     **** GLL Z 20
@<TRIPOS>SET

