#    Name: 3bl7_DD1_1_ligand
#    Modification time : Mon Mar 24 19:49:58 2014

@<TRIPOS>MOLECULE
3bl7_DD1_1_ligand
   53    56     1     0     0
SMALL
NO_CHARGES


@<TRIPOS>ATOM
      1 F58         7.8920   -3.6710   17.4080 F         1 DD1901      0.0000 
      2 C1          8.8480   -2.7290   17.4260 C.ar      1 DD1901      0.0000 
      3 C6         10.1800   -3.1080   17.2790 C.ar      1 DD1901      0.0000 
      4 C5         11.1830   -2.1440   17.2910 C.ar      1 DD1901      0.0000 
      5 C4         10.8730   -0.7920   17.4470 C.ar      1 DD1901      0.0000 
      6 C3          9.5500   -0.3640   17.6020 C.ar      1 DD1901      0.0000 
      7 C2          8.5040   -1.2860   17.6170 C.ar      1 DD1901      0.0000 
      8 C13         7.0700   -0.7960   17.7580 C.3       1 DD1901      0.0000 
      9 N15         6.3590   -1.0270   19.0270 N.4       1 DD1901      0.0000 
     10 C21         6.7170   -2.0790   19.9790 C.3       1 DD1901      0.0000 
     11 C20         5.7510   -2.0080   21.1740 C.3       1 DD1901      0.0000 
     12 C19         5.6670   -0.6070   21.7940 C.3       1 DD1901      0.0000 
     13 C18         5.3660    0.4310   20.7050 C.3       1 DD1901      0.0000 
     14 C17         5.2050   -0.1730   19.3120 C.3       1 DD1901      0.0000 
     15 C28         4.6790   -0.5730   22.9800 C.3       1 DD1901      0.0000 
     16 O30         3.5770    0.3710   22.9480 O.3       1 DD1901      0.0000 
     17 C32         3.0010    0.8600   24.1070 C.ar      1 DD1901      0.0000 
     18 C38         1.9820    1.9480   24.0660 C.ar      1 DD1901      0.0000 
     19 C45         1.5010    2.5870   22.8130 C.ar      1 DD1901      0.0000 
     20 N54         1.9620    2.2250   21.5980 N.pl3     1 DD1901      0.0000 
     21 N46         0.5870    3.5620   22.9030 N.ar      1 DD1901      0.0000 
     22 C47         0.0860    3.9740   24.0990 C.ar      1 DD1901      0.0000 
     23 N56        -0.8390    4.9540   24.0940 N.pl3     1 DD1901      0.0000 
     24 N48         0.4580    3.4310   25.2880 N.ar      1 DD1901      0.0000 
     25 C37         1.3810    2.4480   25.3400 C.ar      1 DD1901      0.0000 
     26 C36         1.7720    1.8950   26.5440 C.ar      1 DD1901      0.0000 
     27 C35         2.7330    0.8840   26.5450 C.ar      1 DD1901      0.0000 
     28 C34         3.3300    0.3840   25.3720 C.ar      1 DD1901      0.0000 
     29 H          10.4214   -4.1002   17.1617 H         1 DD1901      0.0000 
     30 H          12.1696   -2.4301   17.1833 H         1 DD1901      0.0000 
     31 H          11.6350   -0.0919   17.4482 H         1 DD1901      0.0000 
     32 H           9.3491    0.6409   17.7057 H         1 DD1901      0.0000 
     33 H           6.4730   -1.2429   16.9067 H         1 DD1901      0.0000 
     34 H           7.0642    0.3106   17.5207 H         1 DD1901      0.0000 
     35 H           7.2161   -0.0907   19.6966 H         1 DD1901      0.0000 
     36 H           7.7278   -1.9441   20.3519 H         1 DD1901      0.0000 
     37 H           6.6276   -3.0632   19.5290 H         1 DD1901      0.0000 
     38 H           6.0813   -2.7190   21.9402 H         1 DD1901      0.0000 
     39 H           4.7519   -2.3125   20.8414 H         1 DD1901      0.0000 
     40 H           6.6740   -0.3784   22.1962 H         1 DD1901      0.0000 
     41 H           6.1809    1.1700   20.6847 H         1 DD1901      0.0000 
     42 H           4.4441    0.9685   20.9728 H         1 DD1901      0.0000 
     43 H           4.2804   -0.7472   19.2906 H         1 DD1901      0.0000 
     44 H           5.1336    0.6393   18.5908 H         1 DD1901      0.0000 
     45 H           5.2992   -0.4184   23.9141 H         1 DD1901      0.0000 
     46 H           4.2870   -1.6274   23.1056 H         1 DD1901      0.0000 
     47 H           1.6073    2.7439   20.8203 H         1 DD1901      0.0000 
     48 H           2.6174    1.4700   21.5831 H         1 DD1901      0.0000 
     49 H          -1.1627    5.2581   24.9900 H         1 DD1901      0.0000 
     50 H          -1.1194    5.2899   23.1948 H         1 DD1901      0.0000 
     51 H           1.3664    2.2180   27.4254 H         1 DD1901      0.0000 
     52 H           3.0292    0.4723   27.4623 H         1 DD1901      0.0000 
     53 H           4.0437   -0.3703   25.4623 H         1 DD1901      0.0000 
@<TRIPOS>BOND
     1    2    1 1    
     2    3    2 ar   
     3    7    2 ar   
     4    4    3 ar   
     5   29    3 1    
     6    5    4 ar   
     7   30    4 1    
     8    6    5 ar   
     9   31    5 1    
    10    7    6 ar   
    11   32    6 1    
    12    8    7 1    
    13    9    8 1    
    14   33    8 1    
    15   34    8 1    
    16   10    9 1    
    17   14    9 1    
    18   35    9 1    
    19   11   10 1    
    20   36   10 1    
    21   37   10 1    
    22   12   11 1    
    23   38   11 1    
    24   39   11 1    
    25   13   12 1    
    26   15   12 1    
    27   40   12 1    
    28   14   13 1    
    29   41   13 1    
    30   42   13 1    
    31   43   14 1    
    32   44   14 1    
    33   16   15 1    
    34   45   15 1    
    35   46   15 1    
    36   17   16 1    
    37   18   17 ar   
    38   28   17 ar   
    39   19   18 ar   
    40   25   18 ar   
    41   20   19 1    
    42   21   19 ar   
    43   47   20 1    
    44   48   20 1    
    45   22   21 ar   
    46   23   22 1    
    47   24   22 ar   
    48   49   23 1    
    49   50   23 1    
    50   25   24 ar   
    51   26   25 ar   
    52   27   26 ar   
    53   51   26 1    
    54   28   27 ar   
    55   52   27 1    
    56   53   28 1    
@<TRIPOS>SUBSTRUCTURE
     1 DD1901      1 GROUP   
@<TRIPOS>SET

