#    Name: 2e21_ANP_1_INTS_M
#    Modification time : Tue Mar 25 10:31:41 2014

@<TRIPOS>MOLECULE
2e21_ANP_1_INTS_M
   65     0    12     0     0
SMALL
NO_CHARGES


@<TRIPOS>ATOM
      1 NZ        -59.2520   -8.9250   36.5980 N.4       3 LYC4        0.0000 
      2 NZ        -59.3040   -8.6900   34.9440 N.4      11 LYL4        0.0000 
      3 NZ        -59.2000   -9.1600   38.2520 N.4       7 LYP4        0.0000 
      4 NZ        -59.5845   -7.8525   37.2020 N.4       3 LYC4        0.0000 
      5 NZ        -59.9690   -6.5450   36.1520 N.4      11 LYL4        0.0000 
      6 N         -61.4760   -6.7975   36.6355 N.am      2 SEC2        0.0000 
      7 N         -59.9690   -6.5450   36.1520 N.am     10 SEL2        0.0000 
      8 N         -62.9830   -7.0500   37.1190 N.am      6 SEP2        0.0000 
      9 N         -60.9335   -6.4575   34.8805 N.am      2 SEC2        0.0000 
     10 N         -61.8980   -6.3700   33.6090 N.am      6 SEP2        0.0000 
     11 NZ        -55.1070   -6.7130   34.9050 N.4       3 LYC4        0.0000 
     12 NZ        -55.7190   -5.2030   34.9580 N.4      11 LYL4        0.0000 
     13 NZ        -54.2010   -8.0180   33.5730 N.4       7 LYP4        0.0000 
     14 N         -54.8260   -5.9960   34.0485 N.am      2 SEC2        0.0000 
     15 N         -55.7190   -5.2030   34.9580 N.am     10 SEL2        0.0000 
     16 N         -53.9330   -6.7890   33.1390 N.am      6 SEP2        0.0000 
     17 N         -55.1070   -6.7130   34.9050 N.am      2 SEC2        0.0000 
     18 N         -54.4950   -8.2230   34.8520 N.am      6 SEP2        0.0000 
     19 NZ        -60.5030   -4.0845   37.5100 N.4       3 LYC4        0.0000 
     20 NZ        -60.0130   -4.1240   36.2060 N.4      11 LYL4        0.0000 
     21 NZ        -60.6330   -3.0030   39.5510 N.4       7 LYP4        0.0000 
     22 N         -60.5030   -4.0845   37.5100 N.am      2 SEC2        0.0000 
     23 N         -60.0130   -4.1240   36.2060 N.am     10 SEL2        0.0000 
     24 N         -60.9930   -4.0450   38.8140 N.am      6 SEP2        0.0000 
     25 CA        -62.0465   -4.3420   33.3660 C.3       4 GLC5        0.0000 
     26 CA        -62.2140   -2.6990   34.4390 C.3      12 GLL5        0.0000 
     27 CA        -61.8790   -5.9850   32.2930 C.3       8 GLP5        0.0000 
     28 CA        -64.5550   -1.4305   32.4290 C.3       4 GLC5        0.0000 
     29 CA        -63.4180   -1.7850   34.2290 C.3      12 GLL5        0.0000 
     30 CA        -65.6920   -1.0760   30.6290 C.3       8 GLP5        0.0000 
     31 N         -65.2085   -2.7555   32.3930 N.am      2 SEC2        0.0000 
     32 N         -64.1100   -2.3210   33.1040 N.am     10 SEL2        0.0000 
     33 N         -66.3070   -3.1900   31.6820 N.am      6 SEP2        0.0000 
     34 CA        -63.0195   -2.5860   38.4925 C.3       4 GLC5        0.0000 
     35 CA        -63.1460   -2.3100   36.4850 C.3      12 GLL5        0.0000 
     36 CA        -62.8930   -2.8620   40.5000 C.3       8 GLP5        0.0000 
     37 CA        -64.0290    2.4100   38.0670 C.3       4 GLC5        0.0000 
     38 CA        -63.5130    1.2940   39.4470 C.3      12 GLL5        0.0000 
     39 CA        -64.5450    3.5260   36.6870 C.3       8 GLP5        0.0000 
     40 CA        -63.9420    1.0890   41.5635 C.3       4 GLC5        0.0000 
     41 CA        -64.3710    0.8840   43.6800 C.3       8 GLP5        0.0000 
     42 O         -62.9370    2.8765   41.3605 O.2       1 ALC1        0.0000 
     43 O         -62.9480    2.4190   39.8740 O.2       9 ALL1        0.0000 
     44 O         -62.9260    3.3340   42.8470 O.2       5 ALP1        0.0000 
     45 N         -65.2325    1.7955   41.1850 N.am      2 SEC2        0.0000 
     46 N         -64.7660    1.0090   39.8380 N.am     10 SEL2        0.0000 
     47 N         -65.6990    2.5820   42.5320 N.am      6 SEP2        0.0000 
     48 CA        -66.8850   -0.8060   38.3985 C.3       4 GLC5        0.0000 
     49 CA        -65.4160   -0.0460   39.3770 C.3      12 GLL5        0.0000 
     50 CA        -68.3540   -1.5660   37.4200 C.3       8 GLP5        0.0000 
     51 CA        -66.7455    1.0485   38.0380 C.3       4 GLC5        0.0000 
     52 CA        -68.0750    2.1430   36.6990 C.3       8 GLP5        0.0000 
     53 CA        -66.5520    1.6120   40.3750 C.3       4 GLC5        0.0000 
     54 CA        -67.6880    3.2700   41.3730 C.3       8 GLP5        0.0000 
     55 CA        -64.1545   -1.4540   39.9385 C.3       4 GLC5        0.0000 
     56 CA        -65.4605   -1.6615   37.6220 C.3       4 GLC5        0.0000 
     57 CA        -63.5750   -0.6360   38.0710 C.3      12 GLL5        0.0000 
     58 CA        -67.3460   -2.6870   37.1730 C.3       8 GLP5        0.0000 
     59 CA        -65.5250   -2.4295   36.5773 C.3       4 GLC5        0.0000 
     60 CA        -64.2620   -2.0340   35.4780 C.3      12 GLL5        0.0000 
     61 CA        -64.2905   -3.6595   34.0010 C.3       4 GLC5        0.0000 
     62 CA        -65.0420   -5.1810   33.0960 C.3       8 GLP5        0.0000 
     63 CA        -63.3015    1.4387   37.0840 C.3       4 GLC5        0.0000 
     64 CA        -63.3860    2.9670   35.8600 C.3       8 GLP5        0.0000 
     65 CA        -63.1368   -1.3711   39.5168 C.3       4 GLC5        0.0000 
@<TRIPOS>BOND
@<TRIPOS>SUBSTRUCTURE
     1 ALC1       42 GROUP        1 X    ALC  0     ROOT ALC X 1
     2 SEC2        6 GROUP        1 X    SEC  0     **** SEC X 2
     3 LYC4        1 GROUP        1 X    LYC  0     **** LYC X 4
     4 GLC5       25 GROUP        1 X    GLC  0     **** GLC X 6
     5 ALP1       44 GROUP        1 Y    ALP  0     ROOT ALP Y 8
     6 SEP2        8 GROUP        1 Y    SEP  0     **** SEP Y 9
     7 LYP4        3 GROUP        1 Y    LYP  0     **** LYP Y 11
     8 GLP5       27 GROUP        1 Y    GLP  0     **** GLP Y 13
     9 ALL1       43 GROUP        1 Z    ALL  0     ROOT ALL Z 15
    10 SEL2        7 GROUP        1 Z    SEL  0     **** SEL Z 16
    11 LYL4        2 GROUP        1 Z    LYL  0     **** LYL Z 18
    12 GLL5       26 GROUP        1 Z    GLL  0     **** GLL Z 20
@<TRIPOS>SET

