#    Name: 2e21_ANP_1_ligand
#    Modification time : Tue Mar 25 10:31:41 2014

@<TRIPOS>MOLECULE
2e21_ANP_1_ligand
   43    45     1     0     0
SMALL
NO_CHARGES


@<TRIPOS>ATOM
      1 PG        -59.0230   -7.2370   35.0400 P.3       1 ANP500      0.0000 
      2 O1G       -59.3040   -8.6900   34.9440 O.co2     1 ANP500      0.0000 
      3 O2G       -59.9690   -6.5450   36.1520 O.co2     1 ANP500      0.0000 
      4 O3G       -59.2210   -6.5160   33.6100 O.co2     1 ANP500      0.0000 
      5 PB        -57.0690   -5.3360   35.5610 P.3       1 ANP500      0.0000 
      6 O1B       -57.2670   -4.9380   36.9760 O.co2     1 ANP500      0.0000 
      7 O2B       -55.7190   -5.2030   34.9580 O.co2     1 ANP500      0.0000 
      8 N3B       -57.4850   -6.9070   35.4530 N.4       1 ANP500      0.0000 
      9 PA        -59.0460   -3.3830   35.3650 P.3       1 ANP500      0.0000 
     10 O1A       -60.0130   -4.1240   36.2060 O.co2     1 ANP500      0.0000 
     11 O2A       -58.1890   -2.3610   36.0100 O.co2     1 ANP500      0.0000 
     12 O3A       -58.1110   -4.4930   34.6650 O.3       1 ANP500      0.0000 
     13 O5'       -59.7750   -2.7150   34.0910 O.3       1 ANP500      0.0000 
     14 C5'       -60.9390   -1.8870   34.1990 C.3       1 ANP500      0.0000 
     15 C4'       -62.2140   -2.6990   34.4390 C.3       1 ANP500      0.0000 
     16 O4'       -62.3590   -3.1760   35.7860 O.3       1 ANP500      0.0000 
     17 C3'       -63.4180   -1.7850   34.2290 C.3       1 ANP500      0.0000 
     18 O3'       -64.1100   -2.3210   33.1040 O.3       1 ANP500      0.0000 
     19 C2'       -64.2620   -2.0340   35.4780 C.3       1 ANP500      0.0000 
     20 O2'       -65.0590   -3.1960   35.2550 O.3       1 ANP500      0.0000 
     21 C1'       -63.1460   -2.3100   36.4850 C.3       1 ANP500      0.0000 
     22 N9        -62.7440   -1.3540   37.3210 N.pl3     1 ANP500      0.0000 
     23 C8        -61.5570   -0.7510   37.3380 C.2       1 ANP500      0.0000 
     24 N7        -61.6200    0.3580   38.0720 N.2       1 ANP500      0.0000 
     25 C5        -62.8590    0.4570   38.5450 C.ar      1 ANP500      0.0000 
     26 C6        -63.5130    1.2940   39.4470 C.ar      1 ANP500      0.0000 
     27 N6        -62.9480    2.4190   39.8740 N.pl3     1 ANP500      0.0000 
     28 N1        -64.7660    1.0090   39.8380 N.ar      1 ANP500      0.0000 
     29 C2        -65.4160   -0.0460   39.3770 C.ar      1 ANP500      0.0000 
     30 N3        -64.8280   -0.8480   38.5050 N.ar      1 ANP500      0.0000 
     31 C4        -63.5750   -0.6360   38.0710 C.ar      1 ANP500      0.0000 
     32 H         -61.0944   -1.2878   33.2816 H         1 ANP500      0.0000 
     33 H         -60.8439   -1.1639   35.0314 H         1 ANP500      0.0000 
     34 H         -62.2821   -3.4883   33.7272 H         1 ANP500      0.0000 
     35 H         -63.1296   -0.8201   34.1605 H         1 ANP500      0.0000 
     36 H         -64.7585   -1.1747   35.7285 H         1 ANP500      0.0000 
     37 H         -63.7977   -3.1141   37.1846 H         1 ANP500      0.0000 
     38 H         -60.7528   -1.0766   36.8766 H         1 ANP500      0.0000 
     39 H         -62.6844    3.0749   39.1668 H         1 ANP500      0.0000 
     40 H         -62.8376    2.5077   40.8639 H         1 ANP500      0.0000 
     41 H         -66.3933   -0.2462   39.7011 H         1 ANP500      0.0000 
     42 H         -63.6331   -3.1732   32.8890 H         1 ANP500      0.0000 
     43 H         -65.4178   -3.0896   34.3277 H         1 ANP500      0.0000 
@<TRIPOS>BOND
     1    2    1 ar   
     2    3    1 ar   
     3    4    1 ar   
     4    8    1 1    
     5    6    5 ar   
     6    7    5 ar   
     7    8    5 1    
     8   12    5 1    
     9   10    9 ar   
    10   11    9 ar   
    11   12    9 1    
    12   13    9 1    
    13   14   13 1    
    14   15   14 1    
    15   32   14 1    
    16   33   14 1    
    17   16   15 1    
    18   17   15 1    
    19   34   15 1    
    20   21   16 1    
    21   18   17 1    
    22   19   17 1    
    23   35   17 1    
    24   42   18 1    
    25   20   19 1    
    26   21   19 1    
    27   36   19 1    
    28   43   20 1    
    29   22   21 1    
    30   37   21 1    
    31   23   22 1    
    32   31   22 1    
    33   24   23 2    
    34   38   23 1    
    35   25   24 1    
    36   26   25 ar   
    37   31   25 ar   
    38   27   26 1    
    39   28   26 ar   
    40   39   27 1    
    41   40   27 1    
    42   29   28 ar   
    43   30   29 ar   
    44   41   29 1    
    45   31   30 ar   
@<TRIPOS>SUBSTRUCTURE
     1 ANP500      1 GROUP   
@<TRIPOS>SET

