#    Name: 2zv9_PP2_1_INTS_M
#    Modification time : Mon Apr  7 18:50:24 2014

@<TRIPOS>MOLECULE
2zv9_PP2_1_INTS_M
   60     0     9     0     0
SMALL
NO_CHARGES


@<TRIPOS>ATOM
      1 CA         17.1970   11.7665   -6.7380 C.3       3 GLC5        0.0000 
      2 CA         16.8040    9.6510   -6.4110 C.3       9 GLL5        0.0000 
      3 CA         17.5900   13.8820   -7.0650 C.3       6 GLP5        0.0000 
      4 CA         15.7630    8.1160   -6.0085 C.3       3 GLC5        0.0000 
      5 CA         14.7220    6.5810   -5.6060 C.3       6 GLP5        0.0000 
      6 CA         17.5685    7.8000   -6.7435 C.3       3 GLC5        0.0000 
      7 CA         18.3330    5.9490   -7.0760 C.3       6 GLP5        0.0000 
      8 N          15.0230    8.6565   -7.2500 N.am      2 SEC2        0.0000 
      9 N          16.5110    9.0540   -7.5790 N.am      8 SEL2        0.0000 
     10 N          13.5350    8.2590   -6.9210 N.am      5 SEP2        0.0000 
     11 CA         16.1120    7.1250   -7.5905 C.3       3 GLC5        0.0000 
     12 CA         17.4890    8.6550   -8.4210 C.3       9 GLL5        0.0000 
     13 CA         14.7350    5.5950   -6.7600 C.3       6 GLP5        0.0000 
     14 CA         18.0380    9.7845  -10.9825 C.3       3 GLC5        0.0000 
     15 CA         19.8770    8.6460  -11.1440 C.3       9 GLL5        0.0000 
     16 CA         16.1990   10.9230  -10.8210 C.3       6 GLP5        0.0000 
     17 CA         19.3625    9.0865   -3.1555 C.3       3 GLC5        0.0000 
     18 CA         20.9030    9.3420   -4.3740 C.3       9 GLL5        0.0000 
     19 CA         17.8220    8.8310   -1.9370 C.3       6 GLP5        0.0000 
     20 CA         21.4440    7.8675   -3.0835 C.3       3 GLC5        0.0000 
     21 CA         21.9850    6.3930   -1.7930 C.3       6 GLP5        0.0000 
     22 CA         20.2265   13.2845   -5.7035 C.3       3 GLC5        0.0000 
     23 CA         20.8880   11.6170   -5.4190 C.3       9 GLL5        0.0000 
     24 CA         19.5650   14.9520   -5.9880 C.3       6 GLP5        0.0000 
     25 CA         20.6635   11.9545   -7.4800 C.3       3 GLC5        0.0000 
     26 CA         20.4390   12.2920   -9.5410 C.3       6 GLP5        0.0000 
     27 CA         22.7970   11.0375   -7.8515 C.3       3 GLC5        0.0000 
     28 CA         22.7070   10.0320   -5.9120 C.3       9 GLL5        0.0000 
     29 CA         22.8870   12.0430   -9.7910 C.3       6 GLP5        0.0000 
     30 O          15.6525    7.6205  -10.0195 O.2       1 ALC1        0.0000 
     31 O          17.1300    8.0560   -9.5840 O.2       7 ALL1        0.0000 
     32 O          14.1750    7.1850  -10.4550 O.2       4 ALP1        0.0000 
     33 CA         22.5235    4.9405  -14.9305 C.3       3 GLC5        0.0000 
     34 CA         20.9010    6.1400  -14.1610 C.3       9 GLL5        0.0000 
     35 CA         24.1460    3.7410  -15.7000 C.3       6 GLP5        0.0000 
     36 CA         20.9245    4.5385  -14.2500 C.3       3 GLC5        0.0000 
     37 CA         20.9480    2.9370  -14.3390 C.3       6 GLP5        0.0000 
     38 CA         20.4715    6.8010  -15.8130 C.3       3 GLC5        0.0000 
     39 CA         20.0420    7.4620  -17.4650 C.3       6 GLP5        0.0000 
     40 CA         19.1625    6.4225  -14.3470 C.3       3 GLC5        0.0000 
     41 CA         17.4240    6.7050  -14.5330 C.3       6 GLP5        0.0000 
     42 CA         19.7018   10.7372   -8.4995 C.3       3 GLC5        0.0000 
     43 CA         18.8290    8.8710   -8.0690 C.3       9 GLL5        0.0000 
     44 CA         17.1790    9.8430   -9.5330 C.3       3 GLC5        0.0000 
     45 CA         18.2799    7.4339   -7.5077 C.3       3 GLC5        0.0000 
     46 CA         20.2297   10.3733   -9.8930 C.3       3 GLC5        0.0000 
     47 CA         20.0570    8.5820   -8.6840 C.3       9 GLL5        0.0000 
     48 CA         21.0235    9.4938  -13.0808 C.3       3 GLC5        0.0000 
     49 CA         22.0760   10.6180  -14.3880 C.3       6 GLP5        0.0000 
     50 CA         18.8930    7.0857  -13.4985 C.3       3 GLC5        0.0000 
     51 CA         20.0650    8.0930  -12.4030 C.3       9 GLL5        0.0000 
     52 CA         22.2790    7.6825  -13.5860 C.3       3 GLC5        0.0000 
     53 CA         20.6590    6.8400  -12.5250 C.3       9 GLL5        0.0000 
     54 CA         23.7780    8.8750  -13.8290 C.3       6 GLP5        0.0000 
     55 CA         20.9037    4.7127  -13.1475 C.3       3 GLC5        0.0000 
     56 CA         20.8912    4.6230   -9.8205 C.3       3 GLC5        0.0000 
     57 CA         21.0600    6.1370  -11.3870 C.3       9 GLL5        0.0000 
     58 CA         20.8170    2.8300   -8.8870 C.3       6 GLP5        0.0000 
     59 CA         19.4252    6.7140   -8.4047 C.3       3 GLC5        0.0000 
     60 CA         20.8710    6.6950  -10.1210 C.3       9 GLL5        0.0000 
@<TRIPOS>BOND
@<TRIPOS>SUBSTRUCTURE
     1 ALC1       30 GROUP        1 X    ALC  0     ROOT ALC X 1
     2 SEC2        8 GROUP        1 X    SEC  0     **** SEC X 2
     3 GLC5        1 GROUP        1 X    GLC  0     **** GLC X 6
     4 ALP1       32 GROUP        1 Y    ALP  0     ROOT ALP Y 8
     5 SEP2       10 GROUP        1 Y    SEP  0     **** SEP Y 9
     6 GLP5        3 GROUP        1 Y    GLP  0     **** GLP Y 13
     7 ALL1       31 GROUP        1 Z    ALL  0     ROOT ALL Z 15
     8 SEL2        9 GROUP        1 Z    SEL  0     **** SEL Z 16
     9 GLL5        2 GROUP        1 Z    GLL  0     **** GLL Z 20
@<TRIPOS>SET

