#    Name: 2zv9_PP2_1_ligand
#    Modification time : Mon Apr  7 18:50:25 2014

@<TRIPOS>MOLECULE
2zv9_PP2_1_ligand
   38    40     1     0     0
SMALL
NO_CHARGES


@<TRIPOS>ATOM
      1 C1         19.1000    9.4940   -6.8470 C.ar      1 PP2513      0.0000 
      2 N2         18.0750    9.8760   -6.0380 N.ar      1 PP2513      0.0000 
      3 C3         16.8040    9.6510   -6.4110 C.ar      1 PP2513      0.0000 
      4 N4         16.5110    9.0540   -7.5790 N.ar      1 PP2513      0.0000 
      5 C5         17.4890    8.6550   -8.4210 C.ar      1 PP2513      0.0000 
      6 C6         18.8290    8.8710   -8.0690 C.ar      1 PP2513      0.0000 
      7 C8         20.0570    8.5820   -8.6840 C.2       1 PP2513      0.0000 
      8 N9         21.0610    9.0170   -7.8900 N.pl3     1 PP2513      0.0000 
      9 N10        20.4340    9.5670   -6.7760 N.pl3     1 PP2513      0.0000 
     10 C11        20.2710    7.9440  -10.0080 C.ar      1 PP2513      0.0000 
     11 C12        19.8770    8.6460  -11.1440 C.ar      1 PP2513      0.0000 
     12 C13        20.0650    8.0930  -12.4030 C.ar      1 PP2513      0.0000 
     13 C14        20.6590    6.8400  -12.5250 C.ar      1 PP2513      0.0000 
     14 C15        21.0600    6.1370  -11.3870 C.ar      1 PP2513      0.0000 
     15 C16        20.8710    6.6950  -10.1210 C.ar      1 PP2513      0.0000 
     16 C22        21.2140   10.1440   -5.6320 C.3       1 PP2513      0.0000 
     17 C23        20.9030    9.3420   -4.3740 C.3       1 PP2513      0.0000 
     18 C24        20.8880   11.6170   -5.4190 C.3       1 PP2513      0.0000 
     19 C25        22.7070   10.0320   -5.9120 C.3       1 PP2513      0.0000 
     20 N25        17.1300    8.0560   -9.5840 N.pl3     1 PP2513      0.0000 
     21 CL         20.9010    6.1400  -14.1610 Cl        1 PP2513      0.0000 
     22 H          16.0194    9.9491   -5.7739 H         1 PP2513      0.0000 
     23 H          21.9851    8.9700   -8.0358 H         1 PP2513      0.0000 
     24 H          19.4463    9.5754  -11.0480 H         1 PP2513      0.0000 
     25 H          19.7678    8.6045  -13.2421 H         1 PP2513      0.0000 
     26 H          21.4929    5.2118  -11.4810 H         1 PP2513      0.0000 
     27 H          21.1724    6.1869   -9.2855 H         1 PP2513      0.0000 
     28 H          16.1497    7.9138   -9.7214 H         1 PP2513      0.0000 
     29 H          17.8774    7.8096  -10.2011 H         1 PP2513      0.0000 
     30 H          21.1474    8.3779   -4.4783 H         1 PP2513      0.0000 
     31 H          21.4038    9.6871   -3.5802 H         1 PP2513      0.0000 
     32 H          19.9304    9.3746   -4.1438 H         1 PP2513      0.0000 
     33 H          21.4066   12.0058   -4.6575 H         1 PP2513      0.0000 
     34 H          21.1000   12.1651   -6.2281 H         1 PP2513      0.0000 
     35 H          19.9190   11.7573   -5.2156 H         1 PP2513      0.0000 
     36 H          23.2543   10.4112   -5.1659 H         1 PP2513      0.0000 
     37 H          22.9923    9.0809   -6.0308 H         1 PP2513      0.0000 
     38 H          22.9666   10.5220   -6.7442 H         1 PP2513      0.0000 
@<TRIPOS>BOND
     1    2    1 ar   
     2    6    1 ar   
     3    9    1 1    
     4    3    2 ar   
     5    4    3 ar   
     6   22    3 1    
     7    5    4 ar   
     8    6    5 ar   
     9   20    5 1    
    10    7    6 1    
    11    8    7 2    
    12   10    7 1    
    13    9    8 1    
    14   23    8 1    
    15   16    9 1    
    16   11   10 ar   
    17   15   10 ar   
    18   12   11 ar   
    19   24   11 1    
    20   13   12 ar   
    21   25   12 1    
    22   14   13 ar   
    23   21   13 1    
    24   15   14 ar   
    25   26   14 1    
    26   27   15 1    
    27   17   16 1    
    28   18   16 1    
    29   19   16 1    
    30   30   17 1    
    31   31   17 1    
    32   32   17 1    
    33   33   18 1    
    34   34   18 1    
    35   35   18 1    
    36   36   19 1    
    37   37   19 1    
    38   38   19 1    
    39   28   20 1    
    40   29   20 1    
@<TRIPOS>SUBSTRUCTURE
     1 PP2513      1 GROUP   
@<TRIPOS>SET

