#    Name: 4go4_NAD_7_INTS_M
#    Modification time : Mon Mar 24 23:25:50 2014

@<TRIPOS>MOLECULE
4go4_NAD_7_INTS_M
   96     0     9     0     0
SMALL
NO_CHARGES


@<TRIPOS>ATOM
      1 N          47.0710  -13.1600   83.3920 N.am      2 SEC2        0.0000 
      2 N          46.6660  -12.5100   81.8820 N.am      8 SEL2        0.0000 
      3 N          47.4760  -13.8100   84.9020 N.am      5 SEP2        0.0000 
      4 N          46.0605  -13.5100   82.4745 N.am      2 SEC2        0.0000 
      5 N          45.4550  -14.5100   83.0670 N.am      5 SEP2        0.0000 
      6 N          45.0470  -12.8760   82.8495 N.am      2 SEC2        0.0000 
      7 N          44.6390  -11.2420   82.6320 N.am      8 SEL2        0.0000 
      8 CA         49.0180  -11.3220   80.6585 C.3       3 GLC5        0.0000 
      9 CA         47.2540  -10.1820   80.0760 C.3       9 GLL5        0.0000 
     10 CA         50.7820  -12.4620   81.2410 C.3       6 GLP5        0.0000 
     11 CA         47.5355  -12.7405   78.6330 C.3       3 GLC5        0.0000 
     12 CA         46.7990  -10.7040   78.6570 C.3       9 GLL5        0.0000 
     13 CA         48.2720  -14.7770   78.6090 C.3       6 GLP5        0.0000 
     14 O          43.0240   -8.7065   76.8150 O.2       1 ALC1        0.0000 
     15 O          43.6000  -10.1860   76.9160 O.2       7 ALL1        0.0000 
     16 O          42.4480   -7.2270   76.7140 O.2       4 ALP1        0.0000 
     17 CA         46.6965  -13.3945   78.1660 C.3       3 GLC5        0.0000 
     18 CA         45.1210  -12.0120   77.7230 C.3       9 GLL5        0.0000 
     19 CA         40.0575  -15.3170   77.7850 C.3       3 GLC5        0.0000 
     20 CA         42.0330  -15.9760   78.4460 C.3       9 GLL5        0.0000 
     21 CA         38.0820  -14.6580   77.1240 C.3       6 GLP5        0.0000 
     22 CA         44.8560  -15.7345   75.2310 C.3       3 GLC5        0.0000 
     23 CA         43.3420  -16.2820   76.5250 C.3       9 GLL5        0.0000 
     24 CA         46.3700  -15.1870   73.9370 C.3       6 GLP5        0.0000 
     25 CA         42.9005  -15.4420   75.0515 C.3       3 GLC5        0.0000 
     26 CA         42.4590  -14.6020   73.5780 C.3       6 GLP5        0.0000 
     27 CA         42.0210  -17.1000   75.3965 C.3       3 GLC5        0.0000 
     28 CA         40.7000  -17.9180   74.2680 C.3       6 GLP5        0.0000 
     29 CA         44.9960  -17.2100   76.6455 C.3       3 GLC5        0.0000 
     30 CA         46.6500  -18.1380   76.7660 C.3       6 GLP5        0.0000 
     31 CA         43.0665  -14.4170   75.6835 C.3       3 GLC5        0.0000 
     32 CA         43.6740  -14.2320   77.7890 C.3       9 GLL5        0.0000 
     33 N          46.5305   -6.5855   82.4815 N.am      2 SEC2        0.0000 
     34 N          46.3150   -7.9790   83.1560 N.am      8 SEL2        0.0000 
     35 N          46.7460   -5.1920   81.8070 N.am      5 SEP2        0.0000 
     36 CA         50.2795   -8.0110   81.6360 C.3       3 GLC5        0.0000 
     37 CA         50.0050   -8.2540   83.6180 C.3       9 GLL5        0.0000 
     38 CA         50.5540   -7.7680   79.6540 C.3       6 GLP5        0.0000 
     39 CA         49.0090   -6.3875   83.7385 C.3       3 GLC5        0.0000 
     40 CA         48.0130   -4.5210   83.8590 C.3       6 GLP5        0.0000 
     41 CA         50.9315   -6.6610   84.3905 C.3       3 GLC5        0.0000 
     42 CA         51.8580   -5.0680   85.1630 C.3       6 GLP5        0.0000 
     43 CA         50.9130  -10.9060   82.5905 C.3       3 GLC5        0.0000 
     44 CA         51.0440   -9.3500   83.9400 C.3       9 GLL5        0.0000 
     45 CA         52.4645   -7.4865   85.2420 C.3       3 GLC5        0.0000 
     46 CA         51.7680   -9.4520   85.3150 C.3       9 GLL5        0.0000 
     47 CA         53.1610   -5.5210   85.1690 C.3       6 GLP5        0.0000 
     48 O          52.4050  -10.2430   87.3980 O.2       1 ALC1        0.0000 
     49 O          51.2690  -10.3860   86.3030 O.2       7 ALL1        0.0000 
     50 O          53.5410  -10.1000   88.4930 O.2       4 ALP1        0.0000 
     51 CA         53.5125   -7.6755   85.6685 C.3       3 GLC5        0.0000 
     52 CA         53.2600   -9.4650   84.9640 C.3       9 GLL5        0.0000 
     53 CA         53.7650   -5.8860   86.3730 C.3       6 GLP5        0.0000 
     54 N          54.6220   -9.1270   87.1780 N.am      2 SEC2        0.0000 
     55 N          54.2340   -9.8130   85.9320 N.am      8 SEL2        0.0000 
     56 N          55.0100   -8.4410   88.4240 N.am      5 SEP2        0.0000 
     57 O          53.8875   -9.9565   87.2125 O.2       1 ALC1        0.0000 
     58 O          54.2340   -9.8130   85.9320 O.2       7 ALL1        0.0000 
     59 CA         52.0260  -11.3070   82.4080 C.3       3 GLC5        0.0000 
     60 CA         53.2700  -10.1520   83.5750 C.3       9 GLL5        0.0000 
     61 CA         54.9960  -12.8860   83.1445 C.3       3 GLC5        0.0000 
     62 CA         55.3870  -10.7790   82.4810 C.3       9 GLL5        0.0000 
     63 CA         54.6050  -14.9930   83.8080 C.3       6 GLP5        0.0000 
     64 CA         56.3045   -9.6115   83.3005 C.3       3 GLC5        0.0000 
     65 CA         57.2220   -8.4440   84.1200 C.3       6 GLP5        0.0000 
     66 CA         57.5580  -10.0305   82.7675 C.3       3 GLC5        0.0000 
     67 CA         56.5720  -10.4310   81.6210 C.3       9 GLL5        0.0000 
     68 CA         58.5440   -9.6300   83.9140 C.3       6 GLP5        0.0000 
     69 O          58.4010  -13.0815   80.8445 O.2       1 ALC1        0.0000 
     70 O          57.7070  -12.7650   81.8760 O.2       7 ALL1        0.0000 
     71 O          59.0950  -13.3980   79.8130 O.2       4 ALP1        0.0000 
     72 O          56.9815  -13.1260   83.2235 O.2       1 ALC1        0.0000 
     73 O          56.2560  -13.4870   84.5710 O.2       4 ALP1        0.0000 
     74 CA         53.0125   -8.6950   80.7560 C.3       3 GLC5        0.0000 
     75 CA         54.5380   -8.5060   82.1710 C.3       9 GLL5        0.0000 
     76 CA         51.4870   -8.8840   79.3410 C.3       6 GLP5        0.0000 
     77 CA         48.3902   -8.9780   78.8713 C.3       3 GLC5        0.0000 
     78 CA         49.7540   -7.5130   78.3760 C.3       6 GLP5        0.0000 
     79 CA         42.8770  -11.6743   77.3512 C.3       3 GLC5        0.0000 
     80 CA         40.8560  -12.0490   76.9370 C.3       6 GLP5        0.0000 
     81 CA         44.6215  -10.8374   75.8514 C.3       3 GLC5        0.0000 
     82 CA         44.0370  -10.5570   73.9460 C.3       6 GLP5        0.0000 
     83 CA         41.9341  -13.4189   77.5569 C.3       3 GLC5        0.0000 
     84 CA         42.6680  -14.7150   78.6830 C.3       9 GLL5        0.0000 
     85 CA         44.2521  -15.1794   79.5409 C.3       3 GLC5        0.0000 
     86 CA         45.4920  -15.5700   80.9050 C.3       6 GLP5        0.0000 
     87 CA         54.0215  -11.2037   85.4698 C.3       3 GLC5        0.0000 
     88 CA         54.7780  -12.5990   86.6700 C.3       6 GLP5        0.0000 
     89 CA         55.2435   -9.1262   84.1947 C.3       3 GLC5        0.0000 
     90 CA         55.1998  -10.8270   80.4670 C.3       3 GLC5        0.0000 
     91 CA         54.4200  -11.0490   78.8830 C.3       6 GLP5        0.0000 
     92 CA         54.8869   -9.8015   80.2833 C.3       3 GLC5        0.0000 
     93 CA         56.6820   -9.0960   81.0610 C.3       9 GLL5        0.0000 
     94 CA         56.2879   -8.4990   82.9018 C.3       3 GLC5        0.0000 
     95 CA         46.5403  -11.7514   76.5776 C.3       3 GLC5        0.0000 
     96 CA         47.4550  -12.7120   75.1650 C.3       6 GLP5        0.0000 
@<TRIPOS>BOND
@<TRIPOS>SUBSTRUCTURE
     1 ALC1       14 GROUP        1 X    ALC  0     ROOT ALC X 1
     2 SEC2        1 GROUP        1 X    SEC  0     **** SEC X 2
     3 GLC5        8 GROUP        1 X    GLC  0     **** GLC X 6
     4 ALP1       16 GROUP        1 Y    ALP  0     ROOT ALP Y 8
     5 SEP2        3 GROUP        1 Y    SEP  0     **** SEP Y 9
     6 GLP5       10 GROUP        1 Y    GLP  0     **** GLP Y 13
     7 ALL1       15 GROUP        1 Z    ALL  0     ROOT ALL Z 15
     8 SEL2        2 GROUP        1 Z    SEL  0     **** SEL Z 16
     9 GLL5        9 GROUP        1 Z    GLL  0     **** GLL Z 20
@<TRIPOS>SET

