#    Name: 4go4_NAD_7_ligand
#    Modification time : Mon Mar 24 23:25:50 2014

@<TRIPOS>MOLECULE
4go4_NAD_7_ligand
   70    74     1     0     0
SMALL
NO_CHARGES


@<TRIPOS>ATOM
      1 PA         46.1120  -11.0810   82.2570 P.3       1 NAD601      0.0000 
      2 O1A        46.6660  -12.5100   81.8820 O.co2     1 NAD601      0.0000 
      3 O2A        44.6390  -11.2420   82.6320 O.co2     1 NAD601      0.0000 
      4 O5B        46.2790   -9.9800   81.0480 O.3       1 NAD601      0.0000 
      5 C5B        47.2540  -10.1820   80.0760 C.3       1 NAD601      0.0000 
      6 C4B        46.7990  -10.7040   78.6570 C.3       1 NAD601      0.0000 
      7 O4B        46.2830  -12.0190   78.5200 O.3       1 NAD601      0.0000 
      8 C3B        45.9070   -9.8600   77.7730 C.3       1 NAD601      0.0000 
      9 O3B        46.4780   -9.6280   76.4790 O.3       1 NAD601      0.0000 
     10 C2B        44.6750  -10.5870   77.8080 C.3       1 NAD601      0.0000 
     11 O2B        43.6000  -10.1860   76.9160 O.3       1 NAD601      0.0000 
     12 C1B        45.1210  -12.0120   77.7230 C.3       1 NAD601      0.0000 
     13 N9A        44.0940  -12.9840   78.2720 N.pl3     1 NAD601      0.0000 
     14 C8A        43.3780  -12.7140   79.4130 C.2       1 NAD601      0.0000 
     15 N7A        42.5230  -13.7570   79.6460 N.2       1 NAD601      0.0000 
     16 C5A        42.6680  -14.7150   78.6830 C.ar      1 NAD601      0.0000 
     17 C6A        42.0330  -15.9760   78.4460 C.ar      1 NAD601      0.0000 
     18 N6A        40.9900  -16.3620   79.3880 N.pl3     1 NAD601      0.0000 
     19 N1A        42.3630  -16.7480   77.3810 N.ar      1 NAD601      0.0000 
     20 C2A        43.3420  -16.2820   76.5250 C.ar      1 NAD601      0.0000 
     21 N3A        43.9740  -15.0720   76.7180 N.ar      1 NAD601      0.0000 
     22 C4A        43.6740  -14.2320   77.7890 C.ar      1 NAD601      0.0000 
     23 O3         46.9470  -10.4390   83.5530 O.3       1 NAD601      0.0000 
     24 PN         47.4610   -8.9560   83.7410 P.3       1 NAD601      0.0000 
     25 O1N        47.5980   -8.6220   85.2800 O.co2     1 NAD601      0.0000 
     26 O2N        46.3150   -7.9790   83.1560 O.co2     1 NAD601      0.0000 
     27 O5D        48.7860   -8.6260   82.9430 O.3       1 NAD601      0.0000 
     28 C5D        50.0050   -8.2540   83.6180 C.3       1 NAD601      0.0000 
     29 C4D        51.0440   -9.3500   83.9400 C.3       1 NAD601      0.0000 
     30 O4D        52.1240   -9.5240   82.9230 O.3       1 NAD601      0.0000 
     31 C3D        51.7680   -9.4520   85.3150 C.3       1 NAD601      0.0000 
     32 O3D        51.2690  -10.3860   86.3030 O.3       1 NAD601      0.0000 
     33 C2D        53.2600   -9.4650   84.9640 C.3       1 NAD601      0.0000 
     34 O2D        54.2340   -9.8130   85.9320 O.3       1 NAD601      0.0000 
     35 C1D        53.2700  -10.1520   83.5750 C.3       1 NAD601      0.0000 
     36 N1N        54.4330   -9.7030   82.6840 N.pl3     1 NAD601      0.0000 
     37 C2N        55.3870  -10.7790   82.4810 C.ar      1 NAD601      0.0000 
     38 C3N        56.5720  -10.4310   81.6210 C.ar      1 NAD601      0.0000 
     39 C7N        57.6760  -11.4360   81.3220 C.2       1 NAD601      0.0000 
     40 O7N        58.5940  -11.0620   80.6040 O.2       1 NAD601      0.0000 
     41 N7N        57.7070  -12.7650   81.8760 N.am      1 NAD601      0.0000 
     42 C4N        56.6820   -9.0960   81.0610 C.ar      1 NAD601      0.0000 
     43 C5N        55.6570   -8.1080   81.3310 C.ar      1 NAD601      0.0000 
     44 C6N        54.5380   -8.5060   82.1710 C.ar      1 NAD601      0.0000 
     45 H          48.0516  -10.9130   80.4147 H         1 NAD601      0.0000 
     46 H          47.8494   -9.2408   79.8644 H         1 NAD601      0.0000 
     47 H          47.8099  -10.7298   78.0284 H         1 NAD601      0.0000 
     48 H          45.7691   -8.9149   78.3240 H         1 NAD601      0.0000 
     49 H          44.2970  -10.4937   78.8908 H         1 NAD601      0.0000 
     50 H          45.3481  -12.2445   76.7093 H         1 NAD601      0.0000 
     51 H          43.4648  -11.9275   79.9524 H         1 NAD601      0.0000 
     52 H          40.7636  -15.6903   80.0934 H         1 NAD601      0.0000 
     53 H          40.5866  -17.2668   79.2514 H         1 NAD601      0.0000 
     54 H          43.6129  -16.8694   75.7007 H         1 NAD601      0.0000 
     55 H          49.7716   -7.7346   84.5975 H         1 NAD601      0.0000 
     56 H          50.5528   -7.4540   83.0320 H         1 NAD601      0.0000 
     57 H          50.4654  -10.3672   83.8744 H         1 NAD601      0.0000 
     58 H          51.6243   -8.3666   85.7356 H         1 NAD601      0.0000 
     59 H          53.4287   -8.3366   84.6472 H         1 NAD601      0.0000 
     60 H          53.1766  -11.1508   83.6366 H         1 NAD601      0.0000 
     61 H          55.2913  -11.6608   82.8585 H         1 NAD601      0.0000 
     62 H          58.4719  -13.3427   81.5912 H         1 NAD601      0.0000 
     63 H          56.9610  -12.9994   82.4994 H         1 NAD601      0.0000 
     64 H          57.4739   -8.8570   80.4831 H         1 NAD601      0.0000 
     65 H          55.7139   -7.1916   80.9574 H         1 NAD601      0.0000 
     66 H          53.8181   -7.7565   82.3349 H         1 NAD601      0.0000 
     67 H          47.3239  -10.1613   76.4702 H         1 NAD601      0.0000 
     68 H          43.4735   -9.2087   77.0863 H         1 NAD601      0.0000 
     69 H          51.9130  -10.3246   87.0655 H         1 NAD601      0.0000 
     70 H          53.7262   -9.9046   86.7886 H         1 NAD601      0.0000 
@<TRIPOS>BOND
     1    2    1 ar   
     2    3    1 ar   
     3    4    1 1    
     4   23    1 1    
     5    5    4 1    
     6    6    5 1    
     7   45    5 1    
     8   46    5 1    
     9    7    6 1    
    10    8    6 1    
    11   47    6 1    
    12   12    7 1    
    13    9    8 1    
    14   10    8 1    
    15   48    8 1    
    16   67    9 1    
    17   11   10 1    
    18   12   10 1    
    19   49   10 1    
    20   68   11 1    
    21   13   12 1    
    22   50   12 1    
    23   14   13 1    
    24   22   13 1    
    25   15   14 2    
    26   51   14 1    
    27   16   15 1    
    28   17   16 ar   
    29   22   16 ar   
    30   18   17 1    
    31   19   17 ar   
    32   52   18 1    
    33   53   18 1    
    34   20   19 ar   
    35   21   20 ar   
    36   54   20 1    
    37   22   21 ar   
    38   24   23 1    
    39   25   24 ar   
    40   26   24 ar   
    41   27   24 1    
    42   28   27 1    
    43   29   28 1    
    44   55   28 1    
    45   56   28 1    
    46   30   29 1    
    47   31   29 1    
    48   57   29 1    
    49   35   30 1    
    50   32   31 1    
    51   33   31 1    
    52   58   31 1    
    53   69   32 1    
    54   34   33 1    
    55   35   33 1    
    56   59   33 1    
    57   70   34 1    
    58   36   35 1    
    59   60   35 1    
    60   37   36 ar   
    61   44   36 ar   
    62   38   37 ar   
    63   61   37 1    
    64   39   38 1    
    65   42   38 ar   
    66   40   39 2    
    67   41   39 am   
    68   62   41 1    
    69   63   41 1    
    70   43   42 ar   
    71   64   42 1    
    72   44   43 ar   
    73   65   43 1    
    74   66   44 1    
@<TRIPOS>SUBSTRUCTURE
     1 NAD601      1 GROUP   
@<TRIPOS>SET

