#    Name: 3p3c_3P3_1_INTS_M
#    Modification time : Tue Mar 25 05:52:08 2014

@<TRIPOS>MOLECULE
3p3c_3P3_1_INTS_M
   76     0    12     0     0
SMALL
NO_CHARGES


@<TRIPOS>ATOM
      1 Zn        -19.0325   15.8890  -18.9110 Zn        3 ZIC7        0.0000 
      2 Zn        -18.0360   15.7110  -18.7160 Zn       11 ZIL7        0.0000 
      3 Zn        -20.0290   16.0670  -19.1060 Zn        7 ZIP7        0.0000 
      4 N         -17.4740   16.0450  -17.5545 N.am      2 SEC2        0.0000 
      5 N         -18.0360   15.7110  -18.7160 N.am     10 SEL2        0.0000 
      6 N         -16.9120   16.3790  -16.3930 N.am      6 SEP2        0.0000 
      7 O         -17.9245   15.4595  -22.1805 O.2       1 ALC1        0.0000 
      8 O         -17.7470   15.8350  -20.9130 O.2       9 ALL1        0.0000 
      9 O         -18.1020   15.0840  -23.4480 O.2       5 ALP1        0.0000 
     10 Zn        -19.4850   16.2510  -19.9785 Zn        3 ZIC7        0.0000 
     11 Zn        -18.9410   16.4350  -20.8510 Zn       11 ZIL7        0.0000 
     12 O         -18.8505   17.3670  -21.6575 O.2       1 ALC1        0.0000 
     13 O         -18.9410   16.4350  -20.8510 O.2       9 ALL1        0.0000 
     14 O         -18.7600   18.2990  -22.4640 O.2       5 ALP1        0.0000 
     15 O         -16.0235   15.9330  -17.5540 O.2       1 ALC1        0.0000 
     16 O         -15.1350   15.4870  -18.7150 O.2       9 ALL1        0.0000 
     17 O         -16.9120   16.3790  -16.3930 O.2       5 ALP1        0.0000 
     18 CA        -15.3830   17.4710  -15.7265 C.3       4 GLC5        0.0000 
     19 CA        -13.5540   17.0140  -16.8830 C.3      12 GLL5        0.0000 
     20 CA        -17.2120   17.9280  -14.5700 C.3       8 GLP5        0.0000 
     21 CA         -9.9035   17.7035  -10.6225 C.3       4 GLC5        0.0000 
     22 CA         -8.7750   19.2290  -11.7770 C.3      12 GLL5        0.0000 
     23 CA        -11.0320   16.1780   -9.4680 C.3       8 GLP5        0.0000 
     24 CA         -9.8835   18.6355   -7.7765 C.3       4 GLC5        0.0000 
     25 CA         -8.7060   19.5000   -9.3570 C.3      12 GLL5        0.0000 
     26 CA        -11.0610   17.7710   -6.1960 C.3       8 GLP5        0.0000 
     27 CA         -9.8690   17.8390   -9.4125 C.3       4 GLC5        0.0000 
     28 CA         -9.4370   19.4530   -6.8020 C.3       4 GLC5        0.0000 
     29 CA         -8.0160   19.8500   -8.2010 C.3      12 GLL5        0.0000 
     30 CA        -10.8580   19.0560   -5.4030 C.3       8 GLP5        0.0000 
     31 CA         -6.1185   18.6455  -12.3015 C.3       4 GLC5        0.0000 
     32 CA         -6.7550   20.0140  -10.6730 C.3      12 GLL5        0.0000 
     33 CA         -5.4820   17.2770  -13.9300 C.3       8 GLP5        0.0000 
     34 CA         -5.8615   20.6210  -12.4720 C.3       4 GLC5        0.0000 
     35 CA         -4.9680   21.2280  -14.2710 C.3       8 GLP5        0.0000 
     36 CA        -16.8865   11.2330  -19.5165 C.3       4 GLC5        0.0000 
     37 CA        -16.1670   13.2570  -19.2040 C.3      12 GLL5        0.0000 
     38 CA        -17.6060    9.2090  -19.8290 C.3       8 GLP5        0.0000 
     39 CA        -17.4785   14.4625  -16.1465 C.3       4 GLC5        0.0000 
     40 CA        -16.5790   13.2310  -17.7060 C.3      12 GLL5        0.0000 
     41 CA        -18.3780   15.6940  -14.5870 C.3       8 GLP5        0.0000 
     42 CA        -17.1855   11.8430  -16.6670 C.3       4 GLC5        0.0000 
     43 CA        -17.7920   10.4550  -15.6280 C.3       8 GLP5        0.0000 
     44 CA        -18.5365   13.5785  -17.3275 C.3       4 GLC5        0.0000 
     45 CA        -20.4940   13.9260  -16.9490 C.3       8 GLP5        0.0000 
     46 N         -17.0690   11.1740  -20.5780 N.am      2 SEC2        0.0000 
     47 N         -17.1820   12.6850  -20.0630 N.am     10 SEL2        0.0000 
     48 N         -16.9560    9.6630  -21.0930 N.am      6 SEP2        0.0000 
     49 O         -18.6175   13.0835  -20.2110 O.2       1 ALC1        0.0000 
     50 O         -17.1820   12.6850  -20.0630 O.2       9 ALL1        0.0000 
     51 O         -20.0530   13.4820  -20.3590 O.2       5 ALP1        0.0000 
     52 CA        -12.8412   17.2933  -14.0808 C.3       4 GLC5        0.0000 
     53 CA        -11.4180   17.6970  -15.9760 C.3      12 GLL5        0.0000 
     54 CA        -13.5710   16.9220  -12.2310 C.3       8 GLP5        0.0000 
     55 CA        -13.5064   18.9710  -15.9430 C.3       4 GLC5        0.0000 
     56 CA        -14.7140   20.4320  -15.7060 C.3       8 GLP5        0.0000 
     57 CA        -11.2451   15.8571  -15.3411 C.3       4 GLC5        0.0000 
     58 CA        -12.8050   17.6320  -15.8850 C.3      12 GLL5        0.0000 
     59 CA        -11.0410   14.3150  -14.1750 C.3       8 GLP5        0.0000 
     60 CA         -9.7690   15.8215  -18.0600 C.3       4 GLC5        0.0000 
     61 CA        -10.7870   17.1340  -17.0840 C.3      12 GLL5        0.0000 
     62 CA         -8.3750   14.8190  -18.5350 C.3       8 GLP5        0.0000 
     63 CA        -10.6950   16.3410  -14.2607 C.3       4 GLC5        0.0000 
     64 CA        -10.6560   18.1760  -14.8160 C.3      12 GLL5        0.0000 
     65 CA        -10.7860   20.2895  -13.8513 C.3       4 GLC5        0.0000 
     66 CA        -11.2230   22.2120  -13.3560 C.3       8 GLP5        0.0000 
     67 CA        -11.9600   17.6445  -13.2888 C.3       4 GLC5        0.0000 
     68 CA        -10.0420   18.5580  -13.8770 C.3      12 GLL5        0.0000 
     69 CA         -8.5695   17.2212  -12.7553 C.3       4 GLC5        0.0000 
     70 CA         -7.4370   15.6970  -12.1870 C.3       8 GLP5        0.0000 
     71 CA        -10.1457   20.6465  -12.8148 C.3       4 GLC5        0.0000 
     72 CA         -9.3620   18.9330  -12.7700 C.3      12 GLL5        0.0000 
     73 CA         -7.9310   17.5512  -11.6860 C.3       4 GLC5        0.0000 
     74 CA         -9.8295   20.7432  -10.3745 C.3       4 GLC5        0.0000 
     75 CA        -11.2340   22.0810   -9.5640 C.3       8 GLP5        0.0000 
     76 CA         -9.7975   20.8780   -9.1715 C.3       4 GLC5        0.0000 
@<TRIPOS>BOND
@<TRIPOS>SUBSTRUCTURE
     1 ALC1        7 GROUP        1 X    ALC  0     ROOT ALC X 1
     2 SEC2        4 GROUP        1 X    SEC  0     **** SEC X 2
     3 ZIC7        1 GROUP        1 X    ZIC  0     **** ZIC X 5
     4 GLC5       18 GROUP        1 X    GLC  0     **** GLC X 6
     5 ALP1        9 GROUP        1 Y    ALP  0     ROOT ALP Y 8
     6 SEP2        6 GROUP        1 Y    SEP  0     **** SEP Y 9
     7 ZIP7        3 GROUP        1 Y    ZIP  0     **** ZIP Y 12
     8 GLP5       20 GROUP        1 Y    GLP  0     **** GLP Y 13
     9 ALL1        8 GROUP        1 Z    ALL  0     ROOT ALL Z 15
    10 SEL2        5 GROUP        1 Z    SEL  0     **** SEL Z 16
    11 ZIL7        2 GROUP        1 Z    ZIL  0     **** ZIL Z 19
    12 GLL5       19 GROUP        1 Z    GLL  0     **** GLL Z 20
@<TRIPOS>SET

