#    Name: 3p3c_3P3_1_ligand
#    Modification time : Tue Mar 25 05:52:08 2014

@<TRIPOS>MOLECULE
3p3c_3P3_1_ligand
   45    46     1     0     0
SMALL
NO_CHARGES


@<TRIPOS>ATOM
      1 O01       -18.0360   15.7110  -18.7160 O.2       1 3P3501      0.0000 
      2 C02       -17.3200   15.4140  -19.6730 C.2       1 3P3501      0.0000 
      3 N03       -17.7470   15.8350  -20.9130 N.am      1 3P3501      0.0000 
      4 O04       -18.9410   16.4350  -20.8510 O.3       1 3P3501      0.0000 
      5 C05       -15.9810   14.7300  -19.5780 C.3       1 3P3501      0.0000 
      6 N06       -15.1350   15.4870  -18.7150 N.am      1 3P3501      0.0000 
      7 C07       -13.7520   15.6800  -18.9910 C.2       1 3P3501      0.0000 
      8 O08       -13.2430   15.0770  -19.8520 O.2       1 3P3501      0.0000 
      9 C09       -12.9270   16.4370  -17.9830 C.ar      1 3P3501      0.0000 
     10 C10       -13.5540   17.0140  -16.8830 C.ar      1 3P3501      0.0000 
     11 C11       -12.8050   17.6320  -15.8850 C.ar      1 3P3501      0.0000 
     12 C12       -11.4180   17.6970  -15.9760 C.ar      1 3P3501      0.0000 
     13 C13       -10.7870   17.1340  -17.0840 C.ar      1 3P3501      0.0000 
     14 C14       -11.5390   16.5140  -18.0860 C.ar      1 3P3501      0.0000 
     15 C15       -10.6560   18.1760  -14.8160 C.1       1 3P3501      0.0000 
     16 C16       -10.0420   18.5580  -13.8770 C.1       1 3P3501      0.0000 
     17 C17        -9.3620   18.9330  -12.7700 C.1       1 3P3501      0.0000 
     18 C18        -8.7750   19.2290  -11.7770 C.1       1 3P3501      0.0000 
     19 C19        -8.0750   19.5820  -10.5930 C.ar      1 3P3501      0.0000 
     20 C20        -8.7060   19.5000   -9.3570 C.ar      1 3P3501      0.0000 
     21 C21        -8.0160   19.8500   -8.2010 C.ar      1 3P3501      0.0000 
     22 C22        -6.6970   20.2810   -8.2820 C.ar      1 3P3501      0.0000 
     23 C23        -6.0660   20.3630   -9.5180 C.ar      1 3P3501      0.0000 
     24 C24        -6.7550   20.0140  -10.6730 C.ar      1 3P3501      0.0000 
     25 C25       -16.1670   13.2570  -19.2040 C.3       1 3P3501      0.0000 
     26 C26       -16.5790   13.2310  -17.7060 C.3       1 3P3501      0.0000 
     27 O27       -17.1820   12.6850  -20.0630 O.3       1 3P3501      0.0000 
     28 H         -17.2204   15.7002  -21.7343 H         1 3P3501      0.0000 
     29 H         -15.5628   14.7446  -20.6138 H         1 3P3501      0.0000 
     30 H         -15.5392   15.9077  -17.8639 H         1 3P3501      0.0000 
     31 H         -14.5823   16.9839  -16.8057 H         1 3P3501      0.0000 
     32 H         -13.2840   18.0461  -15.0694 H         1 3P3501      0.0000 
     33 H          -9.7620   17.1741  -17.1665 H         1 3P3501      0.0000 
     34 H         -11.0625   16.1117  -18.9056 H         1 3P3501      0.0000 
     35 H          -9.6812   19.1812   -9.2970 H         1 3P3501      0.0000 
     36 H          -8.4823   19.7897   -7.2863 H         1 3P3501      0.0000 
     37 H          -6.1872   20.5396   -7.4266 H         1 3P3501      0.0000 
     38 H          -5.0903   20.6817   -9.5771 H         1 3P3501      0.0000 
     39 H          -6.2894   20.0748  -11.5883 H         1 3P3501      0.0000 
     40 H         -15.2260   12.7690  -19.3018 H         1 3P3501      0.0000 
     41 H         -15.8790   13.6407  -17.1211 H         1 3P3501      0.0000 
     42 H         -17.4273   13.7356  -17.5453 H         1 3P3501      0.0000 
     43 H         -16.7261   12.2981  -17.3774 H         1 3P3501      0.0000 
     44 H         -19.0777   16.8334  -21.7580 H         1 3P3501      0.0000 
     45 H         -18.0010   13.2342  -19.8969 H         1 3P3501      0.0000 
@<TRIPOS>BOND
     1    2    1 2    
     2    3    2 am   
     3    5    2 1    
     4    4    3 1    
     5   28    3 1    
     6   44    4 1    
     7    6    5 1    
     8   25    5 1    
     9   29    5 1    
    10    7    6 am   
    11   30    6 1    
    12    8    7 2    
    13    9    7 1    
    14   10    9 ar   
    15   14    9 ar   
    16   11   10 ar   
    17   31   10 1    
    18   12   11 ar   
    19   32   11 1    
    20   13   12 ar   
    21   15   12 1    
    22   14   13 ar   
    23   33   13 1    
    24   34   14 1    
    25   16   15 3    
    26   17   16 1    
    27   18   17 3    
    28   19   18 1    
    29   20   19 ar   
    30   24   19 ar   
    31   21   20 ar   
    32   35   20 1    
    33   22   21 ar   
    34   36   21 1    
    35   23   22 ar   
    36   37   22 1    
    37   24   23 ar   
    38   38   23 1    
    39   39   24 1    
    40   26   25 1    
    41   27   25 1    
    42   40   25 1    
    43   41   26 1    
    44   42   26 1    
    45   43   26 1    
    46   45   27 1    
@<TRIPOS>SUBSTRUCTURE
     1 3P3501      1 GROUP   
@<TRIPOS>SET

