#    Name: 3zgn_10G_1_INTS_M
#    Modification time : Tue Mar 25 02:52:56 2014

@<TRIPOS>MOLECULE
3zgn_10G_1_INTS_M
   47     0     6     0     0
SMALL
NO_CHARGES


@<TRIPOS>ATOM
      1 N          34.5890    1.6940   26.9155 N.am      1 SEC2        0.0000 
      2 N          35.5170    2.3930   26.5020 N.am      5 SEL2        0.0000 
      3 N          33.6610    0.9950   27.3290 N.am      3 SEP2        0.0000 
      4 N          35.0500    3.6275   27.1575 N.am      1 SEC2        0.0000 
      5 N          34.5830    4.8620   27.8130 N.am      3 SEP2        0.0000 
      6 N          35.4880    2.7430   25.0715 N.am      1 SEC2        0.0000 
      7 N          35.4590    3.0930   23.6410 N.am      3 SEP2        0.0000 
      8 N          38.0425    2.8840   24.5440 N.am      1 SEC2        0.0000 
      9 N          37.8150    2.2260   25.8790 N.am      5 SEL2        0.0000 
     10 N          38.2700    3.5420   23.2090 N.am      3 SEP2        0.0000 
     11 N          38.6960    1.4675   25.1605 N.am      1 SEC2        0.0000 
     12 N          39.5770    0.7090   24.4420 N.am      3 SEP2        0.0000 
     13 N          36.1860    0.5285   28.9700 N.am      1 SEC2        0.0000 
     14 N          36.9400    0.9930   27.6730 N.am      5 SEL2        0.0000 
     15 N          35.4320    0.0640   30.2670 N.am      3 SEP2        0.0000 
     16 N          37.0800   -1.8880   25.1315 N.am      1 SEC2        0.0000 
     17 N          36.7630   -0.5770   25.7100 N.am      5 SEL2        0.0000 
     18 N          37.3970   -3.1990   24.5530 N.am      3 SEP2        0.0000 
     19 N          36.7255   -0.3845   24.3635 N.am      1 SEC2        0.0000 
     20 N          36.6880   -0.1920   23.0170 N.am      3 SEP2        0.0000 
     21 N          35.6945   -2.2050   27.9830 N.am      1 SEC2        0.0000 
     22 N          36.7750   -1.4080   28.0940 N.am      5 SEL2        0.0000 
     23 N          34.6140   -3.0020   27.8720 N.am      3 SEP2        0.0000 
     24 N          36.1035   -0.6720   29.1805 N.am      1 SEC2        0.0000 
     25 CA         40.2280   -2.2490   28.4395 C.3       2 GLC5        0.0000 
     26 CA         39.5750   -0.6540   27.9570 C.3       6 GLL5        0.0000 
     27 CA         40.8810   -3.8440   28.9220 C.3       4 GLP5        0.0000 
     28 CA         41.1370   -1.1825   26.6155 C.3       2 GLC5        0.0000 
     29 CA         42.6990   -1.7110   25.2740 C.3       4 GLP5        0.0000 
     30 CA         38.7215   -2.3060   26.8110 C.3       2 GLC5        0.0000 
     31 CA         37.8680   -3.9580   25.6650 C.3       4 GLP5        0.0000 
     32 CA         39.0365   -1.0450   32.4940 C.3       2 GLC5        0.0000 
     33 CA         39.2700    0.0980   31.1220 C.3       6 GLL5        0.0000 
     34 CA         38.8030   -2.1880   33.8660 C.3       4 GLP5        0.0000 
     35 CA         37.5405    0.6735   30.9840 C.3       2 GLC5        0.0000 
     36 CA         35.8110    1.2490   30.8460 C.3       4 GLP5        0.0000 
     37 CA         40.9340    3.4145   32.9250 C.3       2 GLC5        0.0000 
     38 CA         40.5390    2.8990   31.3650 C.3       6 GLL5        0.0000 
     39 CA         41.3290    3.9300   34.4850 C.3       4 GLP5        0.0000 
     40 CA         41.8760    4.5495   30.9180 C.3       2 GLC5        0.0000 
     41 CA         43.2130    6.2000   30.4710 C.3       4 GLP5        0.0000 
     42 CA         40.0628    2.5408   28.1850 C.3       2 GLC5        0.0000 
     43 CA         39.3190    1.0980   30.0010 C.3       6 GLL5        0.0000 
     44 CA         40.7220    4.1570   27.1040 C.3       4 GLP5        0.0000 
     45 CA         37.5426    1.4939   30.3175 C.3       2 GLC5        0.0000 
     46 CA         39.1450    2.5530   30.3120 C.3       6 GLL5        0.0000 
     47 CA         40.2820    3.4415   28.9712 C.3       2 GLC5        0.0000 
@<TRIPOS>BOND
@<TRIPOS>SUBSTRUCTURE
     1 SEC2        1 GROUP        1 X    SEC  0     ROOT SEC X 2
     2 GLC5       25 GROUP        1 X    GLC  0     **** GLC X 6
     3 SEP2        3 GROUP        1 Y    SEP  0     ROOT SEP Y 9
     4 GLP5       27 GROUP        1 Y    GLP  0     **** GLP Y 13
     5 SEL2        2 GROUP        1 Z    SEL  0     ROOT SEL Z 16
     6 GLL5       26 GROUP        1 Z    GLL  0     **** GLL Z 20
@<TRIPOS>SET

