#    Name: 3zgn_10G_1_ligand
#    Modification time : Tue Mar 25 02:52:56 2014

@<TRIPOS>MOLECULE
3zgn_10G_1_ligand
   23    22     1     0     0
SMALL
NO_CHARGES


@<TRIPOS>ATOM
      1 O13        35.5170    2.3930   26.5020 O.co2     1 10G1310     0.0000 
      2 P12        36.8740    2.3610   26.8880 P.3       1 10G1310     0.0000 
      3 O14        37.8150    2.2260   25.8790 O.co2     1 10G1310     0.0000 
      4 O15        37.1720    3.2640   27.9280 O.co2     1 10G1310     0.0000 
      5 O11        36.9400    0.9930   27.6730 O.3       1 10G1310     0.0000 
      6 P8         37.2130   -0.4760   27.1010 P.3       1 10G1310     0.0000 
      7 O9         36.7630   -0.5770   25.7100 O.co2     1 10G1310     0.0000 
      8 O10        36.7750   -1.4080   28.0940 O.co2     1 10G1310     0.0000 
      9 O7         38.6640   -0.6290   26.8770 O.3       1 10G1310     0.0000 
     10 C6         39.5750   -0.6540   27.9570 C.3       1 10G1310     0.0000 
     11 C5         39.4880    0.7510   28.5310 C.2       1 10G1310     0.0000 
     12 C3         39.3190    1.0980   30.0010 C.2       1 10G1310     0.0000 
     13 C4         39.2700    0.0980   31.1220 C.3       1 10G1310     0.0000 
     14 C1         39.1450    2.5530   30.3120 C.3       1 10G1310     0.0000 
     15 S2         40.5390    2.8990   31.3650 S.3       1 10G1310     0.0000 
     16 H          40.5875   -0.8254   27.6402 H         1 10G1310     0.0000 
     17 H          39.2875   -1.3489   28.7246 H         1 10G1310     0.0000 
     18 H          39.5488    1.5345   27.8669 H         1 10G1310     0.0000 
     19 H          38.3335    2.7645   30.9249 H         1 10G1310     0.0000 
     20 H          39.3036    3.1845   29.5027 H         1 10G1310     0.0000 
     21 H          40.1087   -0.4443   31.1729 H         1 10G1310     0.0000 
     22 H          39.1534    0.5416   32.0106 H         1 10G1310     0.0000 
     23 H          38.5116   -0.5447   31.0135 H         1 10G1310     0.0000 
@<TRIPOS>BOND
     1    2    1 ar   
     2    3    2 ar   
     3    4    2 ar   
     4    5    2 1    
     5    6    5 1    
     6    7    6 ar   
     7    8    6 ar   
     8    9    6 1    
     9   10    9 1    
    10   11   10 1    
    11   16   10 1    
    12   17   10 1    
    13   12   11 2    
    14   18   11 1    
    15   13   12 1    
    16   14   12 1    
    17   21   13 1    
    18   22   13 1    
    19   23   13 1    
    20   15   14 1    
    21   19   14 1    
    22   20   14 1    
@<TRIPOS>SUBSTRUCTURE
     1 10G1310     1 GROUP   
@<TRIPOS>SET

