#    Name: 1ia3_TQ5_2_INTS_M
#    Modification time : Tue Mar 25 06:50:26 2014

@<TRIPOS>MOLECULE
1ia3_TQ5_2_INTS_M
   64     0     9     0     0
SMALL
NO_CHARGES


@<TRIPOS>ATOM
      1 CA          8.1845   38.3500   17.4755 C.3       3 GLC5        0.0000 
      2 CA          8.0750   36.7920   19.0350 C.3       9 GLL5        0.0000 
      3 CA          8.2940   39.9080   15.9160 C.3       6 GLP5        0.0000 
      4 CA          7.1120   33.7215   16.5430 C.3       3 GLC5        0.0000 
      5 CA          8.4900   34.7150   17.8530 C.3       9 GLL5        0.0000 
      6 CA          5.7340   32.7280   15.2330 C.3       6 GLP5        0.0000 
      7 CA          6.1655   33.0945   19.1580 C.3       3 GLC5        0.0000 
      8 CA          6.3600   35.0670   18.5970 C.3       9 GLL5        0.0000 
      9 CA          5.9710   31.1220   19.7190 C.3       6 GLP5        0.0000 
     10 CA          6.0470   33.8975   16.9150 C.3       3 GLC5        0.0000 
     11 CA          5.3165   36.1350   17.2845 C.3       3 GLC5        0.0000 
     12 CA          4.2730   37.2030   15.9720 C.3       6 GLP5        0.0000 
     13 CA          6.9730   35.3820   20.6205 C.3       3 GLC5        0.0000 
     14 CA          7.5860   35.6970   22.6440 C.3       6 GLP5        0.0000 
     15 N           5.8540   37.3355   19.4200 N.am      2 SEC2        0.0000 
     16 N           6.6950   36.3740   19.0290 N.am      8 SEL2        0.0000 
     17 N           5.0130   38.2970   19.8110 N.am      5 SEP2        0.0000 
     18 O           8.5575   32.5150   16.7835 O.2       1 ALC1        0.0000 
     19 O           9.2220   33.7420   17.2350 O.2       7 ALL1        0.0000 
     20 O           7.8930   31.2880   16.3320 O.2       4 ALP1        0.0000 
     21 O           9.3520   33.4190   15.5505 O.2       1 ALC1        0.0000 
     22 O           9.4820   33.0960   13.8660 O.2       4 ALP1        0.0000 
     23 O           4.2660   35.7240   19.3455 O.2       1 ALC1        0.0000 
     24 O           5.0820   34.7040   18.8010 O.2       7 ALL1        0.0000 
     25 O           3.4500   36.7440   19.8900 O.2       4 ALP1        0.0000 
     26 CA         11.4825   34.7535   19.4495 C.3       3 GLC5        0.0000 
     27 CA         11.7090   35.5500   17.6020 C.3       9 GLL5        0.0000 
     28 CA         11.2560   33.9570   21.2970 C.3       6 GLP5        0.0000 
     29 CA         12.0855   33.4795   17.9850 C.3       3 GLC5        0.0000 
     30 CA         12.4620   31.4090   18.3680 C.3       6 GLP5        0.0000 
     31 CA          9.4455   38.2220   15.5565 C.3       3 GLC5        0.0000 
     32 CA         10.5970   36.5360   15.1970 C.3       9 GLL5        0.0000 
     33 CA          9.8215   38.6950   14.0675 C.3       3 GLC5        0.0000 
     34 CA         10.6790   36.9200   13.8380 C.3       9 GLL5        0.0000 
     35 CA          8.9640   40.4700   14.2970 C.3       6 GLP5        0.0000 
     36 CA          9.6860   35.6110    9.6920 C.3       3 GLC5        0.0000 
     37 CA         10.7650   36.5500   10.7710 C.3       9 GLL5        0.0000 
     38 CA          8.6070   34.6720    8.6130 C.3       6 GLP5        0.0000 
     39 CA         10.0935   34.5260   11.2020 C.3       3 GLC5        0.0000 
     40 CA          9.4220   32.5020   11.6330 C.3       6 GLP5        0.0000 
     41 CA         10.2970   39.6595   10.0975 C.3       3 GLC5        0.0000 
     42 CA         11.4760   38.7870   11.4740 C.3       9 GLL5        0.0000 
     43 CA          9.1180   40.5320    8.7210 C.3       6 GLP5        0.0000 
     44 CA         12.0920   40.7865   11.6310 C.3       3 GLC5        0.0000 
     45 CA         12.7080   42.7860   11.7880 C.3       6 GLP5        0.0000 
     46 CA         10.2200   39.6285   12.8855 C.3       3 GLC5        0.0000 
     47 CA          7.9047   36.5588   20.9892 C.3       3 GLC5        0.0000 
     48 CA          8.4548   39.9430   20.7575 C.3       3 GLC5        0.0000 
     49 CA          9.7030   38.4630   19.5520 C.3       9 GLL5        0.0000 
     50 CA          7.8720   41.6300   21.9220 C.3       6 GLP5        0.0000 
     51 CA          9.5371   39.4627   18.1315 C.3       3 GLC5        0.0000 
     52 CA          8.3720   38.0490   19.6340 C.3       9 GLL5        0.0000 
     53 CA          9.2310   40.9630   17.0030 C.3       6 GLP5        0.0000 
     54 CA         13.1278   34.9223   12.2785 C.3       3 GLC5        0.0000 
     55 CA         11.8310   36.8070   13.0440 C.3       9 GLL5        0.0000 
     56 CA         13.8880   33.2860   11.1610 C.3       6 GLP5        0.0000 
     57 CA         14.5840   35.6940   14.9772 C.3       3 GLC5        0.0000 
     58 CA         12.9040   36.3100   13.7480 C.3       9 GLL5        0.0000 
     59 CA         16.2940   35.2880   15.5350 C.3       6 GLP5        0.0000 
     60 CA         12.9590   33.9810   14.0012 C.3       3 GLC5        0.0000 
     61 CA         12.8440   35.8900   15.0910 C.3       9 GLL5        0.0000 
     62 CA         13.0440   31.8620   13.5830 C.3       6 GLP5        0.0000 
     63 CA         13.2045   35.2368   11.1955 C.3       3 GLC5        0.0000 
     64 CA         11.8510   37.2700   11.5930 C.3       9 GLL5        0.0000 
@<TRIPOS>BOND
@<TRIPOS>SUBSTRUCTURE
     1 ALC1       18 GROUP        1 X    ALC  0     ROOT ALC X 1
     2 SEC2       15 GROUP        1 X    SEC  0     **** SEC X 2
     3 GLC5        1 GROUP        1 X    GLC  0     **** GLC X 6
     4 ALP1       20 GROUP        1 Y    ALP  0     ROOT ALP Y 8
     5 SEP2       17 GROUP        1 Y    SEP  0     **** SEP Y 9
     6 GLP5        3 GROUP        1 Y    GLP  0     **** GLP Y 13
     7 ALL1       19 GROUP        1 Z    ALL  0     ROOT ALL Z 15
     8 SEL2       16 GROUP        1 Z    SEL  0     **** SEL Z 16
     9 GLL5        2 GROUP        1 Z    GLL  0     **** GLL Z 20
@<TRIPOS>SET

