#    Name: 1ia3_TQ5_2_ligand
#    Modification time : Tue Mar 25 06:50:26 2014

@<TRIPOS>MOLECULE
1ia3_TQ5_2_ligand
   42    44     1     0     0
SMALL
NO_CHARGES


@<TRIPOS>ATOM
      1 C1          8.0750   36.7920   19.0350 C.ar      1 TQ5196      0.0000 
      2 C2          9.0240   35.9790   18.3830 C.ar      1 TQ5196      0.0000 
      3 C3          8.4900   34.7150   17.8530 C.ar      1 TQ5196      0.0000 
      4 N4          7.2660   34.3660   17.9870 N.ar      1 TQ5196      0.0000 
      5 C5          6.3600   35.0670   18.5970 C.ar      1 TQ5196      0.0000 
      6 N6          6.6950   36.3740   19.0290 N.ar      1 TQ5196      0.0000 
      7 N7          9.2220   33.7420   17.2350 N.pl3     1 TQ5196      0.0000 
      8 C8          8.3720   38.0490   19.6340 C.ar      1 TQ5196      0.0000 
      9 C9          9.7030   38.4630   19.5520 C.ar      1 TQ5196      0.0000 
     10 C12        10.6490   37.6690   18.9270 C.ar      1 TQ5196      0.0000 
     11 C13        10.3510   36.4470   18.3320 C.ar      1 TQ5196      0.0000 
     12 N14         5.0820   34.7040   18.8010 N.pl3     1 TQ5196      0.0000 
     13 S20        11.7090   35.5500   17.6020 S.3       1 TQ5196      0.0000 
     14 C22        11.7010   36.0380   15.9110 C.ar      1 TQ5196      0.0000 
     15 C23        10.5970   36.5360   15.1970 C.ar      1 TQ5196      0.0000 
     16 C24        10.6790   36.9200   13.8380 C.ar      1 TQ5196      0.0000 
     17 C25        11.8310   36.8070   13.0440 C.ar      1 TQ5196      0.0000 
     18 C26        12.9040   36.3100   13.7480 C.ar      1 TQ5196      0.0000 
     19 C27        12.8440   35.8900   15.0910 C.ar      1 TQ5196      0.0000 
     20 C32        11.8510   37.2700   11.5930 C.3       1 TQ5196      0.0000 
     21 C33        13.1910   37.1050   10.8670 C.3       1 TQ5196      0.0000 
     22 C37        10.7650   36.5500   10.7710 C.3       1 TQ5196      0.0000 
     23 C41        11.4760   38.7870   11.4740 C.3       1 TQ5196      0.0000 
     24 H           8.7363   33.1890   16.5580 H         1 TQ5196      0.0000 
     25 H          10.1795   33.6679   17.5137 H         1 TQ5196      0.0000 
     26 H           7.6670   38.5877   20.0792 H         1 TQ5196      0.0000 
     27 H           9.9783   39.3691   19.9623 H         1 TQ5196      0.0000 
     28 H          11.6469   38.0045   18.8988 H         1 TQ5196      0.0000 
     29 H           9.6823   36.6270   15.6839 H         1 TQ5196      0.0000 
     30 H           9.8091   37.3198   13.3929 H         1 TQ5196      0.0000 
     31 H          13.8396   36.2334   13.2607 H         1 TQ5196      0.0000 
     32 H          13.6944   35.4415   15.5093 H         1 TQ5196      0.0000 
     33 H          13.9215   37.6214   11.3138 H         1 TQ5196      0.0000 
     34 H          13.4828   36.1490   10.8388 H         1 TQ5196      0.0000 
     35 H          13.1426   37.4247    9.9207 H         1 TQ5196      0.0000 
     36 H          10.7657   36.8451    9.8155 H         1 TQ5196      0.0000 
     37 H          10.8950   35.5585   10.7716 H         1 TQ5196      0.0000 
     38 H           9.8489   36.7257   11.1314 H         1 TQ5196      0.0000 
     39 H          12.1152   39.3682   11.9777 H         1 TQ5196      0.0000 
     40 H          11.4836   39.0980   10.5236 H         1 TQ5196      0.0000 
     41 H          10.5627   38.9733   11.8361 H         1 TQ5196      0.0000 
     42 H           4.6302   35.5284   19.1421 H         1 TQ5196      0.0000 
@<TRIPOS>BOND
     1    2    1 ar   
     2    6    1 ar   
     3    8    1 ar   
     4    3    2 ar   
     5   11    2 ar   
     6    4    3 ar   
     7    7    3 1    
     8    5    4 ar   
     9    6    5 ar   
    10   12    5 1    
    11   24    7 1    
    12   25    7 1    
    13    9    8 ar   
    14   26    8 1    
    15   10    9 ar   
    16   27    9 1    
    17   11   10 ar   
    18   28   10 1    
    19   13   11 1    
    20   42   12 1    
    21   14   13 1    
    22   15   14 ar   
    23   19   14 ar   
    24   16   15 ar   
    25   29   15 1    
    26   17   16 ar   
    27   30   16 1    
    28   18   17 ar   
    29   20   17 1    
    30   19   18 ar   
    31   31   18 1    
    32   32   19 1    
    33   21   20 1    
    34   22   20 1    
    35   23   20 1    
    36   33   21 1    
    37   34   21 1    
    38   35   21 1    
    39   36   22 1    
    40   37   22 1    
    41   38   22 1    
    42   39   23 1    
    43   40   23 1    
    44   41   23 1    
@<TRIPOS>SUBSTRUCTURE
     1 TQ5196      1 GROUP   
@<TRIPOS>SET

