#    Name: 3fql_79Z_1_INTS_M
#    Modification time : Tue Mar 25 06:16:59 2014

@<TRIPOS>MOLECULE
3fql_79Z_1_INTS_M
   88     0     6     0     0
SMALL
NO_CHARGES


@<TRIPOS>ATOM
      1 CA        -12.9430   -9.8305   13.3910 C.3       2 GLC5        0.0000 
      2 CA        -14.2680   -9.6220   12.1590 C.3       6 GLL5        0.0000 
      3 CA        -11.6180  -10.0390   14.6230 C.3       4 GLP5        0.0000 
      4 CA        -15.7470  -11.0725   12.9030 C.3       2 GLC5        0.0000 
      5 CA        -17.2260  -12.5230   13.6470 C.3       4 GLP5        0.0000 
      6 CA        -13.2290   -8.2670   11.2045 C.3       2 GLC5        0.0000 
      7 CA        -12.1900   -6.9120   10.2500 C.3       4 GLP5        0.0000 
      8 CA        -11.8450  -10.1670   12.5335 C.3       2 GLC5        0.0000 
      9 CA        -13.1480  -10.1830   11.2940 C.3       6 GLL5        0.0000 
     10 CA        -10.5420  -10.1510   13.7730 C.3       4 GLP5        0.0000 
     11 CA        -19.1990  -14.9990    6.8125 C.3       2 GLC5        0.0000 
     12 CA        -19.7190  -16.0230    8.5820 C.3       6 GLL5        0.0000 
     13 CA        -18.6790  -13.9750    5.0430 C.3       4 GLP5        0.0000 
     14 CA        -14.0210  -12.8265   11.8035 C.3       2 GLC5        0.0000 
     15 CA        -15.3580  -12.0760   10.5580 C.3       6 GLL5        0.0000 
     16 CA        -12.6840  -13.5770   13.0490 C.3       4 GLP5        0.0000 
     17 CA        -16.2920  -12.2995   12.1025 C.3       2 GLC5        0.0000 
     18 CA        -18.2220  -14.3605    7.1955 C.3       2 GLC5        0.0000 
     19 CA        -17.7650  -14.7460    9.3480 C.3       6 GLL5        0.0000 
     20 CA        -16.9125  -13.4670   11.9290 C.3       2 GLC5        0.0000 
     21 CA        -16.5990  -14.4110   10.2110 C.3       6 GLL5        0.0000 
     22 O         -17.6575  -16.0920   12.5950 O.2       1 ALC1        0.0000 
     23 O         -16.3400  -16.0160   12.0780 O.2       5 ALL1        0.0000 
     24 O         -18.9750  -16.1680   13.1120 O.2       3 ALP1        0.0000 
     25 CA        -14.3500  -18.2720   12.0820 C.3       2 GLC5        0.0000 
     26 CA        -15.6070  -16.9150   12.9650 C.3       6 GLL5        0.0000 
     27 CA        -13.0930  -19.6290   11.1990 C.3       4 GLP5        0.0000 
     28 CA        -13.8705  -17.4040   14.2370 C.3       2 GLC5        0.0000 
     29 CA        -12.1340  -17.8930   15.5090 C.3       4 GLP5        0.0000 
     30 CA        -14.1455  -15.2460   13.0070 C.3       2 GLC5        0.0000 
     31 CA        -16.0680  -18.0855   14.7760 C.3       2 GLC5        0.0000 
     32 CA        -16.5290  -19.2560   16.5870 C.3       4 GLP5        0.0000 
     33 CA        -17.1380  -18.2205   12.6300 C.3       2 GLC5        0.0000 
     34 CA        -18.6690  -19.5260   12.2950 C.3       4 GLP5        0.0000 
     35 CA        -17.9860  -10.2090    5.1005 C.3       2 GLC5        0.0000 
     36 CA        -17.2130   -8.6880    6.2330 C.3       6 GLL5        0.0000 
     37 CA        -18.7590  -11.7300    3.9680 C.3       4 GLP5        0.0000 
     38 CA        -16.8265   -6.5880    6.2075 C.3       2 GLC5        0.0000 
     39 CA        -16.4400   -4.4880    6.1820 C.3       4 GLP5        0.0000 
     40 CA        -18.9795   -8.2355    6.0520 C.3       2 GLC5        0.0000 
     41 CA        -20.7460   -7.7830    5.8710 C.3       4 GLP5        0.0000 
     42 CA        -19.1645  -20.6530    9.5990 C.3       2 GLC5        0.0000 
     43 CA        -20.1480  -19.6000    8.0610 C.3       6 GLL5        0.0000 
     44 CA        -18.1810  -21.7060   11.1370 C.3       4 GLP5        0.0000 
     45 CA        -20.0990  -20.7865    6.4505 C.3       2 GLC5        0.0000 
     46 CA        -20.0500  -21.9730    4.8400 C.3       4 GLP5        0.0000 
     47 CA        -16.4895   -6.1925    9.1035 C.3       2 GLC5        0.0000 
     48 CA        -17.2530   -7.9290    9.3200 C.3       6 GLL5        0.0000 
     49 CA        -15.7260   -4.4560    8.8870 C.3       4 GLP5        0.0000 
     50 CA        -18.9755   -7.5420    8.2060 C.3       2 GLC5        0.0000 
     51 CA        -20.6980   -7.1550    7.0920 C.3       4 GLP5        0.0000 
     52 CA        -18.0590   -9.9935   11.7125 C.3       2 GLC5        0.0000 
     53 CA        -17.5750   -8.2540   10.7640 C.3       6 GLL5        0.0000 
     54 CA        -18.5430  -11.7330   12.6610 C.3       4 GLP5        0.0000 
     55 CA        -13.1960  -11.7397   12.3878 C.3       2 GLC5        0.0000 
     56 CA        -12.9985   -8.7855   10.0120 C.3       2 GLC5        0.0000 
     57 CA        -12.2010   -7.6190    9.0560 C.3       4 GLP5        0.0000 
     58 CA        -17.2765  -17.1735    7.4960 C.3       2 GLC5        0.0000 
     59 CA        -18.4190  -16.0240    9.0740 C.3       6 GLL5        0.0000 
     60 CA        -16.5030  -17.7370    5.8720 C.3       4 GLP5        0.0000 
     61 CA        -17.7210  -18.0705    7.2417 C.3       2 GLC5        0.0000 
     62 CA        -18.2820  -18.3960    8.8350 C.3       6 GLL5        0.0000 
     63 CA        -19.5085  -17.4470   10.4432 C.3       2 GLC5        0.0000 
     64 CA        -20.0780  -16.4900   12.2750 C.3       4 GLP5        0.0000 
     65 CA        -18.7289  -18.8150   10.4946 C.3       2 GLC5        0.0000 
     66 CA        -17.6810  -17.1960    9.1660 C.3       6 GLL5        0.0000 
     67 CA        -20.0467  -16.5587   10.3453 C.3       2 GLC5        0.0000 
     68 CA        -20.3120  -17.2320    8.2490 C.3       6 GLL5        0.0000 
     69 CA        -21.6208  -15.7557    7.2703 C.3       2 GLC5        0.0000 
     70 CA        -23.2260  -14.8840    6.1250 C.3       4 GLP5        0.0000 
     71 CA        -14.8365  -12.6500    8.8780 C.3       2 GLC5        0.0000 
     72 CA        -14.2900  -13.8950    7.4120 C.3       4 GLP5        0.0000 
     73 CA        -17.2242  -11.1312   11.1675 C.3       2 GLC5        0.0000 
     74 CA        -15.4080  -10.7340   10.1300 C.3       6 GLL5        0.0000 
     75 CA        -15.7897  -12.8950    8.1677 C.3       2 GLC5        0.0000 
     76 CA        -17.3260  -11.2420    8.7130 C.3       6 GLL5        0.0000 
     77 CA        -19.1848  -11.7830    8.5608 C.3       2 GLC5        0.0000 
     78 CA        -17.2530  -12.5480    9.1340 C.3       6 GLL5        0.0000 
     79 CA        -21.0800  -11.6710    8.1980 C.3       4 GLP5        0.0000 
     80 CA        -16.9322  -12.2255    6.9187 C.3       2 GLC5        0.0000 
     81 CA        -16.5750  -12.5560    4.9140 C.3       4 GLP5        0.0000 
     82 CA        -17.6664  -12.0815   11.0709 C.3       2 GLC5        0.0000 
     83 CA        -16.2900  -12.9650   10.0380 C.3       6 GLL5        0.0000 
     84 CA        -15.6974  -14.0560    8.5741 C.3       2 GLC5        0.0000 
     85 CA        -18.9928  -16.0840   10.7545 C.3       2 GLC5        0.0000 
     86 CA        -21.1500  -19.5395    9.1984 C.3       2 GLC5        0.0000 
     87 CA        -19.5960  -18.4120    8.3880 C.3       6 GLL5        0.0000 
     88 CA        -22.2490  -20.3680   10.2070 C.3       4 GLP5        0.0000 
@<TRIPOS>BOND
@<TRIPOS>SUBSTRUCTURE
     1 ALC1       22 GROUP        1 X    ALC  0     ROOT ALC X 1
     2 GLC5        1 GROUP        1 X    GLC  0     **** GLC X 6
     3 ALP1       24 GROUP        1 Y    ALP  0     ROOT ALP Y 8
     4 GLP5        3 GROUP        1 Y    GLP  0     **** GLP Y 13
     5 ALL1       23 GROUP        1 Z    ALL  0     ROOT ALL Z 15
     6 GLL5        2 GROUP        1 Z    GLL  0     **** GLL Z 20
@<TRIPOS>SET

