#    Name: 3fql_79Z_1_ligand
#    Modification time : Tue Mar 25 06:17:00 2014

@<TRIPOS>MOLECULE
3fql_79Z_1_ligand
   54    57     1     0     0
SMALL
NO_CHARGES


@<TRIPOS>ATOM
      1 C1        -14.2680   -9.6220   12.1590 C.3       1 79Z571      0.0000 
      2 C2        -14.4440   -9.7210   10.6420 C.3       1 79Z571      0.0000 
      3 C3        -13.1480  -10.1830   11.2940 C.3       1 79Z571      0.0000 
      4 C4        -18.4190  -16.0240    9.0740 C.ar      1 79Z571      0.0000 
      5 C5        -17.6810  -17.1960    9.1660 C.ar      1 79Z571      0.0000 
      6 C6        -18.2820  -18.3960    8.8350 C.ar      1 79Z571      0.0000 
      7 C7        -19.5960  -18.4120    8.3880 C.ar      1 79Z571      0.0000 
      8 C8        -20.3120  -17.2320    8.2490 C.ar      1 79Z571      0.0000 
      9 C9        -19.7190  -16.0230    8.5820 C.ar      1 79Z571      0.0000 
     10 C10       -15.4080  -10.7340   10.1300 C.ar      1 79Z571      0.0000 
     11 C11       -16.4030  -10.3250    9.2180 C.ar      1 79Z571      0.0000 
     12 C12       -17.3260  -11.2420    8.7130 C.ar      1 79Z571      0.0000 
     13 C13       -15.3580  -12.0760   10.5580 C.ar      1 79Z571      0.0000 
     14 C14       -16.2900  -12.9650   10.0380 C.ar      1 79Z571      0.0000 
     15 C15       -17.2530  -12.5480    9.1340 C.ar      1 79Z571      0.0000 
     16 O16       -18.1320  -13.5750    8.7270 O.3       1 79Z571      0.0000 
     17 C17       -17.7650  -14.7460    9.3480 C.2       1 79Z571      0.0000 
     18 C18       -16.5990  -14.4110   10.2110 C.2       1 79Z571      0.0000 
     19 C19       -15.7860  -15.3060   11.0950 C.2       1 79Z571      0.0000 
     20 O20       -14.5900  -15.3970   10.8810 O.2       1 79Z571      0.0000 
     21 N21       -16.3400  -16.0160   12.0780 N.am      1 79Z571      0.0000 
     22 C22       -15.6070  -16.9150   12.9650 C.3       1 79Z571      0.0000 
     23 N23       -16.5250   -9.0050    8.6980 N.pl3     1 79Z571      0.0000 
     24 S24       -15.9290   -8.7640    7.3020 S.o2      1 79Z571      0.0000 
     25 O25       -15.1660   -7.5600    7.2420 O.2       1 79Z571      0.0000 
     26 O26       -15.0750   -9.8250    6.8270 O.2       1 79Z571      0.0000 
     27 C27       -17.2130   -8.6880    6.2330 C.3       1 79Z571      0.0000 
     28 F28       -20.1480  -19.6000    8.0610 F         1 79Z571      0.0000 
     29 C29       -17.2530   -7.9290    9.3200 C.3       1 79Z571      0.0000 
     30 C30       -17.5750   -8.2540   10.7640 C.3       1 79Z571      0.0000 
     31 O31       -18.0160   -7.0550   11.3900 O.3       1 79Z571      0.0000 
     32 H         -14.7266  -10.3526   12.5451 H         1 79Z571      0.0000 
     33 H         -14.0533   -8.7240   12.3607 H         1 79Z571      0.0000 
     34 H         -14.2735   -8.8311   10.3029 H         1 79Z571      0.0000 
     35 H         -13.1786  -11.1269   11.3590 H         1 79Z571      0.0000 
     36 H         -12.5053   -9.4983   11.1746 H         1 79Z571      0.0000 
     37 H         -16.7055  -17.1693    9.4749 H         1 79Z571      0.0000 
     38 H         -17.7579  -19.2781    8.9190 H         1 79Z571      0.0000 
     39 H         -21.2787  -17.2535    7.9004 H         1 79Z571      0.0000 
     40 H         -20.2287  -15.1449    8.4679 H         1 79Z571      0.0000 
     41 H         -18.0361  -10.9392    8.0457 H         1 79Z571      0.0000 
     42 H         -14.6584  -12.3744   11.2264 H         1 79Z571      0.0000 
     43 H         -17.3810  -15.9591   12.2699 H         1 79Z571      0.0000 
     44 H         -18.2001   -7.7340    8.7931 H         1 79Z571      0.0000 
     45 H         -16.6723   -6.9936    9.3005 H         1 79Z571      0.0000 
     46 H         -16.6741   -8.6501   11.2325 H         1 79Z571      0.0000 
     47 H         -18.3444   -9.0259   10.7754 H         1 79Z571      0.0000 
     48 H         -15.1528  -17.6478   12.4583 H         1 79Z571      0.0000 
     49 H         -14.8988  -16.4324   13.4803 H         1 79Z571      0.0000 
     50 H         -16.2101  -17.3508   13.6331 H         1 79Z571      0.0000 
     51 H         -16.9062   -8.5276    5.2948 H         1 79Z571      0.0000 
     52 H         -17.7422   -9.5365    6.2273 H         1 79Z571      0.0000 
     53 H         -17.8459   -7.9493    6.4647 H         1 79Z571      0.0000 
     54 H         -18.9701   -6.9522   11.1088 H         1 79Z571      0.0000 
@<TRIPOS>BOND
     1    2    1 1    
     2    3    1 1    
     3   32    1 1    
     4   33    1 1    
     5    3    2 1    
     6   10    2 1    
     7   34    2 1    
     8   35    3 1    
     9   36    3 1    
    10    5    4 ar   
    11    9    4 ar   
    12   17    4 1    
    13    6    5 ar   
    14   37    5 1    
    15    7    6 ar   
    16   38    6 1    
    17    8    7 ar   
    18   28    7 1    
    19    9    8 ar   
    20   39    8 1    
    21   40    9 1    
    22   11   10 ar   
    23   13   10 ar   
    24   12   11 ar   
    25   23   11 1    
    26   15   12 ar   
    27   41   12 1    
    28   14   13 ar   
    29   42   13 1    
    30   15   14 ar   
    31   18   14 1    
    32   16   15 1    
    33   17   16 1    
    34   18   17 2    
    35   19   18 1    
    36   20   19 2    
    37   21   19 am   
    38   22   21 1    
    39   43   21 1    
    40   48   22 1    
    41   49   22 1    
    42   50   22 1    
    43   24   23 1    
    44   29   23 1    
    45   25   24 2    
    46   26   24 2    
    47   27   24 1    
    48   51   27 1    
    49   52   27 1    
    50   53   27 1    
    51   30   29 1    
    52   44   29 1    
    53   45   29 1    
    54   31   30 1    
    55   46   30 1    
    56   47   30 1    
    57   54   31 1    
@<TRIPOS>SUBSTRUCTURE
     1 79Z571      1 GROUP   
@<TRIPOS>SET

