#    Name: 2wtc_VGM_1_INTS_M
#    Modification time : Tue Mar 25 04:38:02 2014

@<TRIPOS>MOLECULE
2wtc_VGM_1_INTS_M
   58     0     9     0     0
SMALL
NO_CHARGES


@<TRIPOS>ATOM
      1 CA         -9.9795   46.0815    7.1995 C.3       3 GLC5        0.0000 
      2 CA        -10.2580   47.3310    5.9770 C.3       9 GLL5        0.0000 
      3 CA         -9.7010   44.8320    8.4220 C.3       6 GLP5        0.0000 
      4 CA         -9.5725   46.9895    8.3080 C.3       3 GLC5        0.0000 
      5 CA         -9.4440   49.1470    8.1940 C.3       9 GLL5        0.0000 
      6 CA         -5.9385   48.3845   13.1760 C.3       3 GLC5        0.0000 
      7 CA         -4.9630   50.0070   13.9560 C.3       9 GLL5        0.0000 
      8 CA         -6.9140   46.7620   12.3960 C.3       6 GLP5        0.0000 
      9 CA         -6.4725   52.4920   11.0655 C.3       3 GLC5        0.0000 
     10 CA         -6.0490   50.4290   11.7420 C.3       9 GLL5        0.0000 
     11 CA         -6.8960   54.5550   10.3890 C.3       6 GLP5        0.0000 
     12 CA        -11.1370   51.3360   10.9100 C.3       3 GLC5        0.0000 
     13 CA        -10.1580   49.8930   10.4530 C.3       9 GLL5        0.0000 
     14 CA        -12.1160   52.7790   11.3670 C.3       6 GLP5        0.0000 
     15 CA        -11.3925   48.9680   11.7610 C.3       3 GLC5        0.0000 
     16 CA        -12.6270   48.0430   13.0690 C.3       6 GLP5        0.0000 
     17 N         -12.4360   49.3510   11.1990 N.am      2 SEC2        0.0000 
     18 N         -11.5760   49.6160   10.0860 N.am      8 SEL2        0.0000 
     19 N         -13.2960   49.0860   12.3120 N.am      5 SEP2        0.0000 
     20 CA        -12.6980   50.8700    8.4595 C.3       3 GLC5        0.0000 
     21 CA        -11.9050   49.1200    8.7710 C.3       9 GLL5        0.0000 
     22 CA        -13.4910   52.6200    8.1480 C.3       6 GLP5        0.0000 
     23 CA        -12.0105   50.9495   10.0690 C.3       3 GLC5        0.0000 
     24 CA        -12.1040   47.9920   10.4655 C.3       3 GLC5        0.0000 
     25 CA        -12.3030   46.8640   12.1600 C.3       6 GLP5        0.0000 
     26 O         -14.6155   49.4445    9.0600 O.2       1 ALC1        0.0000 
     27 O         -13.2780   48.8780    8.4420 O.2       7 ALL1        0.0000 
     28 O         -15.9530   50.0110    9.6780 O.2       4 ALP1        0.0000 
     29 CA        -11.3235   46.0535    6.4510 C.3       3 GLC5        0.0000 
     30 CA        -10.5020   46.7630    4.6310 C.3       9 GLL5        0.0000 
     31 CA        -12.1450   45.3440    8.2710 C.3       6 GLP5        0.0000 
     32 N         -13.1115   47.1140    0.2805 N.am      2 SEC2        0.0000 
     33 N         -12.8080   46.8330    1.7360 N.am      8 SEL2        0.0000 
     34 N         -13.4150   47.3950   -1.1750 N.am      5 SEP2        0.0000 
     35 CA         -6.1090   51.4955    8.8510 C.3       3 GLC5        0.0000 
     36 CA         -5.2390   49.7010    9.4990 C.3       9 GLL5        0.0000 
     37 CA         -6.9790   53.2900    8.2030 C.3       6 GLP5        0.0000 
     38 CA        -11.0925   49.5175    3.8350 C.3       3 GLC5        0.0000 
     39 CA        -11.6340   47.2270    3.8300 C.3       9 GLL5        0.0000 
     40 CA        -10.1010   51.2850    3.5620 C.3       6 GLP5        0.0000 
     41 CA        -11.5440   45.2180    4.9370 C.3       3 GLC5        0.0000 
     42 CA        -12.0810   43.2990    5.3070 C.3       6 GLP5        0.0000 
     43 CA        -10.9123   49.9465    4.8455 C.3       3 GLC5        0.0000 
     44 CA        -11.1510   48.3710    6.5270 C.3       9 GLL5        0.0000 
     45 CA        -14.0575   49.1725    4.7368 C.3       3 GLC5        0.0000 
     46 CA        -12.2960   48.8450    5.7310 C.3       9 GLL5        0.0000 
     47 CA        -15.7000   49.7860    4.4150 C.3       6 GLP5        0.0000 
     48 CA        -11.9342   46.9760    7.2000 C.3       3 GLC5        0.0000 
     49 CA         -9.9715   50.7737    6.8528 C.3       3 GLC5        0.0000 
     50 CA        -10.8480   48.8920    7.8210 C.3       9 GLL5        0.0000 
     51 CA         -9.7970   52.5280    5.6980 C.3       6 GLP5        0.0000 
     52 CA         -7.1553   51.6384    9.2982 C.3       3 GLC5        0.0000 
     53 CA         -7.4640   50.2720   11.2890 C.3       9 GLL5        0.0000 
     54 CA         -9.3695   51.8503    9.7025 C.3       3 GLC5        0.0000 
     55 CA         -9.1060   49.6620    9.5370 C.3       9 GLL5        0.0000 
     56 CA         -9.1070   53.9230    9.4100 C.3       6 GLP5        0.0000 
     57 CA        -11.7607   47.1750    8.2835 C.3       3 GLC5        0.0000 
     58 CA         -6.6327   48.3758   11.3944 C.3       3 GLC5        0.0000 
@<TRIPOS>BOND
@<TRIPOS>SUBSTRUCTURE
     1 ALC1       26 GROUP        1 X    ALC  0     ROOT ALC X 1
     2 SEC2       17 GROUP        1 X    SEC  0     **** SEC X 2
     3 GLC5        1 GROUP        1 X    GLC  0     **** GLC X 6
     4 ALP1       28 GROUP        1 Y    ALP  0     ROOT ALP Y 8
     5 SEP2       19 GROUP        1 Y    SEP  0     **** SEP Y 9
     6 GLP5        3 GROUP        1 Y    GLP  0     **** GLP Y 13
     7 ALL1       27 GROUP        1 Z    ALL  0     ROOT ALL Z 15
     8 SEL2       18 GROUP        1 Z    SEL  0     **** SEL Z 16
     9 GLL5        2 GROUP        1 Z    GLL  0     **** GLL Z 20
@<TRIPOS>SET

