#    Name: 2wtc_VGM_1_ligand
#    Modification time : Tue Mar 25 04:38:02 2014

@<TRIPOS>MOLECULE
2wtc_VGM_1_ligand
   42    44     1     0     0
SMALL
NO_CHARGES


@<TRIPOS>ATOM
      1 C13       -10.2580   47.3310    5.9770 C.ar      1 VGM1513     0.0000 
      2 C15       -11.6340   47.2270    3.8300 C.ar      1 VGM1513     0.0000 
      3 C20       -12.2960   48.8450    5.7310 C.ar      1 VGM1513     0.0000 
      4 C21        -9.4440   49.1470    8.1940 C.ar      1 VGM1513     0.0000 
      5 C22        -6.6500   49.5470    9.0450 C.ar      1 VGM1513     0.0000 
      6 C24        -4.9590   50.1390   10.8280 C.ar      1 VGM1513     0.0000 
      7 C01        -4.9630   50.0070   13.9560 C.3       1 VGM1513     0.0000 
      8 O02        -5.7340   50.8490   13.0880 O.3       1 VGM1513     0.0000 
      9 C03        -6.0490   50.4290   11.7420 C.ar      1 VGM1513     0.0000 
     10 C04        -7.4640   50.2720   11.2890 C.ar      1 VGM1513     0.0000 
     11 C05        -7.7480   49.8560    9.9510 C.ar      1 VGM1513     0.0000 
     12 C06        -9.1060   49.6620    9.5370 C.ar      1 VGM1513     0.0000 
     13 C07       -10.1580   49.8930   10.4530 C.ar      1 VGM1513     0.0000 
     14 N08       -11.5760   49.6160   10.0860 N.ar      1 VGM1513     0.0000 
     15 C09       -11.9050   49.1200    8.7710 C.ar      1 VGM1513     0.0000 
     16 N10       -13.2780   48.8780    8.4420 N.pl3     1 VGM1513     0.0000 
     17 C11       -10.8480   48.8920    7.8210 C.ar      1 VGM1513     0.0000 
     18 C12       -11.1510   48.3710    6.5270 C.ar      1 VGM1513     0.0000 
     19 C14       -10.5020   46.7630    4.6310 C.ar      1 VGM1513     0.0000 
     20 C16       -11.8390   46.6160    2.4000 C.2       1 VGM1513     0.0000 
     21 N17       -10.7310   45.9540    1.7730 N.am      1 VGM1513     0.0000 
     22 O18       -12.8080   46.8330    1.7360 O.2       1 VGM1513     0.0000 
     23 C19       -12.5340   48.2730    4.3860 C.ar      1 VGM1513     0.0000 
     24 C23        -5.2390   49.7010    9.4990 C.ar      1 VGM1513     0.0000 
     25 O25        -3.6290   50.3160   11.2620 O.3       1 VGM1513     0.0000 
     26 H          -9.4789   47.0053    6.5184 H         1 VGM1513     0.0000 
     27 H         -12.9067   49.5438    6.0909 H         1 VGM1513     0.0000 
     28 H          -8.7116   48.9697    7.5311 H         1 VGM1513     0.0000 
     29 H          -6.8286   49.2293    8.1118 H         1 VGM1513     0.0000 
     30 H          -8.1988   50.4662   11.9482 H         1 VGM1513     0.0000 
     31 H          -9.9781   50.2540   11.3866 H         1 VGM1513     0.0000 
     32 H         -13.9505   49.4489    8.9129 H         1 VGM1513     0.0000 
     33 H         -13.4489   48.1584    7.7690 H         1 VGM1513     0.0000 
     34 H          -9.8838   46.0579    4.2750 H         1 VGM1513     0.0000 
     35 H          -9.8724   45.9518    2.2856 H         1 VGM1513     0.0000 
     36 H         -10.9101   45.5502    0.8759 H         1 VGM1513     0.0000 
     37 H         -13.3127   48.5936    3.8395 H         1 VGM1513     0.0000 
     38 H          -4.5022   49.4890    8.8468 H         1 VGM1513     0.0000 
     39 H          -4.0587   49.8114   13.5766 H         1 VGM1513     0.0000 
     40 H          -4.8203   50.4283   14.8516 H         1 VGM1513     0.0000 
     41 H          -5.4111   49.1271   14.1141 H         1 VGM1513     0.0000 
     42 H          -3.0757   49.7777   10.6263 H         1 VGM1513     0.0000 
@<TRIPOS>BOND
     1   18    1 ar   
     2   19    1 ar   
     3   26    1 1    
     4   19    2 ar   
     5   20    2 1    
     6   23    2 ar   
     7   18    3 ar   
     8   23    3 ar   
     9   27    3 1    
    10   12    4 ar   
    11   17    4 ar   
    12   28    4 1    
    13   11    5 ar   
    14   24    5 ar   
    15   29    5 1    
    16    9    6 ar   
    17   24    6 ar   
    18   25    6 1    
    19    8    7 1    
    20   39    7 1    
    21   40    7 1    
    22   41    7 1    
    23    9    8 1    
    24   10    9 ar   
    25   11   10 ar   
    26   30   10 1    
    27   12   11 1    
    28   13   12 ar   
    29   14   13 ar   
    30   31   13 1    
    31   15   14 ar   
    32   16   15 1    
    33   17   15 ar   
    34   32   16 1    
    35   33   16 1    
    36   18   17 1    
    37   34   19 1    
    38   21   20 am   
    39   22   20 2    
    40   35   21 1    
    41   36   21 1    
    42   37   23 1    
    43   38   24 1    
    44   42   25 1    
@<TRIPOS>SUBSTRUCTURE
     1 VGM1513     1 GROUP   
@<TRIPOS>SET

