#    Name: 3vc4_0FS_2_INTS_M
#    Modification time : Tue Mar 25 00:38:21 2014

@<TRIPOS>MOLECULE
3vc4_0FS_2_INTS_M
   48     0     6     0     0
SMALL
NO_CHARGES


@<TRIPOS>ATOM
      1 CA         40.3350   -2.1665    3.8580 C.3       2 GLC5        0.0000 
      2 CA         40.6920   -3.3460    2.2420 C.3       6 GLL5        0.0000 
      3 CA         39.9780   -0.9870    5.4740 C.3       4 GLP5        0.0000 
      4 CA         41.0545   -5.2180    2.0915 C.3       2 GLC5        0.0000 
      5 CA         41.4170   -7.0900    1.9410 C.3       4 GLP5        0.0000 
      6 N          36.5540   -2.7625    1.4285 N.am      1 SEC2        0.0000 
      7 N          37.7210   -2.6470    0.2790 N.am      5 SEL2        0.0000 
      8 N          35.3870   -2.8780    2.5780 N.am      3 SEP2        0.0000 
      9 N          38.9980   -5.7945    3.5655 N.am      1 SEC2        0.0000 
     10 N          39.4310   -4.4690    4.1850 N.am      5 SEL2        0.0000 
     11 N          38.5650   -7.1200    2.9460 N.am      3 SEP2        0.0000 
     12 CA         47.7355   -2.8325    1.6895 C.3       2 GLC5        0.0000 
     13 CA         46.5030   -2.2360    0.2200 C.3       6 GLL5        0.0000 
     14 CA         48.9680   -3.4290    3.1590 C.3       4 GLP5        0.0000 
     15 CA         48.0520   -2.2970   -0.9790 C.3       2 GLC5        0.0000 
     16 CA         49.6010   -2.3580   -2.1780 C.3       4 GLP5        0.0000 
     17 CA         44.6860   -3.3395    3.3935 C.3       2 GLC5        0.0000 
     18 CA         45.0540   -2.0310    1.9390 C.3       6 GLL5        0.0000 
     19 CA         44.3180   -4.6480    4.8480 C.3       4 GLP5        0.0000 
     20 CA         46.5130   -0.7855    2.5755 C.3       2 GLC5        0.0000 
     21 CA         47.9720    0.4600    3.2120 C.3       4 GLP5        0.0000 
     22 CA         47.0110   -2.7300    2.5490 C.3       2 GLC5        0.0000 
     23 CA         45.0865    0.8670   -0.6250 C.3       2 GLC5        0.0000 
     24 CA         45.5470   -0.3380    0.5690 C.3       6 GLL5        0.0000 
     25 CA         44.6260    2.0720   -1.8190 C.3       4 GLP5        0.0000 
     26 CA         46.7600    0.7060    0.7880 C.3       2 GLC5        0.0000 
     27 CA         47.9730    1.7500    1.0070 C.3       4 GLP5        0.0000 
     28 CA         41.7892   -4.1258   -0.8902 C.3       2 GLC5        0.0000 
     29 CA         41.9510   -2.1070   -0.5810 C.3       6 GLL5        0.0000 
     30 CA         41.4890   -6.1600   -0.4550 C.3       4 GLP5        0.0000 
     31 CA         44.3777    0.1098   -1.5030 C.3       2 GLC5        0.0000 
     32 CA         44.2540   -1.8310   -0.2490 C.3       6 GLL5        0.0000 
     33 CA         43.5648   -0.3052    1.3975 C.3       2 GLC5        0.0000 
     34 CA         43.5210    1.2880    2.7660 C.3       4 GLP5        0.0000 
     35 CA         41.5991   -0.2419   -0.3071 C.3       2 GLC5        0.0000 
     36 CA         42.9630   -1.9660    0.3070 C.3       6 GLL5        0.0000 
     37 CA         40.6720    1.5450   -0.1050 C.3       4 GLP5        0.0000 
     38 CA         44.5755   -3.5945    0.1047 C.3       2 GLC5        0.0000 
     39 CA         45.4730   -5.2970    0.5340 C.3       4 GLP5        0.0000 
     40 CA         39.3088   -0.8335   -0.0573 C.3       2 GLC5        0.0000 
     41 CA         40.5220   -2.2080   -0.1340 C.3       6 GLL5        0.0000 
     42 CA         38.3500    0.8280   -0.5350 C.3       4 GLP5        0.0000 
     43 CA         40.8782   -4.3275   -0.0172 C.3       2 GLC5        0.0000 
     44 CA         47.1935   -0.7403    1.1098 C.3       2 GLC5        0.0000 
     45 CA         45.3830   -1.6550    0.6810 C.3       6 GLL5        0.0000 
     46 CA         48.4440    0.4650    1.7690 C.3       4 GLP5        0.0000 
     47 CA         45.4857   -3.6426    0.8644 C.3       2 GLC5        0.0000 
     48 CA         44.4519    0.0987    1.8528 C.3       2 GLC5        0.0000 
@<TRIPOS>BOND
@<TRIPOS>SUBSTRUCTURE
     1 SEC2        6 GROUP        1 X    SEC  0     ROOT SEC X 2
     2 GLC5        1 GROUP        1 X    GLC  0     **** GLC X 6
     3 SEP2        8 GROUP        1 Y    SEP  0     ROOT SEP Y 9
     4 GLP5        3 GROUP        1 Y    GLP  0     **** GLP Y 13
     5 SEL2        7 GROUP        1 Z    SEL  0     ROOT SEL Z 16
     6 GLL5        2 GROUP        1 Z    GLL  0     **** GLL Z 20
@<TRIPOS>SET

