#    Name: 3vc4_0FS_2_ligand
#    Modification time : Tue Mar 25 00:38:21 2014

@<TRIPOS>MOLECULE
3vc4_0FS_2_ligand
   24    25     1     0     0
SMALL
NO_CHARGES


@<TRIPOS>ATOM
      1 C01        42.2280   -2.0760   -2.0700 C.ar      1 0FS1        0.0000 
      2 C02        44.5320   -1.8050   -1.6630 C.ar      1 0FS1        0.0000 
      3 C03        43.4780   -1.9430   -2.5870 C.ar      1 0FS1        0.0000 
      4 C04        44.2540   -1.8310   -0.2490 C.ar      1 0FS1        0.0000 
      5 C05        41.9510   -2.1070   -0.5810 C.ar      1 0FS1        0.0000 
      6 C06        42.9630   -1.9660    0.3070 C.ar      1 0FS1        0.0000 
      7 C07        38.5640   -2.9710    1.0700 C.2       1 0FS1        0.0000 
      8 N08        38.2140   -3.6680    2.4420 N.am      1 0FS1        0.0000 
      9 C09        39.4200   -3.9290    3.1110 C.2       1 0FS1        0.0000 
     10 S10        40.6920   -3.3460    2.2420 S.3       1 0FS1        0.0000 
     11 C11        40.0130   -2.7820    0.9750 C.2       1 0FS1        0.0000 
     12 C12        45.3830   -1.6550    0.6810 C.3       1 0FS1        0.0000 
     13 C13        40.5220   -2.2080   -0.1340 C.2       1 0FS1        0.0000 
     14 O14        37.7210   -2.6470    0.2790 O.2       1 0FS1        0.0000 
     15 O15        39.4310   -4.4690    4.1850 O.2       1 0FS1        0.0000 
     16 F16        46.5030   -2.2360    0.2200 F         1 0FS1        0.0000 
     17 F17        45.0540   -2.0310    1.9390 F         1 0FS1        0.0000 
     18 F18        45.5470   -0.3380    0.5690 F         1 0FS1        0.0000 
     19 H          41.3854   -2.1646   -2.6672 H         1 0FS1        0.0000 
     20 H          45.4905   -1.6867   -1.9776 H         1 0FS1        0.0000 
     21 H          43.6658   -1.9404   -3.5768 H         1 0FS1        0.0000 
     22 H          42.8340   -1.9546    1.3008 H         1 0FS1        0.0000 
     23 H          37.3483   -3.8304    2.6705 H         1 0FS1        0.0000 
     24 H          39.8430   -1.7361   -0.8394 H         1 0FS1        0.0000 
@<TRIPOS>BOND
     1    3    1 ar   
     2    5    1 ar   
     3   19    1 1    
     4    3    2 ar   
     5    4    2 ar   
     6   20    2 1    
     7   21    3 1    
     8    6    4 ar   
     9   12    4 1    
    10    6    5 ar   
    11   13    5 1    
    12   22    6 1    
    13    8    7 am   
    14   11    7 1    
    15   14    7 2    
    16    9    8 am   
    17   23    8 1    
    18   10    9 1    
    19   15    9 2    
    20   11   10 1    
    21   13   11 2    
    22   16   12 1    
    23   17   12 1    
    24   18   12 1    
    25   24   13 1    
@<TRIPOS>SUBSTRUCTURE
     1 0FS1        1 GROUP   
@<TRIPOS>SET

