#    Name: 3pcr_GTP_1_INTS_M
#    Modification time : Tue Mar 25 06:16:28 2014

@<TRIPOS>MOLECULE
3pcr_GTP_1_INTS_M
   76     0    15     0     0
SMALL
NO_CHARGES


@<TRIPOS>ATOM
      1 Zn        -44.6040  -14.5120  -29.1165 Zn        4 ZIC7        0.0000 
      2 Zn        -45.0850  -14.3660  -28.2760 Zn       14 ZIL7        0.0000 
      3 Zn        -44.1230  -14.6580  -29.9570 Zn        9 ZIP7        0.0000 
      4 N         -44.7670  -13.0920  -27.8025 N.am      2 SEC2        0.0000 
      5 N         -45.0850  -14.3660  -28.2760 N.am     12 SEL2        0.0000 
      6 N         -44.4490  -11.8180  -27.3290 N.am      7 SEP2        0.0000 
      7 NZ        -47.1490  -15.3860  -31.0870 N.4       3 LYC4        0.0000 
      8 NZ        -46.8500  -14.3720  -29.9920 N.4      13 LYL4        0.0000 
      9 NZ        -47.4480  -16.4000  -32.1820 N.4       8 LYP4        0.0000 
     10 Zn        -45.4865  -14.5150  -29.9745 Zn        4 ZIC7        0.0000 
     11 Zn        -46.8500  -14.3720  -29.9920 Zn       14 ZIL7        0.0000 
     12 N         -47.1490  -15.3860  -31.0870 N.am      2 SEC2        0.0000 
     13 N         -46.8500  -14.3720  -29.9920 N.am     12 SEL2        0.0000 
     14 N         -47.4480  -16.4000  -32.1820 N.am      7 SEP2        0.0000 
     15 N         -48.1955  -14.0790  -30.5145 N.am      2 SEC2        0.0000 
     16 N         -49.5410  -13.7860  -31.0370 N.am      7 SEP2        0.0000 
     17 N         -47.1330  -17.4895  -28.1570 N.am      2 SEC2        0.0000 
     18 N         -46.3640  -16.5320  -28.7380 N.am     12 SEL2        0.0000 
     19 N         -47.9020  -18.4470  -27.5760 N.am      7 SEP2        0.0000 
     20 NZ        -46.5775  -17.3950  -31.3305 N.4       3 LYC4        0.0000 
     21 NZ        -45.7070  -18.3900  -30.4790 N.4      13 LYL4        0.0000 
     22 N         -46.5325  -19.5685  -29.7585 N.am      2 SEC2        0.0000 
     23 N         -45.7070  -18.3900  -30.4790 N.am     12 SEL2        0.0000 
     24 N         -47.3580  -20.7470  -29.0380 N.am      7 SEP2        0.0000 
     25 N         -45.3045  -19.7475  -30.3545 N.am      2 SEC2        0.0000 
     26 N         -44.9020  -21.1050  -30.2300 N.am      7 SEP2        0.0000 
     27 N         -44.7515  -19.0445  -31.3485 N.am      2 SEC2        0.0000 
     28 N         -43.7960  -19.6990  -32.2180 N.am      7 SEP2        0.0000 
     29 N         -46.5775  -17.3950  -31.3305 N.am      2 SEC2        0.0000 
     30 NZ        -45.8130  -16.4200  -31.1540 N.4       3 LYC4        0.0000 
     31 NZ        -44.1780  -16.4400  -30.1260 N.4      13 LYL4        0.0000 
     32 Zn        -44.1505  -15.5490  -30.0415 Zn        4 ZIC7        0.0000 
     33 Zn        -44.1780  -16.4400  -30.1260 Zn       14 ZIL7        0.0000 
     34 N         -43.1730  -16.8860  -31.2455 N.am      2 SEC2        0.0000 
     35 N         -44.1780  -16.4400  -30.1260 N.am     12 SEL2        0.0000 
     36 N         -42.1680  -17.3320  -32.3650 N.am      7 SEP2        0.0000 
     37 N         -44.7575  -19.6930  -29.2875 N.am      2 SEC2        0.0000 
     38 N         -44.6130  -18.2810  -28.3450 N.am     12 SEL2        0.0000 
     39 N         -41.1095  -18.5970  -30.3155 N.am      2 SEC2        0.0000 
     40 N         -42.2880  -18.7060  -29.4880 N.am     12 SEL2        0.0000 
     41 N         -39.9310  -18.4880  -31.1430 N.am      7 SEP2        0.0000 
     42 N         -41.2175  -19.3845  -29.2090 N.am      2 SEC2        0.0000 
     43 N         -40.1470  -20.0630  -28.9300 N.am      7 SEP2        0.0000 
     44 N         -41.3870  -17.3715  -27.0870 N.am      2 SEC2        0.0000 
     45 N         -42.6190  -17.2250  -27.4480 N.am     12 SEL2        0.0000 
     46 N         -40.1550  -17.5180  -26.7260 N.am      7 SEP2        0.0000 
     47 CA        -43.7485  -20.6560  -28.3925 C.3       5 GLC5        0.0000 
     48 CA        -44.0250  -20.0550  -26.3740 C.3      15 GLL5        0.0000 
     49 CA        -43.4720  -21.2570  -30.4110 C.3      10 GLP5        0.0000 
     50 N         -44.5620  -23.1750  -26.0515 N.am      2 SEC2        0.0000 
     51 N         -43.4080  -22.2400  -25.7500 N.am     12 SEL2        0.0000 
     52 N         -45.7160  -24.1100  -26.3530 N.am      7 SEP2        0.0000 
     53 CA        -43.5655  -23.7895  -26.6190 C.3       5 GLC5        0.0000 
     54 CA        -42.1070  -22.7620  -25.7800 C.3      15 GLL5        0.0000 
     55 CA        -45.0240  -24.8170  -27.4580 C.3      10 GLP5        0.0000 
     56 N         -42.1620  -24.9650  -30.1085 N.am      2 SEC2        0.0000 
     57 N         -41.4180  -24.3660  -28.9770 N.am     12 SEL2        0.0000 
     58 N         -42.9060  -25.5640  -31.2400 N.am      7 SEP2        0.0000 
     59 CA        -43.0730  -26.2245  -28.4030 C.3       5 GLC5        0.0000 
     60 CA        -41.4610  -25.4470  -28.1590 C.3      15 GLL5        0.0000 
     61 CA        -44.6850  -27.0020  -28.6470 C.3      10 GLP5        0.0000 
     62 CA        -40.5130  -24.9370  -29.9955 C.3       5 GLC5        0.0000 
     63 CA        -39.5650  -24.4270  -31.8320 C.3      10 GLP5        0.0000 
     64 N         -40.1055  -27.0585  -30.6305 N.am      2 SEC2        0.0000 
     65 N         -41.0590  -27.2900  -29.4710 N.am     12 SEL2        0.0000 
     66 N         -39.1520  -26.8270  -31.7900 N.am      7 SEP2        0.0000 
     67 O         -40.9550  -29.1120  -27.5245 O.2       1 ALC1        0.0000 
     68 O         -41.4020  -27.6860  -27.2900 O.2      11 ALL1        0.0000 
     69 O         -40.5080  -30.5380  -27.7590 O.2       6 ALP1        0.0000 
     70 CA        -43.3770  -24.8985  -27.1685 C.3       5 GLC5        0.0000 
     71 CA        -41.7300  -24.9800  -26.8790 C.3      15 GLL5        0.0000 
     72 CA        -45.5320  -20.0375  -26.3445 C.3       5 GLC5        0.0000 
     73 CA        -43.3890  -20.9030  -25.2780 C.3      15 GLL5        0.0000 
     74 CA        -47.3570  -19.5960  -26.8630 C.3      10 GLP5        0.0000 
     75 CA        -39.6158  -25.1352  -27.3805 C.3       5 GLC5        0.0000 
     76 CA        -37.6360  -25.0570  -27.2420 C.3      10 GLP5        0.0000 
@<TRIPOS>BOND
@<TRIPOS>SUBSTRUCTURE
     1 ALC1       67 GROUP        1 X    ALC  0     ROOT ALC X 1
     2 SEC2        4 GROUP        1 X    SEC  0     **** SEC X 2
     3 LYC4        7 GROUP        1 X    LYC  0     **** LYC X 4
     4 ZIC7        1 GROUP        1 X    ZIC  0     **** ZIC X 5
     5 GLC5       47 GROUP        1 X    GLC  0     **** GLC X 6
     6 ALP1       69 GROUP        1 Y    ALP  0     ROOT ALP Y 8
     7 SEP2        6 GROUP        1 Y    SEP  0     **** SEP Y 9
     8 LYP4        9 GROUP        1 Y    LYP  0     **** LYP Y 11
     9 ZIP7        3 GROUP        1 Y    ZIP  0     **** ZIP Y 12
    10 GLP5       49 GROUP        1 Y    GLP  0     **** GLP Y 13
    11 ALL1       68 GROUP        1 Z    ALL  0     ROOT ALL Z 15
    12 SEL2        5 GROUP        1 Z    SEL  0     **** SEL Z 16
    13 LYL4        8 GROUP        1 Z    LYL  0     **** LYL Z 18
    14 ZIL7        2 GROUP        1 Z    ZIL  0     **** ZIL Z 19
    15 GLL5       48 GROUP        1 Z    GLL  0     **** GLL Z 20
@<TRIPOS>SET

