#    Name: 3pcr_GTP_1_ligand
#    Modification time : Tue Mar 25 06:16:28 2014

@<TRIPOS>MOLECULE
3pcr_GTP_1_ligand
   44    46     1     0     0
SMALL
NO_CHARGES


@<TRIPOS>ATOM
      1 PG        -46.4250  -14.9240  -28.6560 P.3       1 GTP1230     0.0000 
      2 O1G       -47.4430  -14.4460  -27.6430 O.co2     1 GTP1230     0.0000 
      3 O2G       -45.0850  -14.3660  -28.2760 O.co2     1 GTP1230     0.0000 
      4 O3G       -46.8500  -14.3720  -29.9920 O.co2     1 GTP1230     0.0000 
      5 O3B       -46.3640  -16.5320  -28.7380 O.3       1 GTP1230     0.0000 
      6 PB        -45.2130  -17.3540  -29.4980 P.3       1 GTP1230     0.0000 
      7 O1B       -45.7070  -18.3900  -30.4790 O.co2     1 GTP1230     0.0000 
      8 O2B       -44.1780  -16.4400  -30.1260 O.co2     1 GTP1230     0.0000 
      9 O3A       -44.6130  -18.2810  -28.3450 O.3       1 GTP1230     0.0000 
     10 PA        -43.0320  -18.4800  -28.1880 P.3       1 GTP1230     0.0000 
     11 O1A       -42.2880  -18.7060  -29.4880 O.co2     1 GTP1230     0.0000 
     12 O2A       -42.6190  -17.2250  -27.4480 O.co2     1 GTP1230     0.0000 
     13 O5'       -43.0560  -19.8600  -27.3950 O.3       1 GTP1230     0.0000 
     14 C5'       -44.0250  -20.0550  -26.3740 C.3       1 GTP1230     0.0000 
     15 C4'       -43.3890  -20.9030  -25.2780 C.3       1 GTP1230     0.0000 
     16 O4'       -43.4080  -22.2400  -25.7500 O.3       1 GTP1230     0.0000 
     17 C3'       -41.9390  -20.4840  -25.1080 C.3       1 GTP1230     0.0000 
     18 O3'       -41.5950  -20.4530  -23.7430 O.3       1 GTP1230     0.0000 
     19 C2'       -41.1820  -21.5570  -25.8690 C.3       1 GTP1230     0.0000 
     20 O2'       -39.8930  -21.8190  -25.3580 O.3       1 GTP1230     0.0000 
     21 C1'       -42.1070  -22.7620  -25.7800 C.3       1 GTP1230     0.0000 
     22 N9        -41.8580  -23.6210  -26.9460 N.pl3     1 GTP1230     0.0000 
     23 C8        -41.6540  -23.2410  -28.2510 C.2       1 GTP1230     0.0000 
     24 N7        -41.4180  -24.3660  -28.9770 N.2       1 GTP1230     0.0000 
     25 C5        -41.4610  -25.4470  -28.1590 C.2       1 GTP1230     0.0000 
     26 C6        -41.2950  -26.8210  -28.3610 C.2       1 GTP1230     0.0000 
     27 O6        -41.0590  -27.2900  -29.4710 O.2       1 GTP1230     0.0000 
     28 N1        -41.4020  -27.6860  -27.2900 N.am      1 GTP1230     0.0000 
     29 C2        -41.6690  -27.1910  -26.0260 C.2       1 GTP1230     0.0000 
     30 N2        -41.7690  -28.0210  -24.9940 N.pl3     1 GTP1230     0.0000 
     31 N3        -41.8320  -25.8320  -25.8330 N.2       1 GTP1230     0.0000 
     32 C4        -41.7300  -24.9800  -26.8790 C.2       1 GTP1230     0.0000 
     33 H         -44.9047  -20.5850  -26.7394 H         1 GTP1230     0.0000 
     34 H         -44.3441  -19.1137  -25.9263 H         1 GTP1230     0.0000 
     35 H         -43.9134  -20.7749  -24.3834 H         1 GTP1230     0.0000 
     36 H         -41.8065  -19.5584  -25.6140 H         1 GTP1230     0.0000 
     37 H         -41.1720  -21.2537  -26.9140 H         1 GTP1230     0.0000 
     38 H         -41.8593  -23.2798  -24.8721 H         1 GTP1230     0.0000 
     39 H         -41.6759  -22.3455  -28.5799 H         1 GTP1230     0.0000 
     40 H         -41.2832  -28.7002  -27.4310 H         1 GTP1230     0.0000 
     41 H         -41.5806  -28.9845  -25.1844 H         1 GTP1230     0.0000 
     42 H         -42.0237  -27.6075  -24.1198 H         1 GTP1230     0.0000 
     43 H         -40.8754  -21.1401  -23.6419 H         1 GTP1230     0.0000 
     44 H         -39.2993  -21.1433  -25.7949 H         1 GTP1230     0.0000 
@<TRIPOS>BOND
     1    2    1 ar   
     2    3    1 ar   
     3    4    1 ar   
     4    5    1 1    
     5    6    5 1    
     6    7    6 ar   
     7    8    6 ar   
     8    9    6 1    
     9   10    9 1    
    10   11   10 ar   
    11   12   10 ar   
    12   13   10 1    
    13   14   13 1    
    14   15   14 1    
    15   33   14 1    
    16   34   14 1    
    17   16   15 1    
    18   17   15 1    
    19   35   15 1    
    20   21   16 1    
    21   18   17 1    
    22   19   17 1    
    23   36   17 1    
    24   43   18 1    
    25   20   19 1    
    26   21   19 1    
    27   37   19 1    
    28   44   20 1    
    29   22   21 1    
    30   38   21 1    
    31   23   22 1    
    32   32   22 1    
    33   24   23 2    
    34   39   23 1    
    35   25   24 1    
    36   26   25 1    
    37   32   25 2    
    38   27   26 2    
    39   28   26 am   
    40   29   28 1    
    41   40   28 1    
    42   30   29 1    
    43   31   29 2    
    44   41   30 1    
    45   42   30 1    
    46   32   31 1    
@<TRIPOS>SUBSTRUCTURE
     1 GTP1230     1 GROUP   
@<TRIPOS>SET

