#    Name: 4e9a_QAP_1_INTS_M
#    Modification time : Tue Mar 25 10:46:28 2014

@<TRIPOS>MOLECULE
4e9a_QAP_1_INTS_M
   56     0     6     0     0
SMALL
NO_CHARGES


@<TRIPOS>ATOM
      1 CA         78.0695   87.8300   57.0580 C.3       2 GLC5        0.0000 
      2 CA         77.9700   89.3110   56.1040 C.3       6 GLL5        0.0000 
      3 CA         78.1690   86.3490   58.0120 C.3       4 GLP5        0.0000 
      4 CA         76.7670   88.2750   57.2655 C.3       2 GLC5        0.0000 
      5 CA         76.6160   89.9480   56.0760 C.3       6 GLL5        0.0000 
      6 CA         76.9180   86.6020   58.4550 C.3       4 GLP5        0.0000 
      7 N          77.2415   85.6765   46.2715 N.am      1 SEC2        0.0000 
      8 N          77.4240   86.7310   47.1340 N.am      5 SEL2        0.0000 
      9 N          77.0590   84.6220   45.4090 N.am      3 SEP2        0.0000 
     10 CA         78.7755   91.8190   54.8400 C.3       2 GLC5        0.0000 
     11 CA         78.9530   89.8100   55.0980 C.3       6 GLL5        0.0000 
     12 CA         78.5980   93.8280   54.5820 C.3       4 GLP5        0.0000 
     13 CA         80.5200   90.7600   55.9195 C.3       2 GLC5        0.0000 
     14 CA         82.0870   91.7100   56.7410 C.3       4 GLP5        0.0000 
     15 CA         74.0140   88.2980   55.2055 C.3       2 GLC5        0.0000 
     16 CA         75.6610   89.5000   55.1790 C.3       6 GLL5        0.0000 
     17 CA         72.3670   87.0960   55.2320 C.3       4 GLP5        0.0000 
     18 CA         75.2550   88.2355   53.4435 C.3       2 GLC5        0.0000 
     19 CA         74.8490   86.9710   51.7080 C.3       4 GLP5        0.0000 
     20 N          80.6565   92.1970   53.0640 N.am      1 SEC2        0.0000 
     21 N          80.1520   90.8680   52.9570 N.am      5 SEL2        0.0000 
     22 N          81.1610   93.5260   53.1710 N.am      3 SEP2        0.0000 
     23 N          80.8905   91.6500   54.2600 N.am      1 SEC2        0.0000 
     24 N          81.6290   92.4320   55.5630 N.am      3 SEP2        0.0000 
     25 CA         73.1945   88.9970   54.5525 C.3       2 GLC5        0.0000 
     26 CA         74.4130   90.0930   55.1250 C.3       6 GLL5        0.0000 
     27 CA         71.9760   87.9010   53.9800 C.3       4 GLP5        0.0000 
     28 CA         72.9605   89.4025   56.2450 C.3       2 GLC5        0.0000 
     29 CA         74.1200   91.1340   55.9840 C.3       6 GLL5        0.0000 
     30 CA         71.8010   87.6710   56.5060 C.3       4 GLP5        0.0000 
     31 CA         78.3800   87.0615   50.5355 C.3       2 GLC5        0.0000 
     32 CA         78.3500   88.3120   48.6770 C.3       6 GLL5        0.0000 
     33 CA         78.4100   85.8110   52.3940 C.3       4 GLP5        0.0000 
     34 CA         78.8375   87.5495   51.9095 C.3       2 GLC5        0.0000 
     35 CA         79.2650   89.2880   51.4250 C.3       6 GLL5        0.0000 
     36 CA         76.4232   92.7943   55.8693 C.3       2 GLC5        0.0000 
     37 CA         76.3230   90.9980   56.9320 C.3       6 GLL5        0.0000 
     38 CA         77.1520   94.2930   54.8290 C.3       4 GLP5        0.0000 
     39 CA         76.1617   91.4253   58.7583 C.3       2 GLC5        0.0000 
     40 CA         75.0660   91.5930   56.8870 C.3       6 GLL5        0.0000 
     41 CA         76.6290   91.5550   60.6070 C.3       4 GLP5        0.0000 
     42 CA         74.0595   93.0252   56.8377 C.3       2 GLC5        0.0000 
     43 CA         73.5260   94.6870   57.2400 C.3       4 GLP5        0.0000 
     44 CA         73.4505   90.7952   57.9547 C.3       2 GLC5        0.0000 
     45 CA         72.3080   90.2270   59.4740 C.3       4 GLP5        0.0000 
     46 CA         80.7597   91.1525   51.0060 C.3       2 GLC5        0.0000 
     47 CA         82.2210   92.6650   51.1690 C.3       4 GLP5        0.0000 
     48 CA         81.0942   89.0375   50.8270 C.3       2 GLC5        0.0000 
     49 CA         79.3320   89.9920   50.2610 C.3       6 GLL5        0.0000 
     50 CA         82.8900   88.4350   50.8110 C.3       4 GLP5        0.0000 
     51 CA         78.8967   85.8858   46.7632 C.3       2 GLC5        0.0000 
     52 CA         78.3230   87.7220   47.4180 C.3       6 GLL5        0.0000 
     53 CA         79.0280   83.8550   46.6050 C.3       4 GLP5        0.0000 
     54 CA         81.4390   89.0097   48.4368 C.3       2 GLC5        0.0000 
     55 CA         80.1320   89.1100   46.6710 C.3       6 GLL5        0.0000 
     56 CA         82.9550   88.7080   49.3250 C.3       4 GLP5        0.0000 
@<TRIPOS>BOND
@<TRIPOS>SUBSTRUCTURE
     1 SEC2        7 GROUP        1 X    SEC  0     ROOT SEC X 2
     2 GLC5        1 GROUP        1 X    GLC  0     **** GLC X 6
     3 SEP2        9 GROUP        1 Y    SEP  0     ROOT SEP Y 9
     4 GLP5        3 GROUP        1 Y    GLP  0     **** GLP Y 13
     5 SEL2        8 GROUP        1 Z    SEL  0     ROOT SEL Z 16
     6 GLL5        2 GROUP        1 Z    GLL  0     **** GLL Z 20
@<TRIPOS>SET

