#    Name: 4e9a_QAP_1_ligand
#    Modification time : Tue Mar 25 10:46:28 2014

@<TRIPOS>MOLECULE
4e9a_QAP_1_ligand
   37    38     1     0     0
SMALL
NO_CHARGES


@<TRIPOS>ATOM
      1 C1         77.9700   89.3110   56.1040 C.3       1 QAP202      0.0000 
      2 O1         78.6750   89.4280   53.8080 O.3       1 QAP202      0.0000 
      3 C2         76.6160   89.9480   56.0760 C.ar      1 QAP202      0.0000 
      4 O2         77.4240   86.7310   47.1340 O.3       1 QAP202      0.0000 
      5 C3         78.9530   89.8100   55.0980 C.3       1 QAP202      0.0000 
      6 O3         79.1620   87.4960   45.1940 O.3       1 QAP202      0.0000 
      7 C4         75.6610   89.5000   55.1790 C.ar      1 QAP202      0.0000 
      8 O4         80.1520   90.8680   52.9570 O.2       1 QAP202      0.0000 
      9 C5         76.3230   90.9980   56.9320 C.ar      1 QAP202      0.0000 
     10 C6         79.2780   89.3150   48.9300 C.ar      1 QAP202      0.0000 
     11 C7         74.4130   90.0930   55.1250 C.ar      1 QAP202      0.0000 
     12 C8         75.0660   91.5930   56.8870 C.ar      1 QAP202      0.0000 
     13 C9         74.1200   91.1340   55.9840 C.ar      1 QAP202      0.0000 
     14 C10        78.3500   88.3120   48.6770 C.ar      1 QAP202      0.0000 
     15 C11        80.1500   89.7110   47.9220 C.ar      1 QAP202      0.0000 
     16 C12        79.3320   89.9920   50.2610 C.2       1 QAP202      0.0000 
     17 C13        78.3230   87.7220   47.4180 C.ar      1 QAP202      0.0000 
     18 C14        79.3360   89.9800   52.7440 C.2       1 QAP202      0.0000 
     19 C15        79.2080   88.1110   46.4250 C.ar      1 QAP202      0.0000 
     20 C16        80.1320   89.1100   46.6710 C.ar      1 QAP202      0.0000 
     21 C17        79.2650   89.2880   51.4250 C.2       1 QAP202      0.0000 
     22 H          77.8505   88.2052   55.9776 H         1 QAP202      0.0000 
     23 H          78.4046   89.4335   57.1283 H         1 QAP202      0.0000 
     24 H          79.9709   89.4643   55.4278 H         1 QAP202      0.0000 
     25 H          78.9983   90.9285   55.2038 H         1 QAP202      0.0000 
     26 H          75.8841   88.7143   54.5437 H         1 QAP202      0.0000 
     27 H          77.0281   91.3368   57.5967 H         1 QAP202      0.0000 
     28 H          73.7113   89.7620   54.4524 H         1 QAP202      0.0000 
     29 H          74.8424   92.3691   57.5214 H         1 QAP202      0.0000 
     30 H          73.1849   91.5774   55.9548 H         1 QAP202      0.0000 
     31 H          77.6981   88.0127   49.4037 H         1 QAP202      0.0000 
     32 H          80.8298   90.4738   48.1104 H         1 QAP202      0.0000 
     33 H          79.4225   91.0174   50.2379 H         1 QAP202      0.0000 
     34 H          80.7905   89.4021   45.9465 H         1 QAP202      0.0000 
     35 H          79.1646   88.2689   51.4543 H         1 QAP202      0.0000 
     36 H          77.1391   86.3771   48.0248 H         1 QAP202      0.0000 
     37 H          78.2049   87.5558   44.9106 H         1 QAP202      0.0000 
@<TRIPOS>BOND
     1    3    1 1    
     2    5    1 1    
     3   22    1 1    
     4   23    1 1    
     5    5    2 1    
     6   18    2 1    
     7    7    3 ar   
     8    9    3 ar   
     9   17    4 1    
    10   36    4 1    
    11   24    5 1    
    12   25    5 1    
    13   19    6 1    
    14   37    6 1    
    15   11    7 ar   
    16   26    7 1    
    17   18    8 2    
    18   12    9 ar   
    19   27    9 1    
    20   14   10 ar   
    21   15   10 ar   
    22   16   10 1    
    23   13   11 ar   
    24   28   11 1    
    25   13   12 ar   
    26   29   12 1    
    27   30   13 1    
    28   17   14 ar   
    29   31   14 1    
    30   20   15 ar   
    31   32   15 1    
    32   21   16 2    
    33   33   16 1    
    34   19   17 ar   
    35   21   18 1    
    36   20   19 ar   
    37   34   20 1    
    38   35   21 1    
@<TRIPOS>SUBSTRUCTURE
     1 QAP202      1 GROUP   
@<TRIPOS>SET

