#    Name: 1bnn_AL1_1_INTS_M
#    Modification time : Mon Mar 24 19:39:45 2014

@<TRIPOS>MOLECULE
1bnn_AL1_1_INTS_M
   36     0    12     0     0
SMALL
NO_CHARGES


@<TRIPOS>ATOM
      1 CA         -2.2930    4.6215   16.1165 C.3       4 GLC5        0.0000 
      2 CA         -2.3760    3.7780   14.0760 C.3      12 GLL5        0.0000 
      3 CA         -2.2100    5.4650   18.1570 C.3       8 GLP5        0.0000 
      4 CA         -1.3930    1.8185   14.5060 C.3       4 GLC5        0.0000 
      5 CA         -0.4100   -0.1410   14.9360 C.3       8 GLP5        0.0000 
      6 CA         -0.6230    4.8345   14.9405 C.3       4 GLC5        0.0000 
      7 CA          1.1300    5.8910   15.8050 C.3       8 GLP5        0.0000 
      8 CA         -0.2820    7.8990   15.7635 C.3       4 GLC5        0.0000 
      9 CA         -1.8870    8.8140   14.7220 C.3      12 GLL5        0.0000 
     10 CA          1.3230    6.9840   16.8050 C.3       8 GLP5        0.0000 
     11 CA         -2.3285    6.5085   16.4575 C.3       4 GLC5        0.0000 
     12 CA         -2.4470    7.5520   14.7580 C.3      12 GLL5        0.0000 
     13 CA         -0.6585    6.7215   15.2815 C.3       4 GLC5        0.0000 
     14 CA         -1.7960   11.5315   16.7670 C.3       4 GLC5        0.0000 
     15 CA         -0.7180   10.5010   15.8270 C.3      12 GLL5        0.0000 
     16 CA         -2.8740   12.5620   17.7070 C.3       8 GLP5        0.0000 
     17 CA          0.3025    8.7425   16.3160 C.3       4 GLC5        0.0000 
     18 CA         -0.4900    9.8940   17.5325 C.3       4 GLC5        0.0000 
     19 CA         -0.2620    9.2870   19.2380 C.3       8 GLP5        0.0000 
     20 O          -4.7075   -1.3820   17.0805 O.2       1 ALC1        0.0000 
     21 O          -5.5050   -0.6380   16.3660 O.2       9 ALL1        0.0000 
     22 O          -3.9100   -2.1260   17.7950 O.2       5 ALP1        0.0000 
     23 Zn         -6.1500   -1.1360   15.8860 Zn        3 ZIC7        0.0000 
     24 Zn         -5.5050   -0.6380   16.3660 Zn       11 ZIL7        0.0000 
     25 Zn         -6.7950   -1.6340   15.4060 Zn        7 ZIP7        0.0000 
     26 N          -4.0550    0.4475   18.6820 N.am      2 SEC2        0.0000 
     27 N          -5.2790    0.8820   18.1040 N.am     10 SEL2        0.0000 
     28 N          -2.8310    0.0130   19.2600 N.am      6 SEP2        0.0000 
     29 CA         -8.0225    3.4000   15.3555 C.3       4 GLC5        0.0000 
     30 CA         -6.1660    3.3910   15.5220 C.3      12 GLL5        0.0000 
     31 CA         -9.8790    3.4090   15.1890 C.3       8 GLP5        0.0000 
     32 CA         -2.1535    0.9705   15.1835 C.3       4 GLC5        0.0000 
     33 CA         -3.8970    2.0820   15.4310 C.3      12 GLL5        0.0000 
     34 CA         -4.5053    3.7749   16.8636 C.3       4 GLC5        0.0000 
     35 CA         -5.1960    2.0290   15.9090 C.3      12 GLL5        0.0000 
     36 CA         -4.4990    4.5340   18.5830 C.3       8 GLP5        0.0000 
@<TRIPOS>BOND
@<TRIPOS>SUBSTRUCTURE
     1 ALC1       20 GROUP        1 X    ALC  0     ROOT ALC X 1
     2 SEC2       26 GROUP        1 X    SEC  0     **** SEC X 2
     3 ZIC7       23 GROUP        1 X    ZIC  0     **** ZIC X 5
     4 GLC5        1 GROUP        1 X    GLC  0     **** GLC X 6
     5 ALP1       22 GROUP        1 Y    ALP  0     ROOT ALP Y 8
     6 SEP2       28 GROUP        1 Y    SEP  0     **** SEP Y 9
     7 ZIP7       25 GROUP        1 Y    ZIP  0     **** ZIP Y 12
     8 GLP5        3 GROUP        1 Y    GLP  0     **** GLP Y 13
     9 ALL1       21 GROUP        1 Z    ALL  0     ROOT ALL Z 15
    10 SEL2       27 GROUP        1 Z    SEL  0     **** SEL Z 16
    11 ZIL7       24 GROUP        1 Z    ZIL  0     **** ZIL Z 19
    12 GLL5        2 GROUP        1 Z    GLL  0     **** GLL Z 20
@<TRIPOS>SET

