#    Name: 1bnn_AL1_1_ligand
#    Modification time : Mon Mar 24 19:39:45 2014

@<TRIPOS>MOLECULE
1bnn_AL1_1_ligand
   36    38     1     0     0
SMALL
NO_CHARGES


@<TRIPOS>ATOM
      1 C3         -5.1960    2.0290   15.9090 C.2       1 AL1555      0.0000 
      2 C9         -2.6490    4.8220   13.0050 C.3       1 AL1555      0.0000 
      3 C10        -2.3760    3.7780   14.0760 C.3       1 AL1555      0.0000 
      4 C19        -2.4870    9.1280   12.4120 C.ar      1 AL1555      0.0000 
      5 C20        -1.8940    9.6180   13.5640 C.ar      1 AL1555      0.0000 
      6 C21        -1.8870    8.8140   14.7220 C.ar      1 AL1555      0.0000 
      7 C22        -2.4470    7.5520   14.7580 C.ar      1 AL1555      0.0000 
      8 C24        -0.7180   10.5010   15.8270 C.3       1 AL1555      0.0000 
      9 N21        -5.5050   -0.6380   16.3660 N.pl3     1 AL1555      0.0000 
     10 S1         -5.8570    0.7240   16.8220 S.o2      1 AL1555      0.0000 
     11 O1A        -5.2790    0.8820   18.1040 O.2       1 AL1555      0.0000 
     12 O2A        -7.2380    0.9340   16.6990 O.2       1 AL1555      0.0000 
     13 S2         -6.1660    3.3910   15.5220 S.3       1 AL1555      0.0000 
     14 C6         -4.8230    4.0290   14.7000 C.2       1 AL1555      0.0000 
     15 C5         -3.6450    3.2420   14.7300 C.2       1 AL1555      0.0000 
     16 C4         -3.8970    2.0820   15.4310 C.2       1 AL1555      0.0000 
     17 N8         -3.4920    5.8510   13.5870 N.pl3     1 AL1555      0.0000 
     18 S7         -4.9490    5.5190   13.8560 S.o2      1 AL1555      0.0000 
     19 O3B        -5.7560    5.1940   12.6450 O.2       1 AL1555      0.0000 
     20 O4B        -5.7520    6.5720   14.5300 O.2       1 AL1555      0.0000 
     21 C17        -3.0190    7.1020   13.5910 C.ar      1 AL1555      0.0000 
     22 C18        -3.0580    7.8580   12.4180 C.ar      1 AL1555      0.0000 
     23 O23        -1.3400    9.1940   15.8370 O.3       1 AL1555      0.0000 
     24 H          -3.1418    4.3359   12.1674 H         1 AL1555      0.0000 
     25 H          -1.6990    5.2319   12.6730 H         1 AL1555      0.0000 
     26 H          -1.7322    4.2175   14.8523 H         1 AL1555      0.0000 
     27 H          -1.8226    2.9389   13.6289 H         1 AL1555      0.0000 
     28 H          -2.5071    9.6954   11.5570 H         1 AL1555      0.0000 
     29 H          -1.4671   10.5424   13.5855 H         1 AL1555      0.0000 
     30 H          -2.4357    6.9926   15.5965 H         1 AL1555      0.0000 
     31 H          -4.6846   -1.0399   16.7727 H         1 AL1555      0.0000 
     32 H          -3.2363    1.3750   15.5762 H         1 AL1555      0.0000 
     33 H          -3.4993    7.4835   11.5774 H         1 AL1555      0.0000 
     34 H          -0.3187   10.7291   16.7150 H         1 AL1555      0.0000 
     35 H           0.0175   10.5571   15.1518 H         1 AL1555      0.0000 
     36 H          -1.3740   11.2228   15.6065 H         1 AL1555      0.0000 
@<TRIPOS>BOND
     1   10    1 1    
     2   13    1 1    
     3   16    1 2    
     4    3    2 1    
     5   17    2 1    
     6   24    2 1    
     7   25    2 1    
     8   15    3 1    
     9   26    3 1    
    10   27    3 1    
    11    5    4 ar   
    12   22    4 ar   
    13   28    4 1    
    14    6    5 ar   
    15   29    5 1    
    16    7    6 ar   
    17   23    6 1    
    18   21    7 ar   
    19   30    7 1    
    20   23    8 1    
    21   34    8 1    
    22   35    8 1    
    23   36    8 1    
    24   10    9 1    
    25   31    9 1    
    26   11   10 2    
    27   12   10 2    
    28   14   13 1    
    29   15   14 2    
    30   18   14 1    
    31   16   15 1    
    32   32   16 1    
    33   18   17 1    
    34   21   17 1    
    35   19   18 2    
    36   20   18 2    
    37   22   21 ar   
    38   33   22 1    
@<TRIPOS>SUBSTRUCTURE
     1 AL1555      1 GROUP   
@<TRIPOS>SET

