#    Name: 4a9e_3PF_3_INTS_M
#    Modification time : Tue Mar 25 05:18:19 2014

@<TRIPOS>MOLECULE
4a9e_3PF_3_INTS_M
   19     0     6     0     0
SMALL
NO_CHARGES


@<TRIPOS>ATOM
      1 CA          0.3495   11.6625   23.3285 C.3       2 GLC5        0.0000 
      2 CA         -0.6270   10.0970   22.3580 C.3       6 GLL5        0.0000 
      3 CA          1.3260   13.2280   24.2990 C.3       4 GLP5        0.0000 
      4 CA         -2.0960    9.7885   21.3990 C.3       2 GLC5        0.0000 
      5 CA         -3.5650    9.4800   20.4400 C.3       4 GLP5        0.0000 
      6 CA          0.9225    9.6600   22.9610 C.3       2 GLC5        0.0000 
      7 CA          2.4720    9.2230   23.5640 C.3       4 GLP5        0.0000 
      8 N          -0.9865    7.7385   25.4015 N.am      1 SEC2        0.0000 
      9 N          -1.4440    8.3080   24.2370 N.am      5 SEL2        0.0000 
     10 N          -0.5290    7.1690   26.5660 N.am      3 SEP2        0.0000 
     11 CA         -1.6100    8.8535   20.7680 C.3       2 GLC5        0.0000 
     12 CA          0.3450    8.2270   21.0960 C.3       6 GLL5        0.0000 
     13 CA         -0.7965    4.6230   21.6273 C.3       2 GLC5        0.0000 
     14 CA          0.5860    6.1240   22.3880 C.3       6 GLL5        0.0000 
     15 CA         -2.4740    3.7330   20.7480 C.3       4 GLP5        0.0000 
     16 CA          0.0505    6.7809   19.3178 C.3       2 GLC5        0.0000 
     17 CA          1.0090    6.9140   21.3160 C.3       6 GLL5        0.0000 
     18 CA         -0.8290    6.1080   17.6320 C.3       4 GLP5        0.0000 
     19 CA          1.6150    8.0059   22.6299 C.3       2 GLC5        0.0000 
@<TRIPOS>BOND
@<TRIPOS>SUBSTRUCTURE
     1 SEC2        8 GROUP        1 X    SEC  0     ROOT SEC X 2
     2 GLC5        1 GROUP        1 X    GLC  0     **** GLC X 6
     3 SEP2       10 GROUP        1 Y    SEP  0     ROOT SEP Y 9
     4 GLP5        3 GROUP        1 Y    GLP  0     **** GLP Y 13
     5 SEL2        9 GROUP        1 Z    SEL  0     ROOT SEL Z 16
     6 GLL5        2 GROUP        1 Z    GLL  0     **** GLL Z 20
@<TRIPOS>SET

