#    Name: 4a9e_3PF_3_ligand
#    Modification time : Tue Mar 25 05:18:19 2014

@<TRIPOS>MOLECULE
4a9e_3PF_3_ligand
   22    23     1     0     0
SMALL
NO_CHARGES


@<TRIPOS>ATOM
      1 CAA        -0.6270   10.0970   22.3580 C.3       1 3PF1000     0.0000 
      2 OAB        -1.4440    8.3080   24.2370 O.2       1 3PF1000     0.0000 
      3 CAC         2.6070    5.2240   20.7490 C.ar      1 3PF1000     0.0000 
      4 CAD         2.1880    4.4500   21.8070 C.ar      1 3PF1000     0.0000 
      5 CAE         2.0210    6.4470   20.5060 C.ar      1 3PF1000     0.0000 
      6 CAF         1.1760    4.9020   22.6250 C.ar      1 3PF1000     0.0000 
      7 CAG         0.3450    8.2270   21.0960 C.3       1 3PF1000     0.0000 
      8 NAH        -0.4280    6.5900   23.2050 N.am      1 3PF1000     0.0000 
      9 CAI        -0.7910    7.8990   23.2880 C.2       1 3PF1000     0.0000 
     10 CAJ         1.0090    6.9140   21.3160 C.ar      1 3PF1000     0.0000 
     11 CAK         0.5860    6.1240   22.3880 C.ar      1 3PF1000     0.0000 
     12 NAL        -0.3740    8.6800   22.2750 N.am      1 3PF1000     0.0000 
     13 H           3.3665    4.8861   20.1320 H         1 3PF1000     0.0000 
     14 H           2.6292    3.5359   21.9871 H         1 3PF1000     0.0000 
     15 H           2.3447    7.0216   19.7058 H         1 3PF1000     0.0000 
     16 H           0.8580    4.3218   23.4200 H         1 3PF1000     0.0000 
     17 H          -0.3464    8.1389   20.2361 H         1 3PF1000     0.0000 
     18 H           1.1109    8.9712   20.8050 H         1 3PF1000     0.0000 
     19 H          -0.9470    5.8793   23.7972 H         1 3PF1000     0.0000 
     20 H           0.2215   10.6262   22.3618 H         1 3PF1000     0.0000 
     21 H          -1.1721   10.4228   21.5855 H         1 3PF1000     0.0000 
     22 H          -1.1259   10.3370   23.1908 H         1 3PF1000     0.0000 
@<TRIPOS>BOND
     1   12    1 1    
     2   20    1 1    
     3   21    1 1    
     4   22    1 1    
     5    9    2 2    
     6    4    3 ar   
     7    5    3 ar   
     8   13    3 1    
     9    6    4 ar   
    10   14    4 1    
    11   10    5 ar   
    12   15    5 1    
    13   11    6 ar   
    14   16    6 1    
    15   10    7 1    
    16   12    7 1    
    17   17    7 1    
    18   18    7 1    
    19    9    8 am   
    20   11    8 1    
    21   19    8 1    
    22   12    9 am   
    23   11   10 ar   
@<TRIPOS>SUBSTRUCTURE
     1 3PF1000     1 GROUP   
@<TRIPOS>SET

