#    Name: 1q0b_NAT_1_INTS_M
#    Modification time : Mon Mar 24 22:34:18 2014

@<TRIPOS>MOLECULE
1q0b_NAT_1_INTS_M
   56     0     6     0     0
SMALL
NO_CHARGES


@<TRIPOS>ATOM
      1 CA         20.8765   14.8610  111.9170 C.3       2 GLC5        0.0000 
      2 CA         18.9440   14.0740  112.2220 C.3       6 GLL5        0.0000 
      3 CA         22.8090   15.6480  111.6120 C.3       4 GLP5        0.0000 
      4 CA         19.5640   12.1670  111.8405 C.3       2 GLC5        0.0000 
      5 CA         17.9470   13.4400  111.3640 C.3       6 GLL5        0.0000 
      6 CA         21.1810   10.8940  112.3170 C.3       4 GLP5        0.0000 
      7 CA         15.4185   11.9635  110.8640 C.3       2 GLC5        0.0000 
      8 CA         16.9050   12.6140  111.9150 C.3       6 GLL5        0.0000 
      9 CA         13.9320   11.3130  109.8130 C.3       4 GLP5        0.0000 
     10 CA         17.2020   10.7670  112.6490 C.3       2 GLC5        0.0000 
     11 CA         17.4990    8.9200  113.3830 C.3       4 GLP5        0.0000 
     12 CA         15.8185   11.7200  115.1940 C.3       2 GLC5        0.0000 
     13 CA         16.8720   12.4480  113.3610 C.3       6 GLL5        0.0000 
     14 CA         14.7650   10.9920  117.0270 C.3       4 GLP5        0.0000 
     15 CA         18.7310   12.3810  108.1540 C.3       2 GLC5        0.0000 
     16 CA         18.0230   13.6040  109.8900 C.3       6 GLL5        0.0000 
     17 CA         19.4390   11.1580  106.4180 C.3       4 GLP5        0.0000 
     18 O          19.1630   11.7970  109.4420 O.2       1 ALC1        0.0000 
     19 O          19.3220   13.1940  109.3440 O.2       5 ALL1        0.0000 
     20 O          19.0040   10.4000  109.5400 O.2       3 ALP1        0.0000 
     21 CA         19.8265   12.6010  107.6020 C.3       2 GLC5        0.0000 
     22 CA         20.2140   14.0440  108.7860 C.3       6 GLL5        0.0000 
     23 CA         21.5115   14.8460  110.1990 C.3       2 GLC5        0.0000 
     24 O          14.9610   11.2965  113.0435 O.2       1 ALC1        0.0000 
     25 O          15.9420   11.6470  113.9240 O.2       5 ALL1        0.0000 
     26 O          13.9800   10.9460  112.1630 O.2       3 ALP1        0.0000 
     27 CA         13.8670   16.2895  111.1985 C.3       2 GLC5        0.0000 
     28 CA         14.5240   17.3280  109.7240 C.3       6 GLL5        0.0000 
     29 CA         13.2100   15.2510  112.6730 C.3       4 GLP5        0.0000 
     30 CA         19.0160   19.2670  108.9940 C.3       2 GLC5        0.0000 
     31 CA         18.3510   17.2970  108.6310 C.3       6 GLL5        0.0000 
     32 CA         19.6810   21.2370  109.3570 C.3       4 GLP5        0.0000 
     33 CA         18.1865   18.4290  107.2125 C.3       2 GLC5        0.0000 
     34 CA         18.0220   19.5610  105.7940 C.3       4 GLP5        0.0000 
     35 CA         21.0640   12.5485  106.7910 C.3       2 GLC5        0.0000 
     36 CA         21.6940   13.5190  108.2240 C.3       6 GLL5        0.0000 
     37 CA         20.4340   11.5780  105.3580 C.3       4 GLP5        0.0000 
     38 CA         23.0540   12.3285  108.5505 C.3       2 GLC5        0.0000 
     39 CA         24.4140   11.1380  108.8770 C.3       4 GLP5        0.0000 
     40 CA         22.9990   14.9310  108.9735 C.3       2 GLC5        0.0000 
     41 CA         24.3040   16.3430  109.7230 C.3       4 GLP5        0.0000 
     42 CA         15.9280   13.8835  112.5348 C.3       2 GLC5        0.0000 
     43 CA         14.4300   14.7400  113.4300 C.3       4 GLP5        0.0000 
     44 CA         15.8930   13.7588  113.6072 C.3       2 GLC5        0.0000 
     45 CA         17.8325   11.0992  114.1827 C.3       2 GLC5        0.0000 
     46 CA         18.3090    9.4210  114.5810 C.3       4 GLP5        0.0000 
     47 CA         18.2260   14.5395  115.4952 C.3       2 GLC5        0.0000 
     48 CA         17.8400   13.1070  114.2080 C.3       6 GLL5        0.0000 
     49 CA         18.0760   15.5650  117.0540 C.3       4 GLP5        0.0000 
     50 CA         20.0870   12.7511  113.3854 C.3       2 GLC5        0.0000 
     51 CA         21.7900   11.9500  113.1950 C.3       4 GLP5        0.0000 
     52 CA         21.5390   12.3187  109.8225 C.3       2 GLC5        0.0000 
     53 CA         22.1240   10.8560  111.1400 C.3       4 GLP5        0.0000 
     54 CA         20.3762   17.1445  109.5640 C.3       2 GLC5        0.0000 
     55 CA         18.5380   15.8290  108.9490 C.3       6 GLL5        0.0000 
     56 CA         22.3080   17.7260  110.3380 C.3       4 GLP5        0.0000 
@<TRIPOS>BOND
@<TRIPOS>SUBSTRUCTURE
     1 ALC1       18 GROUP        1 X    ALC  0     ROOT ALC X 1
     2 GLC5        1 GROUP        1 X    GLC  0     **** GLC X 6
     3 ALP1       20 GROUP        1 Y    ALP  0     ROOT ALP Y 8
     4 GLP5        3 GROUP        1 Y    GLP  0     **** GLP Y 13
     5 ALL1       19 GROUP        1 Z    ALL  0     ROOT ALL Z 15
     6 GLL5        2 GROUP        1 Z    GLL  0     **** GLL Z 20
@<TRIPOS>SET

