#    Name: 1q0b_NAT_1_ligand
#    Modification time : Mon Mar 24 22:34:18 2014

@<TRIPOS>MOLECULE
1q0b_NAT_1_ligand
   36    37     1     0     0
SMALL
NO_CHARGES


@<TRIPOS>ATOM
      1 C1         18.9440   14.0740  112.2220 C.ar      1 NAT604      0.0000 
      2 C2         17.9470   13.4400  111.3640 C.ar      1 NAT604      0.0000 
      3 C3         16.9050   12.6140  111.9150 C.ar      1 NAT604      0.0000 
      4 C4         16.8720   12.4480  113.3610 C.ar      1 NAT604      0.0000 
      5 C5         17.8400   13.1070  114.2080 C.ar      1 NAT604      0.0000 
      6 C6         18.9120   13.9210  113.6650 C.ar      1 NAT604      0.0000 
      7 C7         18.0230   13.6040  109.8900 C.3       1 NAT604      0.0000 
      8 N8         19.3220   13.1940  109.3440 N.am      1 NAT604      0.0000 
      9 C9         20.2140   14.0440  108.7860 C.2       1 NAT604      0.0000 
     10 N10        19.8820   15.3390  108.6480 N.am      1 NAT604      0.0000 
     11 C11        18.5380   15.8290  108.9490 C.2       1 NAT604      0.0000 
     12 C12        17.6030   14.9940  109.4580 C.2       1 NAT604      0.0000 
     13 O13        15.9420   11.6470  113.9240 O.3       1 NAT604      0.0000 
     14 C14        16.1700   15.3890  109.6840 C.2       1 NAT604      0.0000 
     15 O15        15.8650   16.7060  109.6070 O.3       1 NAT604      0.0000 
     16 C16        14.5240   17.3280  109.7240 C.3       1 NAT604      0.0000 
     17 C17        14.6040   18.8410  109.4300 C.3       1 NAT604      0.0000 
     18 C18        18.3510   17.2970  108.6310 C.3       1 NAT604      0.0000 
     19 O19        15.3490   14.5470  109.9340 O.2       1 NAT604      0.0000 
     20 S20        21.6940   13.5190  108.2240 S.2       1 NAT604      0.0000 
     21 H          19.6774   14.6359  111.7944 H         1 NAT604      0.0000 
     22 H          16.2313   12.1713  111.3380 H         1 NAT604      0.0000 
     23 H          17.7695   12.9978  115.2240 H         1 NAT604      0.0000 
     24 H          19.5821   14.3469  114.2449 H         1 NAT604      0.0000 
     25 H          17.2436   12.9033  109.4545 H         1 NAT604      0.0000 
     26 H          19.5297   12.1641  109.4127 H         1 NAT604      0.0000 
     27 H          20.5642   16.0516  108.3213 H         1 NAT604      0.0000 
     28 H          14.1263   17.1972  110.7311 H         1 NAT604      0.0000 
     29 H          13.8289   16.8791  109.0134 H         1 NAT604      0.0000 
     30 H          15.2135   19.3116  110.0680 H         1 NAT604      0.0000 
     31 H          14.9475   19.0226  108.5086 H         1 NAT604      0.0000 
     32 H          13.7088   19.2810  109.5012 H         1 NAT604      0.0000 
     33 H          18.9788   17.8733  109.1543 H         1 NAT604      0.0000 
     34 H          18.5127   17.4909  107.6634 H         1 NAT604      0.0000 
     35 H          17.4239   17.6074  108.8412 H         1 NAT604      0.0000 
     36 H          15.5841   11.0964  113.1699 H         1 NAT604      0.0000 
@<TRIPOS>BOND
     1    2    1 ar   
     2    6    1 ar   
     3   21    1 1    
     4    3    2 ar   
     5    7    2 1    
     6    4    3 ar   
     7   22    3 1    
     8    5    4 ar   
     9   13    4 1    
    10    6    5 ar   
    11   23    5 1    
    12   24    6 1    
    13    8    7 1    
    14   12    7 1    
    15   25    7 1    
    16    9    8 am   
    17   26    8 1    
    18   10    9 am   
    19   20    9 2    
    20   11   10 1    
    21   27   10 1    
    22   12   11 2    
    23   18   11 1    
    24   14   12 1    
    25   36   13 1    
    26   15   14 1    
    27   19   14 2    
    28   16   15 1    
    29   17   16 1    
    30   28   16 1    
    31   29   16 1    
    32   30   17 1    
    33   31   17 1    
    34   32   17 1    
    35   33   18 1    
    36   34   18 1    
    37   35   18 1    
@<TRIPOS>SUBSTRUCTURE
     1 NAT604      1 GROUP   
@<TRIPOS>SET

