#    Name: 2jdv_L20_1_INTS_M
#    Modification time : Tue Mar 25 20:36:47 2014

@<TRIPOS>MOLECULE
2jdv_L20_1_INTS_M
   96     0    12     0     0
SMALL
NO_CHARGES


@<TRIPOS>ATOM
      1 CA          4.4550   11.4435    6.3290 C.3       4 GLC5        0.0000 
      2 CA          4.6300    9.6460    5.4830 C.3      12 GLL5        0.0000 
      3 CA          4.2800   13.2410    7.1750 C.3       8 GLP5        0.0000 
      4 CA          2.7435   10.7325    6.0210 C.3       4 GLC5        0.0000 
      5 CA          0.8570   11.8190    6.5590 C.3       8 GLP5        0.0000 
      6 CA          5.6830    8.0045    5.6545 C.3       4 GLC5        0.0000 
      7 CA          6.7360    6.3630    5.8260 C.3       8 GLP5        0.0000 
      8 CA          4.5675    9.3550    7.2140 C.3       4 GLC5        0.0000 
      9 CA          4.5050    9.0640    8.9450 C.3       8 GLP5        0.0000 
     10 N           1.3745    9.2205    4.5370 N.am      2 SEC2        0.0000 
     11 N           2.6600    9.5430    3.9270 N.am     10 SEL2        0.0000 
     12 N           0.0890    8.8980    5.1470 N.am      6 SEP2        0.0000 
     13 O           1.2230    9.7425    2.0325 O.2       1 ALC1        0.0000 
     14 O           2.4940    9.5320    2.5900 O.2       9 ALL1        0.0000 
     15 O          -0.0480    9.9530    1.4750 O.2       5 ALP1        0.0000 
     16 CA          2.3560    8.6900   -0.7085 C.3       4 GLC5        0.0000 
     17 CA          3.9820    9.6390    0.5150 C.3      12 GLL5        0.0000 
     18 CA          0.7300    7.7410   -1.9320 C.3       8 GLP5        0.0000 
     19 CA          7.0905    8.3700    3.7120 C.3       4 GLC5        0.0000 
     20 CA          6.0380    9.7610    2.5410 C.3      12 GLL5        0.0000 
     21 CA          8.1430    6.9790    4.8830 C.3       8 GLP5        0.0000 
     22 CA          5.1510    7.8280    3.6850 C.3       4 GLC5        0.0000 
     23 CA          4.6930    9.6820    2.9080 C.3      12 GLL5        0.0000 
     24 CA          5.6090    5.9740    4.4620 C.3       8 GLP5        0.0000 
     25 CA          9.0075   12.1100   -1.2905 C.3       4 GLC5        0.0000 
     26 CA          8.1180   10.6090   -0.4380 C.3      12 GLL5        0.0000 
     27 CA          9.8970   13.6110   -2.1430 C.3       8 GLP5        0.0000 
     28 CA          6.3305   11.5915   -1.3580 C.3       4 GLC5        0.0000 
     29 CA          4.5430   12.5740   -2.2780 C.3       8 GLP5        0.0000 
     30 CA          8.9940    8.9825   -1.4605 C.3       4 GLC5        0.0000 
     31 CA          9.8700    7.3560   -2.4830 C.3       8 GLP5        0.0000 
     32 N           9.9640   11.1615   -2.0385 N.am      2 SEC2        0.0000 
     33 N           9.3890   10.7540   -0.8510 N.am     10 SEL2        0.0000 
     34 N          10.5390   11.5690   -3.2260 N.am      6 SEP2        0.0000 
     35 CA         10.1295   11.8930   -1.1555 C.3       4 GLC5        0.0000 
     36 CA         10.3620   10.1750   -0.1680 C.3      12 GLL5        0.0000 
     37 CA         10.6230    5.4925    2.3575 C.3       4 GLC5        0.0000 
     38 CA         11.0350    7.5980    2.3610 C.3      12 GLL5        0.0000 
     39 CA         10.2110    3.3870    2.3540 C.3       8 GLP5        0.0000 
     40 CA          9.5890    7.2885    3.6220 C.3       4 GLC5        0.0000 
     41 CA         11.0385    7.3855    0.4125 C.3       4 GLC5        0.0000 
     42 CA         11.0420    7.1730   -1.5360 C.3       8 GLP5        0.0000 
     43 OD1        13.2525    7.7230    0.3210 O.co2     3 ASC3        0.0000 
     44 OD1        13.3660    7.2540    1.7530 O.co2    11 ASL3        0.0000 
     45 OD1        13.1390    8.1920   -1.1110 O.co2     7 ASP3        0.0000 
     46 O          12.8550    6.0445    1.5560 O.2       1 ALC1        0.0000 
     47 O          13.3660    7.2540    1.7530 O.2       9 ALL1        0.0000 
     48 O          12.3440    4.8350    1.3590 O.2       5 ALP1        0.0000 
     49 O          13.2525    7.7230    0.3210 O.2       1 ALC1        0.0000 
     50 O          13.1390    8.1920   -1.1110 O.2       5 ALP1        0.0000 
     51 CA         13.4170   10.0815    2.4655 C.3       4 GLC5        0.0000 
     52 CA         12.9710    8.5600    3.8470 C.3      12 GLL5        0.0000 
     53 CA         13.8630   11.6030    1.0840 C.3       8 GLP5        0.0000 
     54 CA         13.6860    7.5360    7.6515 C.3       4 GLC5        0.0000 
     55 CA         12.4130    7.9870    6.2650 C.3      12 GLL5        0.0000 
     56 CA         14.9590    7.0850    9.0380 C.3       8 GLP5        0.0000 
     57 O          11.3595    7.2780    8.3660 O.2       1 ALC1        0.0000 
     58 O          11.4120    8.2470    7.1860 O.2       9 ALL1        0.0000 
     59 O          11.3070    6.3090    9.5460 O.2       5 ALP1        0.0000 
     60 CA          7.5875   11.9460    7.1665 C.3       4 GLC5        0.0000 
     61 CA          8.5450   10.4530    6.3380 C.3      12 GLL5        0.0000 
     62 CA          6.6300   13.4390    7.9950 C.3       8 GLP5        0.0000 
     63 CA          8.4685   12.3110    4.1760 C.3       4 GLC5        0.0000 
     64 CA          8.9440   10.7100    5.0060 C.3      12 GLL5        0.0000 
     65 CA          7.9930   13.9120    3.3460 C.3       8 GLP5        0.0000 
     66 CA          9.4315   11.7105    3.3270 C.3       4 GLC5        0.0000 
     67 CA         10.1130   10.2060    4.4590 C.3      12 GLL5        0.0000 
     68 CA          8.7500   13.2150    2.1950 C.3       8 GLP5        0.0000 
     69 CA          8.4705    8.1330    3.1675 C.3       4 GLC5        0.0000 
     70 CA          8.7980    9.2870    1.4520 C.3      12 GLL5        0.0000 
     71 CA          4.2615   10.4147   -1.3487 C.3       4 GLC5        0.0000 
     72 CA          3.8670   11.1510   -3.0550 C.3       8 GLP5        0.0000 
     73 CA          4.9325    7.9126    0.7695 C.3       4 GLC5        0.0000 
     74 CA          5.3300    9.7180    0.2000 C.3      12 GLL5        0.0000 
     75 CA          5.2860    6.1540    0.8350 C.3       8 GLP5        0.0000 
     76 CA          5.9228   11.6947    2.9908 C.3       4 GLC5        0.0000 
     77 CA          6.4800   13.6680    3.2570 C.3       8 GLP5        0.0000 
     78 CA          5.3257    7.9377    1.7797 C.3       4 GLC5        0.0000 
     79 CA          3.5023   11.3291    2.3665 C.3       4 GLC5        0.0000 
     80 CA          2.7440   13.0050    2.6750 C.3       8 GLP5        0.0000 
     81 CA          9.4935   11.5060    1.3020 C.3       4 GLC5        0.0000 
     82 CA         10.1120    9.4190    0.9860 C.3      12 GLL5        0.0000 
     83 CA         10.4483   11.2710    7.0168 C.3       4 GLC5        0.0000 
     84 CA         10.4700    9.0920    6.6090 C.3      12 GLL5        0.0000 
     85 CA         11.0130   13.1820    7.1560 C.3       8 GLP5        0.0000 
     86 CA          9.0132    8.1695    5.8803 C.3       4 GLC5        0.0000 
     87 CA          9.2970    9.6280    7.1460 C.3      12 GLL5        0.0000 
     88 CA          9.8788   11.8818    6.4140 C.3       4 GLC5        0.0000 
     89 CA          8.4438    8.7802    5.2775 C.3       4 GLC5        0.0000 
     90 CA         10.7632   11.4882    6.0062 C.3       4 GLC5        0.0000 
     91 CA          9.4834    8.2957    4.8465 C.3       4 GLC5        0.0000 
     92 CA          8.4719   11.4849    1.5248 C.3       4 GLC5        0.0000 
     93 CA          7.3104    7.9554    0.7515 C.3       4 GLC5        0.0000 
     94 CA          7.7610    9.8900    0.7360 C.3      12 GLL5        0.0000 
     95 CA          6.6910    6.3490    0.3010 C.3       8 GLP5        0.0000 
     96 CA         10.2797    8.3575   -0.3028 C.3       4 GLC5        0.0000 
@<TRIPOS>BOND
@<TRIPOS>SUBSTRUCTURE
     1 ALC1       13 GROUP        1 X    ALC  0     ROOT ALC X 1
     2 SEC2       10 GROUP        1 X    SEC  0     **** SEC X 2
     3 ASC3       43 GROUP        1 X    ASC  0     **** ASC X 3
     4 GLC5        1 GROUP        1 X    GLC  0     **** GLC X 6
     5 ALP1       15 GROUP        1 Y    ALP  0     ROOT ALP Y 8
     6 SEP2       12 GROUP        1 Y    SEP  0     **** SEP Y 9
     7 ASP3       45 GROUP        1 Y    ASP  0     **** ASP Y 10
     8 GLP5        3 GROUP        1 Y    GLP  0     **** GLP Y 13
     9 ALL1       14 GROUP        1 Z    ALL  0     ROOT ALL Z 15
    10 SEL2       11 GROUP        1 Z    SEL  0     **** SEL Z 16
    11 ASL3       44 GROUP        1 Z    ASL  0     **** ASL Z 17
    12 GLL5        2 GROUP        1 Z    GLL  0     **** GLL Z 20
@<TRIPOS>SET

