#    Name: 2jdv_L20_1_ligand
#    Modification time : Tue Mar 25 20:36:47 2014

@<TRIPOS>MOLECULE
2jdv_L20_1_ligand
   54    58     1     0     0
SMALL
NO_CHARGES


@<TRIPOS>ATOM
      1 C1          4.6300    9.6460    5.4830 C.3       1 L201351     0.0000 
      2 C2          3.9820    9.6170    4.1620 C.2       1 L201351     0.0000 
      3 N3          2.6600    9.5430    3.9270 N.2       1 L201351     0.0000 
      4 N4          2.4940    9.5320    2.5900 N.pl3     1 L201351     0.0000 
      5 C6          3.6740    9.6100    1.9010 C.ar      1 L201351     0.0000 
      6 C7          3.9820    9.6390    0.5150 C.ar      1 L201351     0.0000 
      7 C8          5.3300    9.7180    0.2000 C.ar      1 L201351     0.0000 
      8 C9          6.3620    9.7830    1.1680 C.ar      1 L201351     0.0000 
      9 C10         6.0380    9.7610    2.5410 C.ar      1 L201351     0.0000 
     10 C11         4.6930    9.6820    2.9080 C.ar      1 L201351     0.0000 
     11 C12         7.7610    9.8900    0.7360 C.ar      1 L201351     0.0000 
     12 C13         8.1180   10.6090   -0.4380 C.ar      1 L201351     0.0000 
     13 N14         9.3890   10.7540   -0.8510 N.ar      1 L201351     0.0000 
     14 C15        10.3620   10.1750   -0.1680 C.ar      1 L201351     0.0000 
     15 C16        10.1120    9.4190    0.9860 C.ar      1 L201351     0.0000 
     16 O17        11.1580    8.8460    1.6870 O.3       1 L201351     0.0000 
     17 C18        11.0350    7.5980    2.3610 C.3       1 L201351     0.0000 
     18 C19        12.4580    7.3990    2.9270 C.3       1 L201351     0.0000 
     19 N21        13.3660    7.2540    1.7530 N.4       1 L201351     0.0000 
     20 C25        12.9710    8.5600    3.8470 C.3       1 L201351     0.0000 
     21 C26        12.1550    8.6550    5.0680 C.2       1 L201351     0.0000 
     22 C27        12.4130    7.9870    6.2650 C.2       1 L201351     0.0000 
     23 N28        11.4120    8.2470    7.1860 N.pl3     1 L201351     0.0000 
     24 C30        10.4700    9.0920    6.6090 C.ar      1 L201351     0.0000 
     25 C31         9.2970    9.6280    7.1460 C.ar      1 L201351     0.0000 
     26 C32         8.5450   10.4530    6.3380 C.ar      1 L201351     0.0000 
     27 C33         8.9440   10.7100    5.0060 C.ar      1 L201351     0.0000 
     28 C34        10.1130   10.2060    4.4590 C.ar      1 L201351     0.0000 
     29 C35        10.9140    9.3830    5.2540 C.ar      1 L201351     0.0000 
     30 C36         8.7980    9.2870    1.4520 C.ar      1 L201351     0.0000 
     31 H           1.6108    9.4736    2.1397 H         1 L201351     0.0000 
     32 H           3.2650    9.6041   -0.1728 H         1 L201351     0.0000 
     33 H           5.6149    9.7312   -0.8121 H         1 L201351     0.0000 
     34 H           6.7704    9.8019    3.2406 H         1 L201351     0.0000 
     35 H           7.3270   11.0352   -0.9866 H         1 L201351     0.0000 
     36 H          11.3655   10.2639   -0.4717 H         1 L201351     0.0000 
     37 H          10.8305    6.7893    1.6995 H         1 L201351     0.0000 
     38 H          10.3591    7.6367    3.1826 H         1 L201351     0.0000 
     39 H          12.4760    6.4786    3.4921 H         1 L201351     0.0000 
     40 H          12.9228    9.4821    3.2665 H         1 L201351     0.0000 
     41 H          14.0149    8.3515    4.0843 H         1 L201351     0.0000 
     42 H          13.1792    7.4264    6.4229 H         1 L201351     0.0000 
     43 H          11.3719    7.9025    8.0763 H         1 L201351     0.0000 
     44 H           9.0174    9.4128    8.0948 H         1 L201351     0.0000 
     45 H           7.6837   10.8931    6.6919 H         1 L201351     0.0000 
     46 H           8.3206   11.3088    4.4167 H         1 L201351     0.0000 
     47 H          10.3850   10.4262    3.5052 H         1 L201351     0.0000 
     48 H           8.6028    8.7587    2.3009 H         1 L201351     0.0000 
     49 H           5.6257    9.6993    5.4072 H         1 L201351     0.0000 
     50 H           4.3347   10.4333    6.0243 H         1 L201351     0.0000 
     51 H           4.4202    8.8274    6.0177 H         1 L201351     0.0000 
     52 H          13.0302    7.7607    0.9589 H         1 L201351     0.0000 
     53 H          14.2854    7.5942    1.9503 H         1 L201351     0.0000 
     54 H          13.4608    6.2988    1.4726 H         1 L201351     0.0000 
@<TRIPOS>BOND
     1    2    1 1    
     2   49    1 1    
     3   50    1 1    
     4   51    1 1    
     5    3    2 2    
     6   10    2 1    
     7    4    3 1    
     8    5    4 1    
     9   31    4 1    
    10    6    5 ar   
    11   10    5 ar   
    12    7    6 ar   
    13   32    6 1    
    14    8    7 ar   
    15   33    7 1    
    16    9    8 ar   
    17   11    8 1    
    18   10    9 ar   
    19   34    9 1    
    20   12   11 ar   
    21   30   11 ar   
    22   13   12 ar   
    23   35   12 1    
    24   14   13 ar   
    25   15   14 ar   
    26   36   14 1    
    27   16   15 1    
    28   30   15 ar   
    29   17   16 1    
    30   18   17 1    
    31   37   17 1    
    32   38   17 1    
    33   19   18 1    
    34   20   18 1    
    35   39   18 1    
    36   52   19 1    
    37   53   19 1    
    38   54   19 1    
    39   21   20 1    
    40   40   20 1    
    41   41   20 1    
    42   22   21 2    
    43   29   21 1    
    44   23   22 1    
    45   42   22 1    
    46   24   23 1    
    47   43   23 1    
    48   25   24 ar   
    49   29   24 ar   
    50   26   25 ar   
    51   44   25 1    
    52   27   26 ar   
    53   45   26 1    
    54   28   27 ar   
    55   46   27 1    
    56   29   28 ar   
    57   47   28 1    
    58   48   30 1    
@<TRIPOS>SUBSTRUCTURE
     1 L201351     1 GROUP   
@<TRIPOS>SET

