#    Name: 3c85_AMP_1_INTS_M
#    Modification time : Mon Mar 24 20:34:27 2014

@<TRIPOS>MOLECULE
3c85_AMP_1_INTS_M
   58     0     9     0     0
SMALL
NO_CHARGES


@<TRIPOS>ATOM
      1 N          43.7245   36.4925   28.7660 N.am      2 SEC2        0.0000 
      2 N          42.8420   36.4710   29.8300 N.am      8 SEL2        0.0000 
      3 N          44.6070   36.5140   27.7020 N.am      5 SEP2        0.0000 
      4 N          43.4115   33.6685   28.3670 N.am      2 SEC2        0.0000 
      5 N          42.7490   33.8990   29.6810 N.am      8 SEL2        0.0000 
      6 N          44.0740   33.4380   27.0530 N.am      5 SEP2        0.0000 
      7 CA         37.9110   34.5305   32.2820 C.3       3 GLC5        0.0000 
      8 CA         39.5600   35.7530   32.4270 C.3       9 GLL5        0.0000 
      9 CA         36.2620   33.3080   32.1370 C.3       6 GLP5        0.0000 
     10 N          39.5490   37.8515   35.4060 N.am      2 SEC2        0.0000 
     11 N          39.1560   36.9000   34.5390 N.am      8 SEL2        0.0000 
     12 N          39.9420   38.8030   36.2730 N.am      5 SEP2        0.0000 
     13 O          38.1880   36.1945   35.1400 O.2       1 ALC1        0.0000 
     14 O          39.1560   36.9000   34.5390 O.2       7 ALL1        0.0000 
     15 O          37.2200   35.4890   35.7410 O.2       4 ALP1        0.0000 
     16 O          38.9520   36.0030   35.9295 O.2       1 ALC1        0.0000 
     17 O          38.7480   35.1060   37.3200 O.2       4 ALP1        0.0000 
     18 N          41.0610   36.2515   36.6940 N.am      2 SEC2        0.0000 
     19 N          40.8440   35.1070   35.8510 N.am      8 SEL2        0.0000 
     20 N          41.2780   37.3960   37.5370 N.am      5 SEP2        0.0000 
     21 O          39.7960   35.1065   36.5855 O.2       1 ALC1        0.0000 
     22 O          40.8440   35.1070   35.8510 O.2       7 ALL1        0.0000 
     23 CA         37.9405   33.6570   33.0615 C.3       3 GLC5        0.0000 
     24 CA         39.6190   34.0060   33.9860 C.3       9 GLL5        0.0000 
     25 CA         40.3155   32.9375   35.8100 C.3       3 GLC5        0.0000 
     26 CA         41.0120   31.8690   37.6340 C.3       6 GLP5        0.0000 
     27 CA         39.9625   29.9010   36.4450 C.3       3 GLC5        0.0000 
     28 CA         39.8200   29.0450   34.7180 C.3       9 GLL5        0.0000 
     29 CA         40.1050   30.7570   38.1720 C.3       6 GLP5        0.0000 
     30 CA         39.1115   27.6450   36.2780 C.3       3 GLC5        0.0000 
     31 CA         38.4030   26.2450   37.8380 C.3       6 GLP5        0.0000 
     32 CA         38.2865   27.7390   34.0195 C.3       3 GLC5        0.0000 
     33 CA         36.7530   26.4330   33.3210 C.3       6 GLP5        0.0000 
     34 O          40.6690   26.7330   35.5015 O.2       1 ALC1        0.0000 
     35 O          40.6680   27.9840   34.5940 O.2       7 ALL1        0.0000 
     36 O          40.6700   25.4820   36.4090 O.2       4 ALP1        0.0000 
     37 N          38.1105   27.4755   35.3655 N.am      2 SEC2        0.0000 
     38 N          38.5340   28.9360   35.2090 N.am      8 SEL2        0.0000 
     39 N          37.6870   26.0150   35.5220 N.am      5 SEP2        0.0000 
     40 CA         35.8810   29.4015   35.8295 C.3       3 GLC5        0.0000 
     41 CA         37.7670   30.0520   35.2760 C.3       9 GLL5        0.0000 
     42 CA         33.9950   28.7510   36.3830 C.3       6 GLP5        0.0000 
     43 CA         36.7735   31.4470   36.2685 C.3       3 GLC5        0.0000 
     44 CA         35.7800   32.8420   37.2610 C.3       6 GLP5        0.0000 
     45 CA         38.9360   30.4045   36.7240 C.3       3 GLC5        0.0000 
     46 CA         37.2600   28.2425   34.2985 C.3       3 GLC5        0.0000 
     47 CA         38.1935   29.7680   33.2330 C.3       3 GLC5        0.0000 
     48 CA         38.6200   29.4840   31.1900 C.3       6 GLP5        0.0000 
     49 N          38.0550   31.6300   36.4665 N.am      2 SEC2        0.0000 
     50 N          38.1910   31.3050   34.9540 N.am      8 SEL2        0.0000 
     51 N          37.9190   31.9550   37.9790 N.am      5 SEP2        0.0000 
     52 CA         37.8460   32.4260   33.3045 C.3       3 GLC5        0.0000 
     53 CA         39.4300   31.5440   34.4720 C.3       9 GLL5        0.0000 
     54 CA         38.6340   37.5143   32.8320 C.3       3 GLC5        0.0000 
     55 CA         37.4040   39.0060   32.5920 C.3       6 GLP5        0.0000 
     56 CA         40.4445   31.4165   36.0122 C.3       3 GLC5        0.0000 
     57 CA         39.1855   30.0566   32.8414 C.3       3 GLC5        0.0000 
     58 CA         40.3240   30.3840   34.3090 C.3       9 GLL5        0.0000 
@<TRIPOS>BOND
@<TRIPOS>SUBSTRUCTURE
     1 ALC1       13 GROUP        1 X    ALC  0     ROOT ALC X 1
     2 SEC2        1 GROUP        1 X    SEC  0     **** SEC X 2
     3 GLC5        7 GROUP        1 X    GLC  0     **** GLC X 6
     4 ALP1       15 GROUP        1 Y    ALP  0     ROOT ALP Y 8
     5 SEP2        3 GROUP        1 Y    SEP  0     **** SEP Y 9
     6 GLP5        9 GROUP        1 Y    GLP  0     **** GLP Y 13
     7 ALL1       14 GROUP        1 Z    ALL  0     ROOT ALL Z 15
     8 SEL2        2 GROUP        1 Z    SEL  0     **** SEL Z 16
     9 GLL5        8 GROUP        1 Z    GLL  0     **** GLL Z 20
@<TRIPOS>SET

