#    Name: 3c85_AMP_1_ligand
#    Modification time : Mon Mar 24 20:34:27 2014

@<TRIPOS>MOLECULE
3c85_AMP_1_ligand
   35    37     1     0     0
SMALL
NO_CHARGES


@<TRIPOS>ATOM
      1 P          42.9400   35.1320   30.5370 P.3       1 AMP201      0.0000 
      2 O1P        42.8420   36.4710   29.8300 O.co2     1 AMP201      0.0000 
      3 O2P        42.7490   33.8990   29.6810 O.co2     1 AMP201      0.0000 
      4 O3P        44.1010   35.1490   31.4950 O.co2     1 AMP201      0.0000 
      5 O5'        41.6170   35.1030   31.4670 O.3       1 AMP201      0.0000 
      6 C5'        40.4860   35.9370   31.2280 C.3       1 AMP201      0.0000 
      7 C4'        39.5600   35.7530   32.4270 C.3       1 AMP201      0.0000 
      8 O4'        39.3660   34.3440   32.6190 O.3       1 AMP201      0.0000 
      9 C3'        40.1680   36.2920   33.7170 C.3       1 AMP201      0.0000 
     10 O3'        39.1560   36.9000   34.5390 O.3       1 AMP201      0.0000 
     11 C2'        40.6620   35.0290   34.4210 C.3       1 AMP201      0.0000 
     12 O2'        40.8440   35.1070   35.8510 O.3       1 AMP201      0.0000 
     13 C1'        39.6190   34.0060   33.9860 C.3       1 AMP201      0.0000 
     14 N9         40.1310   32.6140   34.0540 N.pl3     1 AMP201      0.0000 
     15 C8         41.3670   32.2050   33.6600 C.2       1 AMP201      0.0000 
     16 N7         41.4950   30.8570   33.8210 N.2       1 AMP201      0.0000 
     17 C5         40.3240   30.3840   34.3090 C.ar      1 AMP201      0.0000 
     18 C6         39.8200   29.0450   34.7180 C.ar      1 AMP201      0.0000 
     19 N6         40.6680   27.9840   34.5940 N.pl3     1 AMP201      0.0000 
     20 N1         38.5340   28.9360   35.2090 N.ar      1 AMP201      0.0000 
     21 C2         37.7670   30.0520   35.2760 C.ar      1 AMP201      0.0000 
     22 N3         38.1910   31.3050   34.9540 N.ar      1 AMP201      0.0000 
     23 C4         39.4300   31.5440   34.4720 C.ar      1 AMP201      0.0000 
     24 H          39.9442   35.6456   30.3374 H         1 AMP201      0.0000 
     25 H          40.7552   36.9838   31.1691 H         1 AMP201      0.0000 
     26 H          38.6347   36.2434   32.2416 H         1 AMP201      0.0000 
     27 H          40.9772   36.9028   33.5008 H         1 AMP201      0.0000 
     28 H          41.5896   34.7371   33.9017 H         1 AMP201      0.0000 
     29 H          38.7503   34.1323   34.5749 H         1 AMP201      0.0000 
     30 H          42.0629   32.7902   33.3121 H         1 AMP201      0.0000 
     31 H          40.5533   27.2487   35.2619 H         1 AMP201      0.0000 
     32 H          41.3298   28.0347   33.8461 H         1 AMP201      0.0000 
     33 H          36.7533   29.9422   35.6060 H         1 AMP201      0.0000 
     34 H          38.5960   36.1386   34.8654 H         1 AMP201      0.0000 
     35 H          40.0408   34.6549   36.2391 H         1 AMP201      0.0000 
@<TRIPOS>BOND
     1    2    1 ar   
     2    3    1 ar   
     3    4    1 ar   
     4    5    1 1    
     5    6    5 1    
     6    7    6 1    
     7   24    6 1    
     8   25    6 1    
     9    8    7 1    
    10    9    7 1    
    11   26    7 1    
    12   13    8 1    
    13   10    9 1    
    14   11    9 1    
    15   27    9 1    
    16   34   10 1    
    17   12   11 1    
    18   13   11 1    
    19   28   11 1    
    20   35   12 1    
    21   14   13 1    
    22   29   13 1    
    23   15   14 1    
    24   23   14 1    
    25   16   15 2    
    26   30   15 1    
    27   17   16 1    
    28   18   17 ar   
    29   23   17 ar   
    30   19   18 1    
    31   20   18 ar   
    32   31   19 1    
    33   32   19 1    
    34   21   20 ar   
    35   22   21 ar   
    36   33   21 1    
    37   23   22 ar   
@<TRIPOS>SUBSTRUCTURE
     1 AMP201      1 GROUP   
@<TRIPOS>SET

