#    Name: 3hgm_ATP_3_INTS_M
#    Modification time : Tue Mar 25 14:16:57 2014

@<TRIPOS>MOLECULE
3hgm_ATP_3_INTS_M
   93     0    15     0     0
SMALL
NO_CHARGES


@<TRIPOS>ATOM
      1 N          37.5170   -4.8850    9.5260 N.am      2 SEC2        0.0000 
      2 N          36.9360   -5.1360   10.9890 N.am     12 SEL2        0.0000 
      3 N          38.0980   -4.6340    8.0630 N.am      7 SEP2        0.0000 
      4 N          37.5225   -4.0640   10.7050 N.am      2 SEC2        0.0000 
      5 N          38.1090   -2.9920   10.4210 N.am      7 SEP2        0.0000 
      6 N          34.2925   -6.3790   13.1850 N.am      2 SEC2        0.0000 
      7 N          34.6550   -5.8370   11.8750 N.am     12 SEL2        0.0000 
      8 N          33.9300   -6.9210   14.4950 N.am      7 SEP2        0.0000 
      9 NZ         34.6535   -5.1085    7.8620 N.4       3 LYC4        0.0000 
     10 NZ         34.9590   -5.2560    9.4130 N.4      13 LYL4        0.0000 
     11 NZ         33.2450   -4.2590    6.5460 N.4       8 LYP4        0.0000 
     12 N          33.9760   -4.5575    8.6010 N.am      2 SEC2        0.0000 
     13 N          34.9590   -5.2560    9.4130 N.am     12 SEL2        0.0000 
     14 N          32.9930   -3.8590    7.7890 N.am      7 SEP2        0.0000 
     15 N          34.6535   -5.1085    7.8620 N.am      2 SEC2        0.0000 
     16 N          34.3480   -4.9610    6.3110 N.am      7 SEP2        0.0000 
     17 N          36.5285   -4.9450    8.7380 N.am      2 SEC2        0.0000 
     18 N          37.1785  -10.4495   10.9530 N.am      2 SEC2        0.0000 
     19 N          36.2140   -9.6060   11.2340 N.am     12 SEL2        0.0000 
     20 N          38.1430  -11.2930   10.6720 N.am      7 SEP2        0.0000 
     21 N          35.5220  -10.0175   12.5065 N.am      2 SEC2        0.0000 
     22 N          34.8300  -10.4290   13.7790 N.am      7 SEP2        0.0000 
     23 Zn         38.0515   -7.2875   13.2190 Zn        4 ZIC7        0.0000 
     24 Zn         37.1510   -7.6120   12.5980 Zn       14 ZIL7        0.0000 
     25 Zn         38.9520   -6.9630   13.8400 Zn        9 ZIP7        0.0000 
     26 N          40.3570   -5.4270    9.3220 N.am      2 SEC2        0.0000 
     27 N          40.0660   -6.7930    9.5230 N.am     12 SEL2        0.0000 
     28 N          40.6480   -4.0610    9.1210 N.am      7 SEP2        0.0000 
     29 N          41.1845   -6.2910    8.5715 N.am      2 SEC2        0.0000 
     30 N          42.3030   -5.7890    7.6200 N.am      7 SEP2        0.0000 
     31 Zn         39.2630   -7.0275   12.9575 Zn        4 ZIC7        0.0000 
     32 Zn         39.5740   -7.0920   12.0750 Zn       14 ZIL7        0.0000 
     33 CA         39.7160  -10.4580    8.9350 C.3       5 GLC5        0.0000 
     34 CA         41.2500   -9.4370    9.6040 C.3      15 GLL5        0.0000 
     35 CA         38.1820  -11.4790    8.2660 C.3      10 GLP5        0.0000 
     36 CA         39.9520  -10.4230   10.8170 C.3       5 GLC5        0.0000 
     37 CA         38.6540  -11.4090   12.0300 C.3      10 GLP5        0.0000 
     38 CA         41.6855   -8.5480    7.8165 C.3       5 GLC5        0.0000 
     39 CA         42.1210   -7.6590    6.0290 C.3      10 GLP5        0.0000 
     40 CA         44.1240   -9.7420    9.1960 C.3       5 GLC5        0.0000 
     41 CA         42.5910   -9.9710   10.0910 C.3      15 GLL5        0.0000 
     42 CA         45.6570   -9.5130    8.3010 C.3      10 GLP5        0.0000 
     43 CA         40.5930  -11.1795   11.6420 C.3       5 GLC5        0.0000 
     44 CA         42.5320  -10.9500   11.2540 C.3      15 GLL5        0.0000 
     45 O          40.9610  -12.4575   10.3015 O.2       1 ALC1        0.0000 
     46 O          42.2090  -12.2900   10.8670 O.2      11 ALL1        0.0000 
     47 O          39.7130  -12.6250    9.7360 O.2       6 ALP1        0.0000 
     48 CA         45.2880  -11.7445   13.3365 C.3       5 GLC5        0.0000 
     49 CA         43.9380  -10.8210   11.7950 C.3      15 GLL5        0.0000 
     50 CA         46.6380  -12.6680   14.8780 C.3      10 GLP5        0.0000 
     51 CA         43.2960  -10.7500   13.9455 C.3       5 GLC5        0.0000 
     52 CA         42.6540  -10.6790   16.0960 C.3      10 GLP5        0.0000 
     53 N          44.6370  -12.0510    9.4775 N.am      2 SEC2        0.0000 
     54 N          44.8480  -11.6030   11.0130 N.am     12 SEL2        0.0000 
     55 N          44.4260  -12.4990    7.9420 N.am      7 SEP2        0.0000 
     56 O          46.0060  -11.7640   11.6215 O.2       1 ALC1        0.0000 
     57 O          44.8480  -11.6030   11.0130 O.2      11 ALL1        0.0000 
     58 O          47.1640  -11.9250   12.2300 O.2       6 ALP1        0.0000 
     59 CA         46.4465   -9.3200   11.9070 C.3       5 GLC5        0.0000 
     60 CA         44.2420   -9.3410   11.6170 C.3      15 GLL5        0.0000 
     61 CA         48.6510   -9.2990   12.1970 C.3      10 GLP5        0.0000 
     62 CA         44.0825   -7.1750   11.2340 C.3       5 GLC5        0.0000 
     63 CA         43.9230   -5.0090   10.8510 C.3      10 GLP5        0.0000 
     64 CA         46.0910   -6.1535   16.9940 C.3       5 GLC5        0.0000 
     65 CA         44.7710   -7.3230   16.1400 C.3      15 GLL5        0.0000 
     66 CA         47.4110   -4.9840   17.8480 C.3      10 GLP5        0.0000 
     67 O          44.7170   -6.4565   18.3525 O.2       1 ALC1        0.0000 
     68 O          44.1600   -6.6030   17.1080 O.2      11 ALL1        0.0000 
     69 O          45.2740   -6.3100   19.5970 O.2       6 ALP1        0.0000 
     70 N          46.8980   -7.5440   17.4360 N.am      2 SEC2        0.0000 
     71 N          46.0420   -7.7610   16.2730 N.am     12 SEL2        0.0000 
     72 N          47.7540   -7.3270   18.5990 N.am      7 SEP2        0.0000 
     73 CA         47.6540   -8.8865   13.7520 C.3       5 GLC5        0.0000 
     74 CA         46.6570   -8.4740   15.3070 C.3      15 GLL5        0.0000 
     75 CA         46.6475  -10.5710   15.0925 C.3       5 GLC5        0.0000 
     76 CA         47.6925   -9.0105   16.9385 C.3       5 GLC5        0.0000 
     77 CA         48.7280   -9.5470   18.5700 C.3      10 GLP5        0.0000 
     78 CA         47.6220   -6.7905   16.1055 C.3       5 GLC5        0.0000 
     79 CA         48.5870   -5.1070   16.9040 C.3      10 GLP5        0.0000 
     80 CA         47.0070   -7.2200   13.7415 C.3       5 GLC5        0.0000 
     81 CA         47.3570   -5.9660   12.1760 C.3      10 GLP5        0.0000 
     82 CA         46.7145   -8.8670   13.0410 C.3       5 GLC5        0.0000 
     83 CA         44.7780   -8.4350   13.8850 C.3      15 GLL5        0.0000 
     84 CA         46.0675   -7.2005   13.0305 C.3       5 GLC5        0.0000 
     85 CA         43.5375  -12.7707   12.3107 C.3       5 GLC5        0.0000 
     86 CA         43.8400  -14.6560   13.0970 C.3      10 GLP5        0.0000 
     87 CA         42.6666  -11.6850    9.1094 C.3       5 GLC5        0.0000 
     88 CA         43.1070  -13.0430    7.6680 C.3      10 GLP5        0.0000 
     89 CA         44.8735   -9.7970   10.0035 C.3       5 GLC5        0.0000 
     90 CA         44.3812   -5.4433   15.2365 C.3       5 GLC5        0.0000 
     91 CA         44.0500   -7.6460   14.8900 C.3      15 GLL5        0.0000 
     92 CA         44.3520   -3.4020   14.9580 C.3      10 GLP5        0.0000 
     93 CA         43.6241   -9.3194   15.3980 C.3       5 GLC5        0.0000 
@<TRIPOS>BOND
@<TRIPOS>SUBSTRUCTURE
     1 ALC1       45 GROUP        1 X    ALC  0     ROOT ALC X 1
     2 SEC2        1 GROUP        1 X    SEC  0     **** SEC X 2
     3 LYC4        9 GROUP        1 X    LYC  0     **** LYC X 4
     4 ZIC7       23 GROUP        1 X    ZIC  0     **** ZIC X 5
     5 GLC5       33 GROUP        1 X    GLC  0     **** GLC X 6
     6 ALP1       47 GROUP        1 Y    ALP  0     ROOT ALP Y 8
     7 SEP2        3 GROUP        1 Y    SEP  0     **** SEP Y 9
     8 LYP4       11 GROUP        1 Y    LYP  0     **** LYP Y 11
     9 ZIP7       25 GROUP        1 Y    ZIP  0     **** ZIP Y 12
    10 GLP5       35 GROUP        1 Y    GLP  0     **** GLP Y 13
    11 ALL1       46 GROUP        1 Z    ALL  0     ROOT ALL Z 15
    12 SEL2        2 GROUP        1 Z    SEL  0     **** SEL Z 16
    13 LYL4       10 GROUP        1 Z    LYL  0     **** LYL Z 18
    14 ZIL7       24 GROUP        1 Z    ZIL  0     **** ZIL Z 19
    15 GLL5       34 GROUP        1 Z    GLL  0     **** GLL Z 20
@<TRIPOS>SET

