#    Name: 3hgm_ATP_3_ligand
#    Modification time : Tue Mar 25 14:16:57 2014

@<TRIPOS>MOLECULE
3hgm_ATP_3_ligand
   43    45     1     0     0
SMALL
NO_CHARGES


@<TRIPOS>ATOM
      1 PG         35.5900   -5.7520   10.6940 P.3       1 ATP148      0.0000 
      2 O1G        36.9360   -5.1360   10.9890 O.co2     1 ATP148      0.0000 
      3 O2G        34.6550   -5.8370   11.8750 O.co2     1 ATP148      0.0000 
      4 O3G        34.9590   -5.2560    9.4130 O.co2     1 ATP148      0.0000 
      5 PB         36.8510   -8.2400   11.2590 P.3       1 ATP148      0.0000 
      6 O1B        36.2140   -9.6060   11.2340 O.co2     1 ATP148      0.0000 
      7 O2B        37.1510   -7.6120   12.5980 O.co2     1 ATP148      0.0000 
      8 O3B        35.8960   -7.2970   10.3680 O.3       1 ATP148      0.0000 
      9 PA         39.5870   -7.6490   10.6680 P.3       1 ATP148      0.0000 
     10 O1A        40.0660   -6.7930    9.5230 O.co2     1 ATP148      0.0000 
     11 O2A        39.5740   -7.0920   12.0750 O.co2     1 ATP148      0.0000 
     12 O3A        38.1400   -8.2440   10.2980 O.3       1 ATP148      0.0000 
     13 O5'        40.4530   -9.0120   10.7070 O.3       1 ATP148      0.0000 
     14 C5'        41.2500   -9.4370    9.6040 C.3       1 ATP148      0.0000 
     15 C4'        42.5910   -9.9710   10.0910 C.3       1 ATP148      0.0000 
     16 O4'        43.4050   -8.8880   10.5450 O.3       1 ATP148      0.0000 
     17 C3'        42.5320  -10.9500   11.2540 C.3       1 ATP148      0.0000 
     18 O3'        42.2090  -12.2900   10.8670 O.3       1 ATP148      0.0000 
     19 C2'        43.9380  -10.8210   11.7950 C.3       1 ATP148      0.0000 
     20 O2'        44.8480  -11.6030   11.0130 O.3       1 ATP148      0.0000 
     21 C1'        44.2420   -9.3410   11.6170 C.3       1 ATP148      0.0000 
     22 N9         43.9330   -8.6020   12.8680 N.pl3     1 ATP148      0.0000 
     23 C8         42.7680   -7.9890   13.1650 C.2       1 ATP148      0.0000 
     24 N7         42.8250   -7.4060   14.3910 N.2       1 ATP148      0.0000 
     25 C5         44.0500   -7.6460   14.8900 C.ar      1 ATP148      0.0000 
     26 C6         44.7710   -7.3230   16.1400 C.ar      1 ATP148      0.0000 
     27 N6         44.1600   -6.6030   17.1080 N.pl3     1 ATP148      0.0000 
     28 N1         46.0420   -7.7610   16.2730 N.ar      1 ATP148      0.0000 
     29 C2         46.6570   -8.4740   15.3070 C.ar      1 ATP148      0.0000 
     30 N3         46.0550   -8.8130   14.1490 N.ar      1 ATP148      0.0000 
     31 C4         44.7780   -8.4350   13.8850 C.ar      1 ATP148      0.0000 
     32 H          41.4514   -8.6112    8.9061 H         1 ATP148      0.0000 
     33 H          40.7583  -10.2372    9.0318 H         1 ATP148      0.0000 
     34 H          43.0942  -10.4693    9.2612 H         1 ATP148      0.0000 
     35 H          41.8685  -10.5368   11.9863 H         1 ATP148      0.0000 
     36 H          43.9409  -11.0494   12.8169 H         1 ATP148      0.0000 
     37 H          45.2752   -9.2406   11.3681 H         1 ATP148      0.0000 
     38 H          41.9832   -7.9647   12.5786 H         1 ATP148      0.0000 
     39 H          43.4291   -5.9909   16.8061 H         1 ATP148      0.0000 
     40 H          44.4932   -6.7466   18.0398 H         1 ATP148      0.0000 
     41 H          47.6614   -8.7824   15.4660 H         1 ATP148      0.0000 
     42 H          41.2183  -12.3610   10.9828 H         1 ATP148      0.0000 
     43 H          45.4445  -12.0495   11.6799 H         1 ATP148      0.0000 
@<TRIPOS>BOND
     1    2    1 ar   
     2    3    1 ar   
     3    4    1 ar   
     4    8    1 1    
     5    6    5 ar   
     6    7    5 ar   
     7    8    5 1    
     8   12    5 1    
     9   10    9 ar   
    10   11    9 ar   
    11   12    9 1    
    12   13    9 1    
    13   14   13 1    
    14   15   14 1    
    15   32   14 1    
    16   33   14 1    
    17   16   15 1    
    18   17   15 1    
    19   34   15 1    
    20   21   16 1    
    21   18   17 1    
    22   19   17 1    
    23   35   17 1    
    24   42   18 1    
    25   20   19 1    
    26   21   19 1    
    27   36   19 1    
    28   43   20 1    
    29   22   21 1    
    30   37   21 1    
    31   23   22 1    
    32   31   22 1    
    33   24   23 2    
    34   38   23 1    
    35   25   24 1    
    36   26   25 ar   
    37   31   25 ar   
    38   27   26 1    
    39   28   26 ar   
    40   39   27 1    
    41   40   27 1    
    42   29   28 ar   
    43   30   29 ar   
    44   41   29 1    
    45   31   30 ar   
@<TRIPOS>SUBSTRUCTURE
     1 ATP148      1 GROUP   
@<TRIPOS>SET

