#    Name: 1ydt_IQB_1_INTS_M
#    Modification time : Mon Apr  7 15:42:09 2014

@<TRIPOS>MOLECULE
1ydt_IQB_1_INTS_M
   76     0    12     0     0
SMALL
NO_CHARGES


@<TRIPOS>ATOM
      1 CA          8.1880   11.8710    1.6630 C.3       4 GLC5        0.0000 
      2 CA          7.0150   10.2910    1.4300 C.3      12 GLL5        0.0000 
      3 CA          9.3610   13.4510    1.8960 C.3       8 GLP5        0.0000 
      4 CA          1.4800   10.7650    3.7200 C.3       4 GLC5        0.0000 
      5 CA          3.2200   10.0000    3.1920 C.3      12 GLL5        0.0000 
      6 CA         -0.2600   11.5300    4.2480 C.3       8 GLP5        0.0000 
      7 CA          2.0095    8.4640    3.1975 C.3       4 GLC5        0.0000 
      8 CA          0.7990    6.9280    3.2030 C.3       8 GLP5        0.0000 
      9 N           1.7385    9.6120    4.7195 N.am      2 SEC2        0.0000 
     10 N           3.1000    9.9540    4.5420 N.am     10 SEL2        0.0000 
     11 N           0.3770    9.2700    4.8970 N.am      6 SEP2        0.0000 
     12 CA          3.8035   11.7245    3.9650 C.3       4 GLC5        0.0000 
     13 CA          4.1820   10.0000    5.3550 C.3      12 GLL5        0.0000 
     14 CA          3.4250   13.4490    2.5750 C.3       8 GLP5        0.0000 
     15 N           8.3915   10.1780    5.9995 N.am      2 SEC2        0.0000 
     16 N           8.1680   11.2390    4.8980 N.am     10 SEL2        0.0000 
     17 N           8.6150    9.1170    7.1010 N.am      6 SEP2        0.0000 
     18 O           8.5185    8.9710    5.7520 O.2       1 ALC1        0.0000 
     19 O           8.4220    8.8250    4.4030 O.2       9 ALL1        0.0000 
     20 O           8.6150    9.1170    7.1010 O.2       5 ALP1        0.0000 
     21 CA          9.0015    6.6675    5.5225 C.3       4 GLC5        0.0000 
     22 CA          8.8740    7.7060    3.5960 C.3      12 GLL5        0.0000 
     23 CA          9.1290    5.6290    7.4490 C.3       8 GLP5        0.0000 
     24 CA          7.0165    7.1570    3.6560 C.3       4 GLC5        0.0000 
     25 CA          5.1590    6.6080    3.7160 C.3       8 GLP5        0.0000 
     26 OD1        10.9930    7.2940    5.3270 O.co2     3 ASC3        0.0000 
     27 OD1        11.2740    7.1790    3.3600 O.co2    11 ASL3        0.0000 
     28 OD1        10.7120    7.4090    7.2940 O.co2     7 ASP3        0.0000 
     29 CA         12.2385   11.4850    4.6385 C.3       4 GLC5        0.0000 
     30 CA         12.8310   10.2810    2.9320 C.3      12 GLL5        0.0000 
     31 CA         11.6460   12.6890    6.3450 C.3       8 GLP5        0.0000 
     32 CA         15.7590   13.9175    0.3010 C.3       4 GLC5        0.0000 
     33 CA         14.4220   14.3880   -1.3880 C.3      12 GLL5        0.0000 
     34 CA         17.0960   13.4470    1.9900 C.3       8 GLP5        0.0000 
     35 CA         15.5720   14.9755   -2.8445 C.3       4 GLC5        0.0000 
     36 CA         16.7220   15.5630   -4.3010 C.3       8 GLP5        0.0000 
     37 CA         14.6255   16.0940   -0.7435 C.3       4 GLC5        0.0000 
     38 CA         14.8290   17.8000   -0.0990 C.3       8 GLP5        0.0000 
     39 CA         13.7960   15.1145   -3.0740 C.3       4 GLC5        0.0000 
     40 CA         13.1700   15.8410   -4.7600 C.3       8 GLP5        0.0000 
     41 CA         12.8085   15.2505    1.8710 C.3       4 GLC5        0.0000 
     42 CA         13.1280   13.5110    0.9560 C.3      12 GLL5        0.0000 
     43 CA         12.4890   16.9900    2.7860 C.3       8 GLP5        0.0000 
     44 CA         12.0435   13.2255   -0.9870 C.3       4 GLC5        0.0000 
     45 CA         10.9590   12.9400   -2.9300 C.3       8 GLP5        0.0000 
     46 CA          6.6645   12.1143    2.9565 C.3       4 GLC5        0.0000 
     47 CA          6.9040   10.2450    2.8280 C.3      12 GLL5        0.0000 
     48 CA          7.0630   14.0320    2.7920 C.3       8 GLP5        0.0000 
     49 CA          5.7125    8.4022    3.4185 C.3       4 GLC5        0.0000 
     50 CA          6.1567    8.6115    1.2765 C.3       4 GLC5        0.0000 
     51 CA          5.3540    6.9550    0.4240 C.3       8 GLP5        0.0000 
     52 CA          4.3302   11.8195    1.7452 C.3       4 GLC5        0.0000 
     53 CA          5.8710   10.2380    0.6260 C.3      12 GLL5        0.0000 
     54 CA          4.9307   10.8315   -0.8897 C.3       4 GLC5        0.0000 
     55 CA          4.6000   10.1420    1.2050 C.3      12 GLL5        0.0000 
     56 CA          4.6260   11.4730   -2.6950 C.3       8 GLP5        0.0000 
     57 CA          5.2948    8.5725    0.6698 C.3       4 GLC5        0.0000 
     58 CA          5.2043    8.5385    1.7150 C.3       4 GLC5        0.0000 
     59 CA          4.4810   10.0960    2.5980 C.3      12 GLL5        0.0000 
     60 CA          4.5196    8.3338    3.1314 C.3       4 GLC5        0.0000 
     61 CA          4.8777   11.7165    5.9210 C.3       4 GLC5        0.0000 
     62 CA          5.4670   10.0980    4.8070 C.3      12 GLL5        0.0000 
     63 CA          4.9310   13.3840    6.7610 C.3       8 GLP5        0.0000 
     64 CA          4.9917    8.3285    4.3985 C.3       4 GLC5        0.0000 
     65 CA          4.0821   11.7735    2.8648 C.3       4 GLC5        0.0000 
     66 CA          5.6280   10.1480    3.4140 C.3      12 GLL5        0.0000 
     67 CA         15.3740   12.2592    1.6605 C.3       4 GLC5        0.0000 
     68 CA         13.2360   11.2610    1.8630 C.3      12 GLL5        0.0000 
     69 CA         15.6433   12.9600    0.9243 C.3       4 GLC5        0.0000 
     70 CA         13.9540   13.1310   -0.1000 C.3      12 GLL5        0.0000 
     71 CA         12.5735   13.3498   -1.8370 C.3       4 GLC5        0.0000 
     72 CA         13.9130   13.4314    3.1644 C.3       4 GLC5        0.0000 
     73 CA         14.7600   14.1480    4.9020 C.3       8 GLP5        0.0000 
     74 CA         15.0230   13.2452    1.7170 C.3       4 GLC5        0.0000 
     75 CA         12.7720   12.5760    1.9320 C.3      12 GLL5        0.0000 
     76 CA         11.2135   13.0829    1.6614 C.3       4 GLC5        0.0000 
@<TRIPOS>BOND
@<TRIPOS>SUBSTRUCTURE
     1 ALC1       18 GROUP        1 X    ALC  0     ROOT ALC X 1
     2 SEC2        9 GROUP        1 X    SEC  0     **** SEC X 2
     3 ASC3       26 GROUP        1 X    ASC  0     **** ASC X 3
     4 GLC5        1 GROUP        1 X    GLC  0     **** GLC X 6
     5 ALP1       20 GROUP        1 Y    ALP  0     ROOT ALP Y 8
     6 SEP2       11 GROUP        1 Y    SEP  0     **** SEP Y 9
     7 ASP3       28 GROUP        1 Y    ASP  0     **** ASP Y 10
     8 GLP5        3 GROUP        1 Y    GLP  0     **** GLP Y 13
     9 ALL1       19 GROUP        1 Z    ALL  0     ROOT ALL Z 15
    10 SEL2       10 GROUP        1 Z    SEL  0     **** SEL Z 16
    11 ASL3       27 GROUP        1 Z    ASL  0     **** ASL Z 17
    12 GLL5        2 GROUP        1 Z    GLL  0     **** GLL Z 20
@<TRIPOS>SET

