#    Name: 1ydt_IQB_1_ligand
#    Modification time : Mon Apr  7 15:42:09 2014

@<TRIPOS>MOLECULE
1ydt_IQB_1_ligand
   46    48     1     0     0
SMALL
NO_CHARGES


@<TRIPOS>ATOM
      1 C1          6.9040   10.2450    2.8280 C.ar      1 IQB351      0.0000 
      2 C2          7.0150   10.2910    1.4300 C.ar      1 IQB351      0.0000 
      3 C3          5.8710   10.2380    0.6260 C.ar      1 IQB351      0.0000 
      4 C4          4.6000   10.1420    1.2050 C.ar      1 IQB351      0.0000 
      5 C5          4.4810   10.0960    2.5980 C.ar      1 IQB351      0.0000 
      6 C6          3.2200   10.0000    3.1920 C.ar      1 IQB351      0.0000 
      7 N7          3.1000    9.9540    4.5420 N.ar      1 IQB351      0.0000 
      8 C8          4.1820   10.0000    5.3550 C.ar      1 IQB351      0.0000 
      9 C9          5.4670   10.0980    4.8070 C.ar      1 IQB351      0.0000 
     10 C10         5.6280   10.1480    3.4140 C.ar      1 IQB351      0.0000 
     11 S           8.3850   10.3200    3.8070 S.o2      1 IQB351      0.0000 
     12 O1          8.1680   11.2390    4.8980 O.2       1 IQB351      0.0000 
     13 O2          9.5150   10.5330    2.9260 O.2       1 IQB351      0.0000 
     14 N1'         8.4220    8.8250    4.4030 N.pl3     1 IQB351      0.0000 
     15 C2'         8.8740    7.7060    3.5960 C.3       1 IQB351      0.0000 
     16 C3'        10.1930    8.0520    2.8860 C.3       1 IQB351      0.0000 
     17 N4'        11.2740    7.1790    3.3600 N.4       1 IQB351      0.0000 
     18 C5'        12.4220    7.9960    3.7960 C.3       1 IQB351      0.0000 
     19 C6'        12.8320    8.9590    2.7140 C.2       1 IQB351      0.0000 
     20 C7'        12.8310   10.2810    2.9320 C.2       1 IQB351      0.0000 
     21 C1'        13.2360   11.2610    1.8630 C.ar      1 IQB351      0.0000 
     22 C2B        14.0680   10.8820    0.7990 C.ar      1 IQB351      0.0000 
     23 C3B        14.4270   11.8150   -0.1830 C.ar      1 IQB351      0.0000 
     24 C4'        13.9540   13.1310   -0.1000 C.ar      1 IQB351      0.0000 
     25 BR4'       14.4220   14.3880   -1.3880 Br        1 IQB351      0.0000 
     26 C5B        13.1280   13.5110    0.9560 C.ar      1 IQB351      0.0000 
     27 C6B        12.7720   12.5760    1.9320 C.ar      1 IQB351      0.0000 
     28 H           7.9435   10.3641    0.9953 H         1 IQB351      0.0000 
     29 H           5.9642   10.2698   -0.3979 H         1 IQB351      0.0000 
     30 H           3.7671   10.1059    0.6150 H         1 IQB351      0.0000 
     31 H           2.3837    9.9649    2.5823 H         1 IQB351      0.0000 
     32 H           4.0813    9.9641    6.3826 H         1 IQB351      0.0000 
     33 H           6.2859   10.1331    5.4188 H         1 IQB351      0.0000 
     34 H           8.1177    8.7358    5.3437 H         1 IQB351      0.0000 
     35 H           8.1374    7.4469    2.8278 H         1 IQB351      0.0000 
     36 H           9.0475    6.8167    4.2115 H         1 IQB351      0.0000 
     37 H          10.4225    9.1013    3.0880 H         1 IQB351      0.0000 
     38 H          10.0407    7.9346    1.8101 H         1 IQB351      0.0000 
     39 H          13.2745    7.3508    4.0404 H         1 IQB351      0.0000 
     40 H          12.1619    8.5632    4.6979 H         1 IQB351      0.0000 
     41 H          13.1036    8.5264    1.8231 H         1 IQB351      0.0000 
     42 H          12.5573   10.7085    3.8315 H         1 IQB351      0.0000 
     43 H          14.4146    9.9180    0.7402 H         1 IQB351      0.0000 
     44 H          15.0333   11.5355   -0.9589 H         1 IQB351      0.0000 
     45 H          12.7811   14.4741    1.0186 H         1 IQB351      0.0000 
     46 H          12.1599   12.8612    2.7114 H         1 IQB351      0.0000 
@<TRIPOS>BOND
     1    2    1 ar   
     2   10    1 ar   
     3   11    1 1    
     4    3    2 ar   
     5   28    2 1    
     6    4    3 ar   
     7   29    3 1    
     8    5    4 ar   
     9   30    4 1    
    10    6    5 ar   
    11   10    5 ar   
    12    7    6 ar   
    13   31    6 1    
    14    8    7 ar   
    15    9    8 ar   
    16   32    8 1    
    17   10    9 ar   
    18   33    9 1    
    19   12   11 2    
    20   13   11 2    
    21   14   11 1    
    22   15   14 1    
    23   34   14 1    
    24   16   15 1    
    25   35   15 1    
    26   36   15 1    
    27   17   16 1    
    28   37   16 1    
    29   38   16 1    
    30   18   17 1    
    31   19   18 1    
    32   39   18 1    
    33   40   18 1    
    34   20   19 2    
    35   41   19 1    
    36   21   20 1    
    37   42   20 1    
    38   22   21 ar   
    39   27   21 ar   
    40   23   22 ar   
    41   43   22 1    
    42   24   23 ar   
    43   44   23 1    
    44   25   24 1    
    45   26   24 ar   
    46   27   26 ar   
    47   45   26 1    
    48   46   27 1    
@<TRIPOS>SUBSTRUCTURE
     1 IQB351      1 GROUP   
@<TRIPOS>SET

