#    Name: 3JTF_1_CAVITY_N1_6.mol2
#    Modification time : Tue Mar 11 04:47:22 2014

@<TRIPOS>MOLECULE
3JTF_1_CAVITY_N1_6.mol2
   88     0     6     0     0
SMALL
NO_CHARGES


@<TRIPOS>ATOM
      1 DU         10.4613   34.7547   29.6058 H         6 CUB7        0.0000 
      2 O          13.7072   35.3537   31.2199 O.2       2 ALA2        0.0000 
      3 N          12.8503   36.5784   31.0947 N.2       2 ALA2        0.0000 
      4 DU         12.4780   34.4939   31.2228 H         6 CUB7        0.0000 
      5 N          11.6211   35.7187   31.0976 N.2       2 ALA2        0.0000 
      6 N          10.7642   36.9434   30.9724 N.2       2 ALA2        0.0000 
      7 O          12.9627   31.1847   31.4762 O.2       2 ALA2        0.0000 
      8 NZ         12.1058   32.4095   31.3510 N.2       4 LYS4        0.0000 
      9 NZ         11.2488   33.6342   31.2258 N.2       4 LYS4        0.0000 
     10 O          10.3919   34.8590   31.1006 O.2       2 ALA2        0.0000 
     11 O           9.5350   36.0837   30.9754 O.2       2 ALA2        0.0000 
     12 N          14.3823   39.6269   32.4584 N.2       2 ALA2        0.0000 
     13 O          14.0101   37.5424   32.5866 O.2       2 ALA2        0.0000 
     14 O          13.1531   38.7671   32.4614 O.2       2 ALA2        0.0000 
     15 CA         12.2962   39.9919   32.3362 C.3       5 GLY6        0.0000 
     16 OG         13.6378   35.4579   32.7147 O.2       1 SER1        0.0000 
     17 O          12.7809   36.6827   32.5895 O.2       2 ALA2        0.0000 
     18 N          11.9240   37.9074   32.4643 N.2       2 ALA2        0.0000 
     19 CA         11.0670   39.1322   32.3391 C.3       5 GLY6        0.0000 
     20 O          14.1225   32.1487   32.9680 O.2       2 ALA2        0.0000 
     21 OG         13.2656   33.3735   32.8428 O.2       1 SER1        0.0000 
     22 DU         12.4086   34.5982   32.7176 H         6 CUB7        0.0000 
     23 DU         11.5517   35.8230   32.5924 H         6 CUB7        0.0000 
     24 DU         10.6948   37.0477   32.4672 H         6 CUB7        0.0000 
     25 DU          9.8379   38.2725   32.3420 H         6 CUB7        0.0000 
     26 O          13.7502   30.0642   33.0961 O.2       2 ALA2        0.0000 
     27 NZ         12.0364   32.5137   32.8457 N.2       4 LYS4        0.0000 
     28 NZ         11.1795   33.7385   32.7205 N.2       4 LYS4        0.0000 
     29 O          10.3225   34.9632   32.5953 O.2       2 ALA2        0.0000 
     30 O           9.4656   36.1880   32.4701 O.2       2 ALA2        0.0000 
     31 N           8.6087   37.4127   32.3449 N.2       2 ALA2        0.0000 
     32 NZ         12.5211   29.2045   33.0990 N.2       4 LYS4        0.0000 
     33 NZ         11.6641   30.4293   32.9738 N.2       4 LYS4        0.0000 
     34 NZ          9.9503   32.8788   32.7234 N.2       4 LYS4        0.0000 
     35 CA         15.1699   38.5064   34.0784 C.3       5 GLY6        0.0000 
     36 CA         14.3129   39.7311   33.9532 C.3       5 GLY6        0.0000 
     37 CA         18.2253   31.5229   34.7073 C.3       5 GLY6        0.0000 
     38 OG         17.3684   32.7477   34.5821 O.2       1 SER1        0.0000 
     39 CA         13.9407   37.6467   34.0813 C.3       5 GLY6        0.0000 
     40 CA         13.0838   38.8714   33.9561 C.3       5 GLY6        0.0000 
     41 O          16.9961   30.6632   34.7102 O.2       2 ALA2        0.0000 
     42 OG         16.1392   31.8880   34.5850 O.2       1 SER1        0.0000 
     43 OG         15.2823   33.1127   34.4598 O.2       1 SER1        0.0000 
     44 OG         14.4254   34.3374   34.3346 O.2       1 SER1        0.0000 
     45 CA         13.5684   35.5622   34.2094 C.3       5 GLY6        0.0000 
     46 DU         12.7115   36.7869   34.0842 H         6 CUB7        0.0000 
     47 CA         11.8546   38.0117   33.9590 C.3       5 GLY6        0.0000 
     48 CA         10.9977   39.2364   33.8338 C.3       5 GLY6        0.0000 
     49 O          14.9100   31.0282   34.5880 O.2       2 ALA2        0.0000 
     50 DU         14.0531   32.2530   34.4628 H         6 CUB7        0.0000 
     51 DU         13.1962   33.4777   34.3376 H         6 CUB7        0.0000 
     52 DU         12.3393   34.7025   34.2124 H         6 CUB7        0.0000 
     53 O          11.4823   35.9272   34.0872 O.2       2 ALA2        0.0000 
     54 DU         10.6254   37.1520   33.9620 H         6 CUB7        0.0000 
     55 DU          9.7685   38.3767   33.8368 H         6 CUB7        0.0000 
     56 NZ         13.6809   30.1685   34.5909 N.2       4 LYS4        0.0000 
     57 DU         12.8239   31.3933   34.4657 H         6 CUB7        0.0000 
     58 DU         11.9670   32.6180   34.3405 H         6 CUB7        0.0000 
     59 O          11.1101   33.8428   34.2153 O.2       2 ALA2        0.0000 
     60 O          10.2532   35.0675   34.0901 O.2       2 ALA2        0.0000 
     61 O           9.3962   36.2922   33.9649 O.2       2 ALA2        0.0000 
     62 N           8.5393   37.5170   33.8397 N.2       2 ALA2        0.0000 
     63 NZ         11.5948   30.5335   34.4686 N.2       4 LYS4        0.0000 
     64 NZ         10.7378   31.7583   34.3434 N.2       4 LYS4        0.0000 
     65 O           9.8809   32.9830   34.2182 O.2       2 ALA2        0.0000 
     66 CA          9.0240   34.2078   34.0930 C.3       5 GLY6        0.0000 
     67 NZ          9.5087   30.8986   34.3463 N.2       4 LYS4        0.0000 
     68 CA          8.6517   32.1233   34.2211 C.3       5 GLY6        0.0000 
     69 CA         17.6713   34.9364   35.9488 C.3       5 GLY6        0.0000 
     70 CA         15.9574   37.3859   35.6984 C.3       5 GLY6        0.0000 
     71 OG         17.2990   32.8519   36.0769 O.2       1 SER1        0.0000 
     72 OG         16.4421   34.0767   35.9517 O.2       1 SER1        0.0000 
     73 CA         15.5852   35.3014   35.8265 C.3       5 GLY6        0.0000 
     74 CA         14.7282   36.5262   35.7013 C.3       5 GLY6        0.0000 
     75 CA         13.8713   37.7509   35.5761 C.3       5 GLY6        0.0000 
     76 DU         16.0698   31.9922   36.0798 H         6 CUB7        0.0000 
     77 OG         15.2129   33.2170   35.9546 O.2       1 SER1        0.0000 
     78 OG         14.3560   34.4417   35.8294 O.2       1 SER1        0.0000 
     79 OG         12.6421   36.8912   35.5790 O.2       1 SER1        0.0000 
     80 CA         11.7852   38.1160   35.4538 C.3       5 GLY6        0.0000 
     81 DU         13.9837   32.3572   35.9575 H         6 CUB7        0.0000 
     82 OG         13.1268   33.5820   35.8323 O.2       1 SER1        0.0000 
     83 OD1        12.2699   34.8067   35.7071 O.3       3 ASP3        0.0000 
     84 CA         10.5560   37.2562   35.4567 C.3       5 GLY6        0.0000 
     85 O          12.7546   31.4975   35.9604 O.2       2 ALA2        0.0000 
     86 O          11.8976   32.7223   35.8352 O.2       2 ALA2        0.0000 
     87 NZ         11.5254   30.6378   35.9634 N.2       4 LYS4        0.0000 
     88 O          10.6685   31.8625   35.8382 O.2       2 ALA2        0.0000 
@<TRIPOS>BOND
@<TRIPOS>SUBSTRUCTURE
     1 SER1       16 GROUP   
     2 ALA2        2 GROUP   
     3 ASP3       83 GROUP   
     4 LYS4        8 GROUP   
     5 GLY6       15 GROUP   
     6 CUB7        1 GROUP   
@<TRIPOS>SET

