#    Name: 3jtf_AMP_1_INTS_M
#    Modification time : Tue Mar 25 17:55:20 2014

@<TRIPOS>MOLECULE
3jtf_AMP_1_INTS_M
   59     0     9     0     0
SMALL
NO_CHARGES


@<TRIPOS>ATOM
      1 N          15.8020   35.8275   31.1415 N.am      2 SEC2        0.0000 
      2 N          15.1050   34.3550   30.7420 N.am      8 SEL2        0.0000 
      3 N          16.4990   37.3000   31.5410 N.am      5 SEP2        0.0000 
      4 N          15.9490   34.6005   31.9250 N.am      2 SEC2        0.0000 
      5 N          16.7930   34.8460   33.1080 N.am      5 SEP2        0.0000 
      6 N          15.5245   32.6945   30.8705 N.am      2 SEC2        0.0000 
      7 N          15.9440   31.0340   30.9990 N.am      5 SEP2        0.0000 
      8 N          13.9225   36.3105   28.4050 N.am      2 SEC2        0.0000 
      9 N          13.4070   35.8760   29.5390 N.am      8 SEL2        0.0000 
     10 N          14.4380   36.7450   27.2710 N.am      5 SEP2        0.0000 
     11 N          13.2650   29.1980   27.8455 N.am      2 SEC2        0.0000 
     12 N          12.5260   30.2410   27.6950 N.am      8 SEL2        0.0000 
     13 N          14.0040   28.1550   27.9960 N.am      5 SEP2        0.0000 
     14 O          11.0130   30.5535   28.3495 O.2       1 ALC1        0.0000 
     15 O          12.5260   30.2410   27.6950 O.2       7 ALL1        0.0000 
     16 O           9.5000   30.8660   29.0040 O.2       4 ALP1        0.0000 
     17 N          13.2785   29.4390   24.9920 N.am      2 SEC2        0.0000 
     18 N          12.8540   30.8600   25.0420 N.am      8 SEL2        0.0000 
     19 N          13.7030   28.0180   24.9420 N.am      5 SEP2        0.0000 
     20 O          12.2060   29.6660   25.0465 O.2       1 ALC1        0.0000 
     21 O          12.8540   30.8600   25.0420 O.2       7 ALL1        0.0000 
     22 O          11.5580   28.4720   25.0510 O.2       4 ALP1        0.0000 
     23 CA         18.2530   37.5845   24.3655 C.3       3 GLC5        0.0000 
     24 CA         17.9790   35.7280   25.0900 C.3       9 GLL5        0.0000 
     25 CA         18.5270   39.4410   23.6410 C.3       6 GLP5        0.0000 
     26 CA         16.6765   37.0120   25.5675 C.3       3 GLC5        0.0000 
     27 CA         15.3740   38.2960   26.0450 C.3       6 GLP5        0.0000 
     28 CA         20.1935   35.4155   25.2770 C.3       3 GLC5        0.0000 
     29 CA         22.4080   35.1030   25.4640 C.3       6 GLP5        0.0000 
     30 O          20.0640   37.1425   24.8925 O.2       1 ALC1        0.0000 
     31 O          19.0980   36.2570   25.6400 O.2       7 ALL1        0.0000 
     32 O          21.0300   38.0280   24.1450 O.2       4 ALP1        0.0000 
     33 O          19.3845   36.1460   27.0745 O.2       1 ALC1        0.0000 
     34 O          19.6710   36.0350   28.5090 O.2       4 ALP1        0.0000 
     35 N          18.2940   36.8075   22.9370 N.am      2 SEC2        0.0000 
     36 N          17.6500   36.0160   23.8060 N.am      8 SEL2        0.0000 
     37 N          18.9380   37.5990   22.0680 N.am      5 SEP2        0.0000 
     38 CA         15.9320   34.1250   21.9185 C.3       3 GLC5        0.0000 
     39 CA         16.5220   35.5240   23.2230 C.3       9 GLL5        0.0000 
     40 CA         15.3420   32.7260   20.6140 C.3       6 GLP5        0.0000 
     41 CA         17.6100   35.6865   21.7890 C.3       3 GLC5        0.0000 
     42 CA         18.6980   35.8490   20.3550 C.3       6 GLP5        0.0000 
     43 CA         17.5245   37.4825   23.4320 C.3       3 GLC5        0.0000 
     44 CA         15.9480   36.9100   24.6340 C.3       3 GLC5        0.0000 
     45 CA         18.0535   33.9620   23.4565 C.3       3 GLC5        0.0000 
     46 CA         19.5850   32.4000   23.6900 C.3       6 GLP5        0.0000 
     47 CA         16.7460   32.5900   24.6425 C.3       3 GLC5        0.0000 
     48 CA         15.8740   34.3110   25.1280 C.3       9 GLL5        0.0000 
     49 CA         17.6180   30.8690   24.1570 C.3       6 GLP5        0.0000 
     50 CA         14.8428   30.3607   27.3137 C.3       3 GLC5        0.0000 
     51 CA         13.8080   31.4230   25.9450 C.3       9 GLL5        0.0000 
     52 CA         16.1780   29.2840   27.9880 C.3       6 GLP5        0.0000 
     53 CA         14.0475   31.5667   23.9140 C.3       3 GLC5        0.0000 
     54 CA         14.2190   30.9790   22.0740 C.3       6 GLP5        0.0000 
     55 CA         15.7470   31.5117   24.9555 C.3       3 GLC5        0.0000 
     56 CA         15.9402   36.1445   26.3828 C.3       3 GLC5        0.0000 
     57 CA         15.4110   37.7250   27.2690 C.3       6 GLP5        0.0000 
     58 CA         18.5535   33.8362   24.5838 C.3       3 GLC5        0.0000 
     59 CA         17.0650   34.8170   25.8650 C.3       9 GLL5        0.0000 
@<TRIPOS>BOND
@<TRIPOS>SUBSTRUCTURE
     1 ALC1       14 GROUP        1 X    ALC  0     ROOT ALC X 1
     2 SEC2        1 GROUP        1 X    SEC  0     **** SEC X 2
     3 GLC5       23 GROUP        1 X    GLC  0     **** GLC X 6
     4 ALP1       16 GROUP        1 Y    ALP  0     ROOT ALP Y 8
     5 SEP2        3 GROUP        1 Y    SEP  0     **** SEP Y 9
     6 GLP5       25 GROUP        1 Y    GLP  0     **** GLP Y 13
     7 ALL1       15 GROUP        1 Z    ALL  0     ROOT ALL Z 15
     8 SEL2        2 GROUP        1 Z    SEL  0     **** SEL Z 16
     9 GLL5       24 GROUP        1 Z    GLL  0     **** GLL Z 20
@<TRIPOS>SET

