#    Name: 3jtf_AMP_1_ligand
#    Modification time : Tue Mar 25 17:55:20 2014

@<TRIPOS>MOLECULE
3jtf_AMP_1_ligand
   35    37     1     0     0
SMALL
NO_CHARGES


@<TRIPOS>ATOM
      1 P          13.6760   34.6150   30.3270 P.3       1 AMP1        0.0000 
      2 O1P        15.1050   34.3550   30.7420 O.co2     1 AMP1        0.0000 
      3 O2P        12.6450   34.3780   31.4170 O.co2     1 AMP1        0.0000 
      4 O3P        13.4070   35.8760   29.5390 O.co2     1 AMP1        0.0000 
      5 O5'        13.3510   33.4120   29.3100 O.3       1 AMP1        0.0000 
      6 C5'        12.1230   33.3880   28.5670 C.3       1 AMP1        0.0000 
      7 C4'        12.2950   32.6760   27.2310 C.3       1 AMP1        0.0000 
      8 O4'        12.8850   33.5670   26.2560 O.3       1 AMP1        0.0000 
      9 C3'        13.2070   31.4520   27.3340 C.3       1 AMP1        0.0000 
     10 O3'        12.5260   30.2410   27.6950 O.3       1 AMP1        0.0000 
     11 C2'        13.8080   31.4230   25.9450 C.3       1 AMP1        0.0000 
     12 O2'        12.8540   30.8600   25.0420 O.3       1 AMP1        0.0000 
     13 C1'        13.9440   32.8860   25.5630 C.3       1 AMP1        0.0000 
     14 N9         15.2210   33.5180   25.9630 N.pl3     1 AMP1        0.0000 
     15 C8         15.8790   33.4940   27.1590 C.2       1 AMP1        0.0000 
     16 N7         17.0030   34.2650   27.1080 N.2       1 AMP1        0.0000 
     17 C5         17.0650   34.8170   25.8650 C.ar      1 AMP1        0.0000 
     18 C6         17.9790   35.7280   25.0900 C.ar      1 AMP1        0.0000 
     19 N6         19.0980   36.2570   25.6400 N.pl3     1 AMP1        0.0000 
     20 N1         17.6500   36.0160   23.8060 N.ar      1 AMP1        0.0000 
     21 C2         16.5220   35.5240   23.2230 C.ar      1 AMP1        0.0000 
     22 N3         15.6440   34.7120   23.8490 N.ar      1 AMP1        0.0000 
     23 C4         15.8740   34.3110   25.1280 C.ar      1 AMP1        0.0000 
     24 H          11.7589   34.4081   28.3609 H         1 AMP1        0.0000 
     25 H          11.3264   32.8691   29.1254 H         1 AMP1        0.0000 
     26 H          11.3264   32.3401   26.8847 H         1 AMP1        0.0000 
     27 H          14.0023   31.7163   28.0164 H         1 AMP1        0.0000 
     28 H          14.7252   30.9672   25.9463 H         1 AMP1        0.0000 
     29 H          13.7931   32.9804   24.5016 H         1 AMP1        0.0000 
     30 H          15.5849   32.9937   27.9424 H         1 AMP1        0.0000 
     31 H          19.6546   36.8308   25.0392 H         1 AMP1        0.0000 
     32 H          19.2684   36.0269   26.5981 H         1 AMP1        0.0000 
     33 H          16.3249   35.7994   22.2115 H         1 AMP1        0.0000 
     34 H          11.9192   30.4997   28.4466 H         1 AMP1        0.0000 
     35 H          12.2380   30.3228   25.6182 H         1 AMP1        0.0000 
@<TRIPOS>BOND
     1    2    1 ar   
     2    3    1 ar   
     3    4    1 ar   
     4    5    1 1    
     5    6    5 1    
     6    7    6 1    
     7   24    6 1    
     8   25    6 1    
     9    8    7 1    
    10    9    7 1    
    11   26    7 1    
    12   13    8 1    
    13   10    9 1    
    14   11    9 1    
    15   27    9 1    
    16   34   10 1    
    17   12   11 1    
    18   13   11 1    
    19   28   11 1    
    20   35   12 1    
    21   14   13 1    
    22   29   13 1    
    23   15   14 1    
    24   23   14 1    
    25   16   15 2    
    26   30   15 1    
    27   17   16 1    
    28   18   17 ar   
    29   23   17 ar   
    30   19   18 1    
    31   20   18 ar   
    32   31   19 1    
    33   32   19 1    
    34   21   20 ar   
    35   22   21 ar   
    36   33   21 1    
    37   23   22 ar   
@<TRIPOS>SUBSTRUCTURE
     1 AMP1        1 GROUP   
@<TRIPOS>SET

