#    Name: 3v04_V04_1_INTS_M
#    Modification time : Mon Mar 24 23:49:00 2014

@<TRIPOS>MOLECULE
3v04_V04_1_INTS_M
   69     0     9     0     0
SMALL
NO_CHARGES


@<TRIPOS>ATOM
      1 CA         31.1355  -28.3220  -24.3130 C.3       3 GLC5        0.0000 
      2 CA         32.7170  -27.6600  -24.6100 C.3       9 GLL5        0.0000 
      3 CA         29.5540  -28.9840  -24.0160 C.3       6 GLP5        0.0000 
      4 CA         33.4010  -29.2015  -23.9865 C.3       3 GLC5        0.0000 
      5 CA         34.0850  -30.7430  -23.3630 C.3       6 GLP5        0.0000 
      6 CA         31.8650  -26.3025  -23.5190 C.3       3 GLC5        0.0000 
      7 CA         31.0130  -24.9450  -22.4280 C.3       6 GLP5        0.0000 
      8 CA         38.2610  -25.2165  -25.3480 C.3       3 GLC5        0.0000 
      9 CA         36.5400  -23.9500  -24.9430 C.3       9 GLL5        0.0000 
     10 CA         39.9820  -26.4830  -25.7530 C.3       6 GLP5        0.0000 
     11 CA         35.8155  -22.0325  -24.8725 C.3       3 GLC5        0.0000 
     12 CA         35.0910  -20.1150  -24.8020 C.3       6 GLP5        0.0000 
     13 CA         37.6475  -24.0380  -26.5650 C.3       3 GLC5        0.0000 
     14 CA         38.7550  -24.1260  -28.1870 C.3       6 GLP5        0.0000 
     15 O          37.2575  -33.3375  -29.6370 O.2       1 ALC1        0.0000 
     16 O          36.1290  -32.1190  -29.2060 O.2       7 ALL1        0.0000 
     17 O          38.3860  -34.5560  -30.0680 O.2       4 ALP1        0.0000 
     18 N          29.8275  -28.5770  -26.4530 N.am      2 SEC2        0.0000 
     19 N          30.8730  -29.4420  -26.9000 N.am      8 SEL2        0.0000 
     20 N          28.7820  -27.7120  -26.0060 N.am      5 SEP2        0.0000 
     21 N          38.0630  -30.8450  -29.2940 N.am      2 SEC2        0.0000 
     22 N          36.9640  -31.4880  -28.2650 N.am      8 SEL2        0.0000 
     23 N          39.1620  -30.2020  -30.3230 N.am      5 SEP2        0.0000 
     24 N          38.5290  -32.0495  -28.5120 N.am      2 SEC2        0.0000 
     25 N          40.0940  -32.6110  -28.7590 N.am      5 SEP2        0.0000 
     26 N          28.8915  -28.5185  -27.4065 N.am      2 SEC2        0.0000 
     27 N          29.0010  -29.3250  -28.8070 N.am      8 SEL2        0.0000 
     28 CA         34.6000  -33.1355  -31.3270 C.3       3 GLC5        0.0000 
     29 CA         33.6900  -31.9910  -29.7330 C.3       9 GLL5        0.0000 
     30 CA         35.5100  -34.2800  -32.9210 C.3       6 GLP5        0.0000 
     31 N          25.4980  -31.6215  -26.1660 N.am      2 SEC2        0.0000 
     32 N          26.0370  -30.6700  -27.2750 N.am      8 SEL2        0.0000 
     33 N          24.9590  -32.5730  -25.0570 N.am      5 SEP2        0.0000 
     34 O          25.5940  -29.2590  -26.5785 O.2       1 ALC1        0.0000 
     35 O          26.0370  -30.6700  -27.2750 O.2       7 ALL1        0.0000 
     36 O          25.1510  -27.8480  -25.8820 O.2       4 ALP1        0.0000 
     37 CA         33.8725  -30.4215  -25.5095 C.3       3 GLC5        0.0000 
     38 CA         33.6600  -30.1000  -27.6560 C.3       9 GLL5        0.0000 
     39 CA         36.1525  -30.9245  -30.5515 C.3       3 GLC5        0.0000 
     40 CA         34.8580  -31.6720  -29.0590 C.3       9 GLL5        0.0000 
     41 CA         37.4470  -30.1770  -32.0440 C.3       6 GLP5        0.0000 
     42 CA         34.1880  -29.4015  -24.8525 C.3       3 GLC5        0.0000 
     43 CA         34.2910  -28.0600  -26.3420 C.3       9 GLL5        0.0000 
     44 CA         38.0415  -26.4755  -26.1890 C.3       3 GLC5        0.0000 
     45 CA         36.1010  -26.4680  -26.6250 C.3       9 GLL5        0.0000 
     46 CA         37.2300  -26.7790  -24.7790 C.3       3 GLC5        0.0000 
     47 CA         35.6100  -25.7130  -25.5640 C.3       9 GLL5        0.0000 
     48 CA         38.8500  -27.8450  -23.9940 C.3       6 GLP5        0.0000 
     49 CA         33.4340  -24.9905  -23.7780 C.3       3 GLC5        0.0000 
     50 CA         34.4720  -26.1250  -24.8960 C.3       9 GLL5        0.0000 
     51 CA         32.3960  -23.8560  -22.6600 C.3       6 GLP5        0.0000 
     52 CA         27.9485  -29.2375  -25.9425 C.3       3 GLC5        0.0000 
     53 CA         27.4320  -30.3790  -27.2900 C.3       9 GLL5        0.0000 
     54 CA         28.4650  -28.0960  -24.5950 C.3       6 GLP5        0.0000 
     55 CA         33.0157  -28.2870  -28.5463 C.3       3 GLC5        0.0000 
     56 CA         32.4830  -30.4420  -28.3370 C.3       9 GLL5        0.0000 
     57 CA         32.9600  -26.3030  -29.0960 C.3       6 GLP5        0.0000 
     58 CA         33.4825  -32.3907  -27.5410 C.3       3 GLC5        0.0000 
     59 CA         34.4710  -33.8720  -26.2290 C.3       6 GLP5        0.0000 
     60 CA         34.3725  -32.8517  -27.8125 C.3       3 GLC5        0.0000 
     61 CA         32.0790  -32.9186  -28.5330 C.3       3 GLC5        0.0000 
     62 CA         31.0660  -34.3870  -27.7730 C.3       6 GLP5        0.0000 
     63 CA         34.3650  -32.1480  -27.0330 C.3       3 GLC5        0.0000 
     64 CA         33.9138  -27.0750  -27.8865 C.3       3 GLC5        0.0000 
     65 CA         34.4078  -26.1968  -27.5953 C.3       3 GLC5        0.0000 
     66 CA         34.4520  -27.4707  -23.3537 C.3       3 GLC5        0.0000 
     67 CA         33.8200  -27.2880  -25.2830 C.3       9 GLL5        0.0000 
     68 CA         34.7580  -28.2350  -21.6180 C.3       6 GLP5        0.0000 
     69 CA         33.5530  -26.5048  -27.0928 C.3       3 GLC5        0.0000 
@<TRIPOS>BOND
@<TRIPOS>SUBSTRUCTURE
     1 ALC1       15 GROUP        1 X    ALC  0     ROOT ALC X 1
     2 SEC2       18 GROUP        1 X    SEC  0     **** SEC X 2
     3 GLC5        1 GROUP        1 X    GLC  0     **** GLC X 6
     4 ALP1       17 GROUP        1 Y    ALP  0     ROOT ALP Y 8
     5 SEP2       20 GROUP        1 Y    SEP  0     **** SEP Y 9
     6 GLP5        3 GROUP        1 Y    GLP  0     **** GLP Y 13
     7 ALL1       16 GROUP        1 Z    ALL  0     ROOT ALL Z 15
     8 SEL2       19 GROUP        1 Z    SEL  0     **** SEL Z 16
     9 GLL5        2 GROUP        1 Z    GLL  0     **** GLL Z 20
@<TRIPOS>SET

