#    Name: 3v04_V04_1_ligand
#    Modification time : Mon Mar 24 23:49:00 2014

@<TRIPOS>MOLECULE
3v04_V04_1_ligand
   39    41     1     0     0
SMALL
NO_CHARGES


@<TRIPOS>ATOM
      1 C1         32.4830  -30.4420  -28.3370 C.ar      1 V04501      0.0000 
      2 F1         32.7170  -27.6600  -24.6100 F         1 V04501      0.0000 
      3 I1         36.5400  -23.9500  -24.9430 I         1 V04501      0.0000 
      4 N1         36.1290  -32.1190  -29.2060 N.pl3     1 V04501      0.0000 
      5 O1         30.8730  -29.4420  -26.9000 O.2       1 V04501      0.0000 
      6 C2         32.5050  -31.3770  -29.3690 C.ar      1 V04501      0.0000 
      7 N2         36.9640  -31.4880  -28.2650 N.2       1 V04501      0.0000 
      8 O2         29.0010  -29.3250  -28.8070 O.3       1 V04501      0.0000 
      9 C3         33.6900  -31.9910  -29.7330 C.ar      1 V04501      0.0000 
     10 N3         33.5820  -29.1950  -26.6320 N.pl3     1 V04501      0.0000 
     11 O3         26.0370  -30.6700  -27.2750 O.3       1 V04501      0.0000 
     12 C4         33.6600  -30.1000  -27.6560 C.ar      1 V04501      0.0000 
     13 N4         30.2480  -29.8200  -29.0050 N.am      1 V04501      0.0000 
     14 C5         34.8580  -30.7480  -28.0180 C.ar      1 V04501      0.0000 
     15 C6         34.8580  -31.6720  -29.0590 C.ar      1 V04501      0.0000 
     16 C7         36.1990  -30.6420  -27.5450 C.2       1 V04501      0.0000 
     17 C8         34.2910  -28.0600  -26.3420 C.ar      1 V04501      0.0000 
     18 C9         35.4440  -27.6340  -27.0120 C.ar      1 V04501      0.0000 
     19 C10        36.1010  -26.4680  -26.6250 C.ar      1 V04501      0.0000 
     20 C11        35.6100  -25.7130  -25.5640 C.ar      1 V04501      0.0000 
     21 C12        34.4720  -26.1250  -24.8960 C.ar      1 V04501      0.0000 
     22 C13        33.8200  -27.2880  -25.2830 C.ar      1 V04501      0.0000 
     23 C14        31.1400  -29.8480  -28.0210 C.2       1 V04501      0.0000 
     24 C15        27.9030  -30.2400  -28.7340 C.3       1 V04501      0.0000 
     25 C16        27.4320  -30.3790  -27.2900 C.3       1 V04501      0.0000 
     26 H          36.4415  -32.7660  -29.8449 H         1 V04501      0.0000 
     27 H          31.6293  -31.6105  -29.8629 H         1 V04501      0.0000 
     28 H          33.7051  -32.6775  -30.4961 H         1 V04501      0.0000 
     29 H          32.7776  -29.4296  -25.8813 H         1 V04501      0.0000 
     30 H          30.5014  -30.1852  -29.9586 H         1 V04501      0.0000 
     31 H          36.4628  -30.0621  -26.8415 H         1 V04501      0.0000 
     32 H          35.8083  -28.1909  -27.7995 H         1 V04501      0.0000 
     33 H          36.9474  -26.1662  -27.1230 H         1 V04501      0.0000 
     34 H          34.1049  -25.5697  -24.1090 H         1 V04501      0.0000 
     35 H          28.1838  -31.2381  -29.0935 H         1 V04501      0.0000 
     36 H          27.0505  -29.8973  -29.3341 H         1 V04501      0.0000 
     37 H          28.0196  -31.1752  -26.8212 H         1 V04501      0.0000 
     38 H          27.6584  -29.4411  -26.7721 H         1 V04501      0.0000 
     39 H          25.6116  -29.8754  -26.8418 H         1 V04501      0.0000 
@<TRIPOS>BOND
     1    6    1 ar   
     2   12    1 ar   
     3   23    1 1    
     4   22    2 1    
     5   20    3 1    
     6    7    4 1    
     7   15    4 1    
     8   26    4 1    
     9   23    5 2    
    10    9    6 ar   
    11   27    6 1    
    12   16    7 2    
    13   13    8 1    
    14   24    8 1    
    15   15    9 ar   
    16   28    9 1    
    17   12   10 1    
    18   17   10 1    
    19   29   10 1    
    20   25   11 1    
    21   39   11 1    
    22   14   12 ar   
    23   23   13 am   
    24   30   13 1    
    25   15   14 ar   
    26   16   14 1    
    27   31   16 1    
    28   18   17 ar   
    29   22   17 ar   
    30   19   18 ar   
    31   32   18 1    
    32   20   19 ar   
    33   33   19 1    
    34   21   20 ar   
    35   22   21 ar   
    36   34   21 1    
    37   25   24 1    
    38   35   24 1    
    39   36   24 1    
    40   37   25 1    
    41   38   25 1    
@<TRIPOS>SUBSTRUCTURE
     1 V04501      1 GROUP   
@<TRIPOS>SET

