#    Name: 2rkf_AB1_1_INTS_M
#    Modification time : Tue Mar 25 00:02:05 2014

@<TRIPOS>MOLECULE
2rkf_AB1_1_INTS_M
   90     0     9     0     0
SMALL
NO_CHARGES


@<TRIPOS>ATOM
      1 CA        -15.3770   -6.8555    0.4505 C.3       3 GLC5        0.0000 
      2 CA        -17.0560   -5.4630    0.9210 C.3       9 GLL5        0.0000 
      3 CA        -13.6980   -8.2480   -0.0200 C.3       6 GLP5        0.0000 
      4 CA        -14.7600   -5.6965   -0.1355 C.3       3 GLC5        0.0000 
      5 CA        -16.4400   -4.3710    0.2990 C.3       9 GLL5        0.0000 
      6 CA        -13.0800   -7.0220   -0.5700 C.3       6 GLP5        0.0000 
      7 N         -21.0380    3.0540   -6.4505 N.am      2 SEC2        0.0000 
      8 N         -19.9970    3.5830   -5.7040 N.am      8 SEL2        0.0000 
      9 N         -22.0790    2.5250   -7.1970 N.am      5 SEP2        0.0000 
     10 CA        -20.3190    1.3885   -5.0075 C.3       3 GLC5        0.0000 
     11 CA        -18.3980    1.5650   -4.8670 C.3       9 GLL5        0.0000 
     12 CA        -22.2400    1.2120   -5.1480 C.3       6 GLP5        0.0000 
     13 O         -20.2640    2.6170   -2.8415 O.2       1 ALC1        0.0000 
     14 O         -18.8130    2.1500   -2.5770 O.2       7 ALL1        0.0000 
     15 O         -21.7150    3.0840   -3.1060 O.2       4 ALP1        0.0000 
     16 CA        -18.6950   -2.7275   -4.1465 C.3       3 GLC5        0.0000 
     17 CA        -18.4320   -0.9790   -4.7940 C.3       9 GLL5        0.0000 
     18 CA        -18.9580   -4.4760   -3.4990 C.3       6 GLP5        0.0000 
     19 CA        -19.3195    0.1260   -8.9615 C.3       3 GLC5        0.0000 
     20 CA        -18.6980    0.1640   -6.9740 C.3       9 GLL5        0.0000 
     21 CA        -19.9410    0.0880  -10.9490 C.3       6 GLP5        0.0000 
     22 CA        -14.8345    7.2730   -1.9635 C.3       3 GLC5        0.0000 
     23 CA        -16.0990    6.3700   -3.3590 C.3       9 GLL5        0.0000 
     24 CA        -13.5700    8.1760   -0.5680 C.3       6 GLP5        0.0000 
     25 CA        -20.5520    4.8825   -0.9045 C.3       3 GLC5        0.0000 
     26 CA        -18.5840    3.8520   -0.8770 C.3       9 GLL5        0.0000 
     27 CA        -22.5200    5.9130   -0.9320 C.3       6 GLP5        0.0000 
     28 CA        -18.7335    4.1835    1.0235 C.3       3 GLC5        0.0000 
     29 CA        -18.8830    4.5150    2.9240 C.3       6 GLP5        0.0000 
     30 CA        -19.2665    3.1160    1.2830 C.3       3 GLC5        0.0000 
     31 CA        -19.6500    1.7170   -0.3580 C.3       9 GLL5        0.0000 
     32 CA        -16.4925    1.5185    3.5390 C.3       3 GLC5        0.0000 
     33 CA        -17.6530   -0.2420    3.2640 C.3       9 GLL5        0.0000 
     34 CA        -15.3320    3.2790    3.8140 C.3       6 GLP5        0.0000 
     35 N         -21.6165    0.8875    0.6970 N.am      2 SEC2        0.0000 
     36 N         -21.1780   -0.0690   -0.0950 N.am      8 SEL2        0.0000 
     37 N         -22.0550    1.8440    1.4890 N.am      5 SEP2        0.0000 
     38 O         -22.4535   -0.4055   -0.7235 O.2       1 ALC1        0.0000 
     39 O         -21.1780   -0.0690   -0.0950 O.2       7 ALL1        0.0000 
     40 O         -23.7290   -0.7420   -1.3520 O.2       4 ALP1        0.0000 
     41 O         -21.6110   -0.9400   -1.1675 O.2       1 ALC1        0.0000 
     42 O         -22.0440   -1.8110   -2.2400 O.2       4 ALP1        0.0000 
     43 CA        -19.2080   -3.3270   -2.0395 C.3       3 GLC5        0.0000 
     44 CA        -19.4580   -2.1780   -0.5800 C.3       9 GLL5        0.0000 
     45 CA        -16.3940   -0.7925    8.3780 C.3       3 GLC5        0.0000 
     46 CA        -18.2590   -1.3580    7.4900 C.3       9 GLL5        0.0000 
     47 CA        -14.5290   -0.2270    9.2660 C.3       6 GLP5        0.0000 
     48 CA        -19.2145    0.3770    8.2260 C.3       3 GLC5        0.0000 
     49 CA        -18.5460    0.7650    6.2180 C.3       9 GLL5        0.0000 
     50 CA        -19.8830   -0.0110   10.2340 C.3       6 GLP5        0.0000 
     51 CA        -14.0395    3.7060   -6.1550 C.3       3 GLC5        0.0000 
     52 CA        -16.1210    4.0900   -6.5550 C.3       9 GLL5        0.0000 
     53 CA        -11.9580    3.3220   -5.7550 C.3       6 GLP5        0.0000 
     54 CA        -20.6915   -5.3827    0.5537 C.3       3 GLC5        0.0000 
     55 CA        -19.2050   -4.4150    0.5570 C.3       9 GLL5        0.0000 
     56 CA        -22.5570   -5.8170    0.3070 C.3       6 GLP5        0.0000 
     57 CA        -18.1560   -6.8054   -0.0681 C.3       3 GLC5        0.0000 
     58 CA        -18.3710   -8.4050   -0.9970 C.3       6 GLP5        0.0000 
     59 CA        -15.1288   -2.8858    0.8535 C.3       3 GLC5        0.0000 
     60 CA        -13.4360   -1.9320    1.6510 C.3       6 GLP5        0.0000 
     61 CA        -16.5710   -3.5509   -1.8109 C.3       3 GLC5        0.0000 
     62 CA        -15.9730   -3.2590   -3.7100 C.3       6 GLP5        0.0000 
     63 CA        -18.5045   -4.0320   -1.7339 C.3       3 GLC5        0.0000 
     64 CA        -17.2030   -3.3080   -0.1870 C.3       9 GLL5        0.0000 
     65 CA        -17.1043   -1.8110   -4.4533 C.3       3 GLC5        0.0000 
     66 CA        -20.2769   -0.2103   -5.6471 C.3       3 GLC5        0.0000 
     67 CA        -22.0870   -0.3210   -5.2090 C.3       6 GLP5        0.0000 
     68 CA        -17.4904   -1.5132   -6.7621 C.3       3 GLC5        0.0000 
     69 CA        -16.5140   -2.9270   -7.4390 C.3       6 GLP5        0.0000 
     70 CA        -14.6930    5.9543   -1.0093 C.3       3 GLC5        0.0000 
     71 CA        -16.3150    4.6840   -1.6270 C.3       9 GLL5        0.0000 
     72 CA        -13.4660    6.8140    0.0100 C.3       6 GLP5        0.0000 
     73 CA        -14.6950    3.6498   -2.2577 C.3       3 GLC5        0.0000 
     74 CA        -15.5250    5.5050   -2.4300 C.3       9 GLL5        0.0000 
     75 CA        -13.4700    2.2050   -2.4870 C.3       6 GLP5        0.0000 
     76 CA        -18.1026    6.9518   -1.0486 C.3       3 GLC5        0.0000 
     77 CA        -18.2820    5.6040   -2.6710 C.3       9 GLL5        0.0000 
     78 CA        -18.4130    8.5360    0.3140 C.3       6 GLP5        0.0000 
     79 CA        -20.2858    0.1688    5.3872 C.3       3 GLC5        0.0000 
     80 CA        -18.4590   -0.7380    6.2550 C.3       9 GLL5        0.0000 
     81 CA        -22.0690    0.3240    4.5380 C.3       6 GLP5        0.0000 
     82 CA        -17.3723    1.4698    6.6817 C.3       3 GLC5        0.0000 
     83 CA        -16.2420    2.9260    7.1270 C.3       6 GLP5        0.0000 
     84 CA        -19.0767   -0.9535    8.7271 C.3       3 GLC5        0.0000 
     85 CA        -18.1820   -2.7440    7.5680 C.3       9 GLL5        0.0000 
     86 CA        -19.8816   -3.4067    7.7048 C.3       3 GLC5        0.0000 
     87 CA        -21.5040   -4.0310    8.4380 C.3       6 GLP5        0.0000 
     88 CA        -20.4001   -2.1046    4.5222 C.3       3 GLC5        0.0000 
     89 CA        -18.5830   -1.5070    5.0930 C.3       9 GLL5        0.0000 
     90 CA        -22.2240   -1.2270    4.4960 C.3       6 GLP5        0.0000 
@<TRIPOS>BOND
@<TRIPOS>SUBSTRUCTURE
     1 ALC1       13 GROUP        1 X    ALC  0     ROOT ALC X 1
     2 SEC2        7 GROUP        1 X    SEC  0     **** SEC X 2
     3 GLC5        1 GROUP        1 X    GLC  0     **** GLC X 6
     4 ALP1       15 GROUP        1 Y    ALP  0     ROOT ALP Y 8
     5 SEP2        9 GROUP        1 Y    SEP  0     **** SEP Y 9
     6 GLP5        3 GROUP        1 Y    GLP  0     **** GLP Y 13
     7 ALL1       14 GROUP        1 Z    ALL  0     ROOT ALL Z 15
     8 SEL2        8 GROUP        1 Z    SEL  0     **** SEL Z 16
     9 GLL5        2 GROUP        1 Z    GLL  0     **** GLL Z 20
@<TRIPOS>SET

