#    Name: 2rkf_AB1_1_ligand
#    Modification time : Tue Mar 25 00:02:05 2014

@<TRIPOS>MOLECULE
2rkf_AB1_1_ligand
   94    97     1     0     0
SMALL
NO_CHARGES


@<TRIPOS>ATOM
      1 C1        -17.1830    4.8640   -7.3260 C.3       1 AB1501      0.0000 
      2 C2        -16.5540    2.6760   -6.1360 C.3       1 AB1501      0.0000 
      3 N1        -17.9450    2.7180   -5.6600 N.am      1 AB1501      0.0000 
      4 C3        -18.8120    3.6970   -5.9170 C.2       1 AB1501      0.0000 
      5 N2        -18.3440    4.8060   -6.4570 N.am      1 AB1501      0.0000 
      6 C4        -18.5930   -3.3210   -0.0580 C.ar      1 AB1501      0.0000 
      7 C5        -19.2050   -4.4150    0.5570 C.ar      1 AB1501      0.0000 
      8 C6        -18.4470   -5.4820    1.0440 C.ar      1 AB1501      0.0000 
      9 C7        -17.0560   -5.4630    0.9210 C.ar      1 AB1501      0.0000 
     10 C8        -16.4400   -4.3710    0.2990 C.ar      1 AB1501      0.0000 
     11 C9        -17.2030   -3.3080   -0.1870 C.ar      1 AB1501      0.0000 
     12 O1        -19.9970    3.5830   -5.7040 O.2       1 AB1501      0.0000 
     13 C10       -18.3980    1.5650   -4.8670 C.3       1 AB1501      0.0000 
     14 C11       -17.9180    1.6610   -3.4350 C.2       1 AB1501      0.0000 
     15 N3        -18.8130    2.1500   -2.5770 N.am      1 AB1501      0.0000 
     16 C12       -18.5100    2.3450   -1.1570 C.3       1 AB1501      0.0000 
     17 C13       -18.0390    0.2530   -5.5990 C.3       1 AB1501      0.0000 
     18 C14       -18.4320   -0.9790   -4.7940 C.3       1 AB1501      0.0000 
     19 C15       -18.6980    0.1640   -6.9740 C.3       1 AB1501      0.0000 
     20 O2        -16.7890    1.3300   -3.0980 O.2       1 AB1501      0.0000 
     21 C16       -15.5250    5.5050   -2.4300 C.ar      1 AB1501      0.0000 
     22 C17       -16.0990    6.3700   -3.3590 C.ar      1 AB1501      0.0000 
     23 C18       -17.4830    6.4180   -3.4780 C.ar      1 AB1501      0.0000 
     24 C19       -18.2820    5.6040   -2.6710 C.ar      1 AB1501      0.0000 
     25 C20       -17.7020    4.7240   -1.7480 C.ar      1 AB1501      0.0000 
     26 C21       -16.3150    4.6840   -1.6270 C.ar      1 AB1501      0.0000 
     27 C22       -18.5840    3.8520   -0.8770 C.3       1 AB1501      0.0000 
     28 C23       -19.6500    1.7170   -0.3580 C.3       1 AB1501      0.0000 
     29 C24       -19.9500    0.2660   -0.7280 C.3       1 AB1501      0.0000 
     30 C25       -18.9120   -0.7750   -0.2910 C.3       1 AB1501      0.0000 
     31 N4        -18.8090   -0.6950    1.1650 N.am      1 AB1501      0.0000 
     32 C26       -17.6820   -0.2900    1.7620 C.2       1 AB1501      0.0000 
     33 C27       -17.6530   -0.2420    3.2640 C.3       1 AB1501      0.0000 
     34 O3        -18.7670   -0.9080    3.8690 O.3       1 AB1501      0.0000 
     35 C28       -18.5830   -1.5070    5.0930 C.ar      1 AB1501      0.0000 
     36 O4        -21.1780   -0.0690   -0.0950 O.3       1 AB1501      0.0000 
     37 C29       -19.4580   -2.1780   -0.5800 C.3       1 AB1501      0.0000 
     38 O5        -16.6800    0.0410    1.1530 O.2       1 AB1501      0.0000 
     39 C30       -18.4590   -0.7380    6.2550 C.ar      1 AB1501      0.0000 
     40 C31       -18.2590   -1.3580    7.4900 C.ar      1 AB1501      0.0000 
     41 C32       -18.1820   -2.7440    7.5680 C.ar      1 AB1501      0.0000 
     42 C33       -18.2980   -3.5140    6.4140 C.ar      1 AB1501      0.0000 
     43 C34       -18.4940   -2.8980    5.1810 C.ar      1 AB1501      0.0000 
     44 C35       -18.6140   -3.7620    3.9600 C.3       1 AB1501      0.0000 
     45 C36       -18.5460    0.7650    6.2180 C.3       1 AB1501      0.0000 
     46 C37       -16.1210    4.0900   -6.5550 C.3       1 AB1501      0.0000 
     47 H         -16.8430    5.8679   -7.4654 H         1 AB1501      0.0000 
     48 H         -17.3606    4.3693   -8.2569 H         1 AB1501      0.0000 
     49 H         -16.4576    2.0202   -6.9981 H         1 AB1501      0.0000 
     50 H         -15.8845    2.3329   -5.3508 H         1 AB1501      0.0000 
     51 H         -18.8087    5.7431   -6.2770 H         1 AB1501      0.0000 
     52 H         -20.2334   -4.4355    0.6532 H         1 AB1501      0.0000 
     53 H         -18.9118   -6.2796    1.4920 H         1 AB1501      0.0000 
     54 H         -16.4942   -6.2354    1.2799 H         1 AB1501      0.0000 
     55 H         -15.4151   -4.3531    0.1998 H         1 AB1501      0.0000 
     56 H         -16.7387   -2.5109   -0.6426 H         1 AB1501      0.0000 
     57 H         -19.5195    1.6060   -4.8434 H         1 AB1501      0.0000 
     58 H         -19.7768    2.4197   -2.8715 H         1 AB1501      0.0000 
     59 H         -17.6048    1.9646   -0.8704 H         1 AB1501      0.0000 
     60 H         -16.9576    0.2278   -5.7452 H         1 AB1501      0.0000 
     61 H         -14.4950    5.4711   -2.3342 H         1 AB1501      0.0000 
     62 H         -15.5074    6.9626   -3.9463 H         1 AB1501      0.0000 
     63 H         -17.9215    7.0507   -4.1581 H         1 AB1501      0.0000 
     64 H         -19.3076    5.6501   -2.7542 H         1 AB1501      0.0000 
     65 H         -15.8754    4.0519   -0.9486 H         1 AB1501      0.0000 
     66 H         -18.3246    4.0228    0.1890 H         1 AB1501      0.0000 
     67 H         -19.6398    4.1770   -0.9885 H         1 AB1501      0.0000 
     68 H         -20.5632    2.3193   -0.5046 H         1 AB1501      0.0000 
     69 H         -19.4036    1.7681    0.7167 H         1 AB1501      0.0000 
     70 H         -20.0704    0.2022   -1.8044 H         1 AB1501      0.0000 
     71 H         -18.0110   -0.6278   -0.7632 H         1 AB1501      0.0000 
     72 H         -19.6544   -0.9687    1.6979 H         1 AB1501      0.0000 
     73 H         -17.6139    0.8255    3.5737 H         1 AB1501      0.0000 
     74 H         -16.6926   -0.6878    3.6043 H         1 AB1501      0.0000 
     75 H         -20.4686   -2.2621   -0.1392 H         1 AB1501      0.0000 
     76 H         -19.5816   -2.2913   -1.6729 H         1 AB1501      0.0000 
     77 H         -18.1690   -0.7875    8.3398 H         1 AB1501      0.0000 
     78 H         -18.0394   -3.2012    8.4778 H         1 AB1501      0.0000 
     79 H         -18.2388   -4.5389    6.4724 H         1 AB1501      0.0000 
     80 H         -15.8463    4.6567   -5.6499 H         1 AB1501      0.0000 
     81 H         -15.2113    4.0109   -7.1729 H         1 AB1501      0.0000 
     82 H         -18.1951   -1.8254   -5.2709 H         1 AB1501      0.0000 
     83 H         -17.9727   -1.0045   -3.9061 H         1 AB1501      0.0000 
     84 H         -19.4156   -1.0082   -4.6162 H         1 AB1501      0.0000 
     85 H         -18.4133    0.9136   -7.5715 H         1 AB1501      0.0000 
     86 H         -18.4661   -0.6885   -7.4425 H         1 AB1501      0.0000 
     87 H         -19.6953    0.2019   -6.9110 H         1 AB1501      0.0000 
     88 H         -17.9074   -3.5508    3.2847 H         1 AB1501      0.0000 
     89 H         -18.5263   -4.7331    4.1821 H         1 AB1501      0.0000 
     90 H         -19.4974   -3.6436    3.5066 H         1 AB1501      0.0000 
     91 H         -18.4381    1.1658    7.1278 H         1 AB1501      0.0000 
     92 H         -17.8372    1.1638    5.6361 H         1 AB1501      0.0000 
     93 H         -19.4270    1.0774    5.8627 H         1 AB1501      0.0000 
     94 H         -21.6621   -0.6419   -0.7564 H         1 AB1501      0.0000 
@<TRIPOS>BOND
     1    5    1 1    
     2   46    1 1    
     3   47    1 1    
     4   48    1 1    
     5    3    2 1    
     6   46    2 1    
     7   49    2 1    
     8   50    2 1    
     9    4    3 am   
    10   13    3 1    
    11    5    4 am   
    12   12    4 2    
    13   51    5 1    
    14    7    6 ar   
    15   11    6 ar   
    16   37    6 1    
    17    8    7 ar   
    18   52    7 1    
    19    9    8 ar   
    20   53    8 1    
    21   10    9 ar   
    22   54    9 1    
    23   11   10 ar   
    24   55   10 1    
    25   56   11 1    
    26   14   13 1    
    27   17   13 1    
    28   57   13 1    
    29   15   14 am   
    30   20   14 2    
    31   16   15 1    
    32   58   15 1    
    33   27   16 1    
    34   28   16 1    
    35   59   16 1    
    36   18   17 1    
    37   19   17 1    
    38   60   17 1    
    39   82   18 1    
    40   83   18 1    
    41   84   18 1    
    42   85   19 1    
    43   86   19 1    
    44   87   19 1    
    45   22   21 ar   
    46   26   21 ar   
    47   61   21 1    
    48   23   22 ar   
    49   62   22 1    
    50   24   23 ar   
    51   63   23 1    
    52   25   24 ar   
    53   64   24 1    
    54   26   25 ar   
    55   27   25 1    
    56   65   26 1    
    57   66   27 1    
    58   67   27 1    
    59   29   28 1    
    60   68   28 1    
    61   69   28 1    
    62   30   29 1    
    63   36   29 1    
    64   70   29 1    
    65   31   30 1    
    66   37   30 1    
    67   71   30 1    
    68   32   31 am   
    69   72   31 1    
    70   33   32 1    
    71   38   32 2    
    72   34   33 1    
    73   73   33 1    
    74   74   33 1    
    75   35   34 1    
    76   39   35 ar   
    77   43   35 ar   
    78   94   36 1    
    79   75   37 1    
    80   76   37 1    
    81   40   39 ar   
    82   45   39 1    
    83   41   40 ar   
    84   77   40 1    
    85   42   41 ar   
    86   78   41 1    
    87   43   42 ar   
    88   79   42 1    
    89   44   43 1    
    90   88   44 1    
    91   89   44 1    
    92   90   44 1    
    93   91   45 1    
    94   92   45 1    
    95   93   45 1    
    96   80   46 1    
    97   81   46 1    
@<TRIPOS>SUBSTRUCTURE
     1 AB1501      1 GROUP   
@<TRIPOS>SET

