#    Name: 2nnj_225_1_INTS_M
#    Modification time : Tue Mar 25 21:23:11 2014

@<TRIPOS>MOLECULE
2nnj_225_1_INTS_M
   49     0     3     0     0
SMALL
NO_CHARGES


@<TRIPOS>ATOM
      1 CA         44.3865   15.5185  -29.4955 C.3       1 GLC5        0.0000 
      2 CA         45.6600   15.6390  -27.9550 C.3       3 GLL5        0.0000 
      3 CA         43.1130   15.3980  -31.0360 C.3       2 GLP5        0.0000 
      4 CA         45.7325   17.5000  -28.2765 C.3       1 GLC5        0.0000 
      5 CA         45.8050   19.3610  -28.5980 C.3       2 GLP5        0.0000 
      6 CA         44.3195   16.3990  -26.3440 C.3       1 GLC5        0.0000 
      7 CA         42.9790   17.1590  -24.7330 C.3       2 GLP5        0.0000 
      8 CA         48.0220   13.5575  -28.1555 C.3       1 GLC5        0.0000 
      9 CA         46.1320   14.2850  -27.4180 C.3       3 GLL5        0.0000 
     10 CA         49.9120   12.8300  -28.8930 C.3       2 GLP5        0.0000 
     11 CA         48.6975   10.0675  -25.5660 C.3       1 GLC5        0.0000 
     12 CA         50.3100   11.6020  -25.4950 C.3       3 GLL5        0.0000 
     13 CA         47.0850    8.5330  -25.6370 C.3       2 GLP5        0.0000 
     14 CA         50.1110   12.2160  -27.1940 C.3       1 GLC5        0.0000 
     15 CA         46.6300   18.7910  -20.8890 C.3       1 GLC5        0.0000 
     16 CA         47.1710   16.9170  -20.3250 C.3       3 GLL5        0.0000 
     17 CA         46.0890   20.6650  -21.4530 C.3       2 GLP5        0.0000 
     18 CA         48.7095   18.0480  -19.8900 C.3       1 GLC5        0.0000 
     19 CA         50.2480   19.1790  -19.4550 C.3       2 GLP5        0.0000 
     20 CA         48.7495   16.8590  -18.9855 C.3       1 GLC5        0.0000 
     21 CA         50.3280   16.8010  -17.6460 C.3       2 GLP5        0.0000 
     22 CA         45.7445   15.9720  -21.1585 C.3       1 GLC5        0.0000 
     23 CA         44.3180   15.0270  -21.9920 C.3       2 GLP5        0.0000 
     24 CA         46.7060   20.7160  -24.7465 C.3       1 GLC5        0.0000 
     25 CA         47.9780   19.8410  -25.8180 C.3       3 GLL5        0.0000 
     26 CA         45.4340   21.5910  -23.6750 C.3       2 GLP5        0.0000 
     27 CA         45.5330   16.1390  -23.2125 C.3       1 GLC5        0.0000 
     28 CA         46.7480   17.2510  -24.4330 C.3       3 GLL5        0.0000 
     29 CA         44.8635   17.2050  -24.5830 C.3       1 GLC5        0.0000 
     30 CA         44.2770   14.0120  -27.8372 C.3       1 GLC5        0.0000 
     31 CA         42.6580   13.0620  -27.9880 C.3       2 GLP5        0.0000 
     32 CA         49.6210   12.9865  -26.7675 C.3       1 GLC5        0.0000 
     33 CA         48.8130   13.6000  -24.7710 C.3       3 GLL5        0.0000 
     34 CA         50.9010   15.8911  -21.5010 C.3       1 GLC5        0.0000 
     35 CA         50.3630   13.6750  -22.3730 C.3       3 GLL5        0.0000 
     36 CA         51.6940   17.6350  -20.8560 C.3       2 GLP5        0.0000 
     37 CA         52.5615   15.9155  -25.1000 C.3       1 GLC5        0.0000 
     38 CA         50.6260   16.2990  -25.0130 C.3       3 GLL5        0.0000 
     39 CA         54.2460   14.9690  -24.8610 C.3       2 GLP5        0.0000 
     40 CA         51.0338   17.7760  -27.6810 C.3       1 GLC5        0.0000 
     41 CA         51.1280   17.4250  -25.6650 C.3       3 GLL5        0.0000 
     42 CA         51.3740   17.5960  -29.5700 C.3       2 GLP5        0.0000 
     43 CA         50.3813   18.5570  -23.8740 C.3       1 GLC5        0.0000 
     44 CA         50.0690   19.1580  -21.9560 C.3       2 GLP5        0.0000 
     45 CA         47.1275   19.2460  -27.1337 C.3       1 GLC5        0.0000 
     46 CA         48.9220   18.4210  -25.5210 C.3       3 GLL5        0.0000 
     47 CA         49.2595   19.1445  -23.8128 C.3       1 GLC5        0.0000 
     48 CA         49.6300   17.9609  -23.3984 C.3       1 GLC5        0.0000 
     49 CA         48.4260   17.2800  -24.8710 C.3       3 GLL5        0.0000 
@<TRIPOS>BOND
@<TRIPOS>SUBSTRUCTURE
     1 GLC5        1 GROUP        1 X    GLC  0     ROOT GLC X 6
     2 GLP5        3 GROUP        1 Y    GLP  0     ROOT GLP Y 13
     3 GLL5        2 GROUP        1 Z    GLL  0     ROOT GLL Z 20
@<TRIPOS>SET

