#    Name: 2nnj_225_1_ligand
#    Modification time : Tue Mar 25 21:23:11 2014

@<TRIPOS>MOLECULE
2nnj_225_1_ligand
   42    43     1     0     0
SMALL
NO_CHARGES


@<TRIPOS>ATOM
      1 C15        45.6600   15.6390  -27.9550 C.3       1 225501      0.0000 
      2 C14        46.1320   14.2850  -27.4180 C.3       1 225501      0.0000 
      3 O2         47.1810   14.4720  -26.4500 O.3       1 225501      0.0000 
      4 C13        47.6950   13.3810  -25.8080 C.2       1 225501      0.0000 
      5 O1         47.2490   12.2510  -26.0160 O.2       1 225501      0.0000 
      6 C2         48.8130   13.6000  -24.7710 C.ar      1 225501      0.0000 
      7 C1         49.8470   12.6860  -24.5130 C.ar      1 225501      0.0000 
      8 C12        50.3100   11.6020  -25.4950 C.3       1 225501      0.0000 
      9 N1         50.5450   12.7760  -23.3620 N.ar      1 225501      0.0000 
     10 C5         50.3630   13.6750  -22.3730 C.ar      1 225501      0.0000 
     11 C18        51.3950   13.6640  -21.2390 C.3       1 225501      0.0000 
     12 C4         49.3370   14.6250  -22.4860 C.ar      1 225501      0.0000 
     13 C16        48.5910   15.2270  -21.2800 C.2       1 225501      0.0000 
     14 O3         48.6270   14.6650  -20.1840 O.2       1 225501      0.0000 
     15 O4         47.8580   16.3650  -21.4570 O.3       1 225501      0.0000 
     16 C17        47.1710   16.9170  -20.3250 C.3       1 225501      0.0000 
     17 C3         48.8170   14.8910  -23.9180 C.ar      1 225501      0.0000 
     18 C6         49.2860   16.1960  -24.6080 C.ar      1 225501      0.0000 
     19 C7         50.6260   16.2990  -25.0130 C.ar      1 225501      0.0000 
     20 C8         51.1280   17.4250  -25.6650 C.ar      1 225501      0.0000 
     21 C9         50.2590   18.4870  -25.9190 C.ar      1 225501      0.0000 
     22 C10        48.9220   18.4210  -25.5210 C.ar      1 225501      0.0000 
     23 CL1        47.9780   19.8410  -25.8180 Cl        1 225501      0.0000 
     24 C11        48.4260   17.2800  -24.8710 C.ar      1 225501      0.0000 
     25 CL2        46.7480   17.2510  -24.4330 Cl        1 225501      0.0000 
     26 H          46.4741   13.6868  -28.2706 H         1 225501      0.0000 
     27 H          45.2652   13.7779  -26.9782 H         1 225501      0.0000 
     28 H          51.2682   15.5004  -24.8170 H         1 225501      0.0000 
     29 H          52.1021   17.4714  -25.9482 H         1 225501      0.0000 
     30 H          50.6063   19.3270  -26.4042 H         1 225501      0.0000 
     31 H          46.4015   16.1408  -28.4004 H         1 225501      0.0000 
     32 H          44.9289   15.5366  -28.6295 H         1 225501      0.0000 
     33 H          45.3062   16.2248  -27.2259 H         1 225501      0.0000 
     34 H          50.6325   11.9944  -26.3564 H         1 225501      0.0000 
     35 H          51.0615   11.0585  -25.1210 H         1 225501      0.0000 
     36 H          49.5723   10.9658  -25.7208 H         1 225501      0.0000 
     37 H          52.3181   13.8510  -21.5751 H         1 225501      0.0000 
     38 H          51.1907   14.3536  -20.5442 H         1 225501      0.0000 
     39 H          51.4261   12.7794  -20.7737 H         1 225501      0.0000 
     40 H          47.8032   17.1613  -19.5898 H         1 225501      0.0000 
     41 H          46.6662   17.7462  -20.5650 H         1 225501      0.0000 
     42 H          46.5101   16.2722  -19.9410 H         1 225501      0.0000 
@<TRIPOS>BOND
     1    2    1 1    
     2   31    1 1    
     3   32    1 1    
     4   33    1 1    
     5    3    2 1    
     6   26    2 1    
     7   27    2 1    
     8    4    3 1    
     9    5    4 2    
    10    6    4 1    
    11    7    6 ar   
    12   17    6 ar   
    13    8    7 1    
    14    9    7 ar   
    15   34    8 1    
    16   35    8 1    
    17   36    8 1    
    18   10    9 ar   
    19   11   10 1    
    20   12   10 ar   
    21   37   11 1    
    22   38   11 1    
    23   39   11 1    
    24   13   12 1    
    25   17   12 ar   
    26   14   13 2    
    27   15   13 1    
    28   16   15 1    
    29   40   16 1    
    30   41   16 1    
    31   42   16 1    
    32   18   17 1    
    33   19   18 ar   
    34   24   18 ar   
    35   20   19 ar   
    36   28   19 1    
    37   21   20 ar   
    38   29   20 1    
    39   22   21 ar   
    40   30   21 1    
    41   23   22 1    
    42   24   22 ar   
    43   25   24 1    
@<TRIPOS>SUBSTRUCTURE
     1 225501      1 GROUP   
@<TRIPOS>SET

