#    Name: 1YIQ_1_CAVITY_N1_ALL.mol2
#    Modification time : Mon Mar 10 20:45:16 2014

@<TRIPOS>MOLECULE
1YIQ_1_CAVITY_N1_ALL.mol2
   64     0     6     0     0
SMALL
NO_CHARGES


@<TRIPOS>ATOM
      1 N          10.5468   14.1885   -3.0159 N.2       2 ALA2        0.0000 
      2 N          10.9122   14.9044   -4.2824 N.2       2 ALA2        0.0000 
      3 CA         11.2776   15.6202   -5.5489 C.3       6 GLY6        0.0000 
      4 O           9.4729   13.4404   -3.7486 O.2       2 ALA2        0.0000 
      5 N           9.8383   14.1562   -5.0151 N.2       2 ALA2        0.0000 
      6 CA         10.6393   16.0220   -1.9529 C.3       6 GLY6        0.0000 
      7 CZ         11.0047   16.7378   -3.2194 C.ar      5 PHE5        0.0000 
      8 CZ          9.5654   15.2738   -2.6857 C.ar      5 PHE5        0.0000 
      9 CZ          9.9308   15.9896   -3.9522 C.ar      5 PHE5        0.0000 
     10 CZ         10.2962   16.7055   -5.2187 C.ar      5 PHE5        0.0000 
     11 CA         10.7318   17.8555   -0.8900 C.3       6 GLY6        0.0000 
     12 CZ          9.6579   17.1073   -1.6227 C.ar      5 PHE5        0.0000 
     13 CZ         10.0233   17.8231   -2.8892 C.ar      5 PHE5        0.0000 
     14 CZ         11.1897   20.4047   -1.0935 C.ar      5 PHE5        0.0000 
     15 CZ          9.7504   18.9407   -0.5597 C.ar      5 PHE5        0.0000 
     16 CZ         10.1158   19.6565   -1.8263 C.ar      5 PHE5        0.0000 
     17 CA          9.8429   20.7742    0.5032 C.3       6 GLY6        0.0000 
     18 CZ         10.2083   21.4900   -0.7633 C.ar      5 PHE5        0.0000 
     19 CA         10.5737   22.2058   -2.0298 C.3       6 GLY6        0.0000 
     20 CZ          8.7690   20.0260   -0.2295 C.ar      5 PHE5        0.0000 
     21 CZ          9.1344   20.7418   -1.4960 C.ar      5 PHE5        0.0000 
     22 OG          9.4998   21.4576   -2.7625 O.2       1 SER1        0.0000 
     23 NZ         11.7402   24.7875   -0.2341 N.2       4 LYS4        0.0000 
     24 NZ         10.3008   23.3235    0.2997 N.2       4 LYS4        0.0000 
     25 NZ         10.6663   24.0393   -0.9668 N.2       4 LYS4        0.0000 
     26 CA         11.0317   24.7551   -2.2333 C.3       6 GLY6        0.0000 
     27 CZ          8.8615   21.8594    0.8334 C.ar      5 PHE5        0.0000 
     28 O           9.2269   22.5753   -0.4331 O.2       2 ALA2        0.0000 
     29 CA          9.5923   23.2911   -1.6996 C.3       6 GLY6        0.0000 
     30 O           8.1530   21.8271   -1.1658 O.2       2 ALA2        0.0000 
     31 OG          8.5184   22.5429   -2.4323 O.2       1 SER1        0.0000 
     32 CZ         12.1981   27.3368   -0.4376 C.ar      5 PHE5        0.0000 
     33 OD1        10.7588   25.8727    0.0961 O.3       3 ASP3        0.0000 
     34 NZ         11.1242   26.5886   -1.1704 N.2       4 LYS4        0.0000 
     35 CA         11.4896   27.3044   -2.4369 C.3       6 GLY6        0.0000 
     36 N           9.3194   24.4087    0.6299 N.2       2 ALA2        0.0000 
     37 CA          9.6848   25.1245   -0.6366 C.3       6 GLY6        0.0000 
     38 O           8.6109   24.3764   -1.3694 O.2       2 ALA2        0.0000 
     39 CZ         11.9476   29.8537   -2.6404 C.ar      5 PHE5        0.0000 
     40 OD1         9.7774   26.9580    0.4264 O.3       3 ASP3        0.0000 
     41 CZ         10.1428   27.6738   -0.8402 C.ar      5 PHE5        0.0000 
     42 CZ         10.5082   28.3897   -2.1067 C.ar      5 PHE5        0.0000 
     43 CA         10.8736   29.1055   -3.3732 C.3       6 GLY6        0.0000 
     44 OG         11.2391   29.8213   -4.6397 O.2       1 SER1        0.0000 
     45 CA          8.3380   25.4940    0.9601 C.3       6 GLY6        0.0000 
     46 O           8.7034   26.2098   -0.3064 O.2       2 ALA2        0.0000 
     47 CA          9.0689   26.9256   -1.5729 C.3       6 GLY6        0.0000 
     48 CA          9.7997   28.3573   -4.1059 C.3       6 GLY6        0.0000 
     49 CA         10.1651   29.0731   -5.3724 C.3       6 GLY6        0.0000 
     50 O           7.6295   25.4616   -1.0391 O.2       2 ALA2        0.0000 
     51 NZ          8.7959   28.0433    0.7566 N.2       4 LYS4        0.0000 
     52 CZ          9.1614   28.7591   -0.5099 C.ar      5 PHE5        0.0000 
     53 CZ          9.5268   29.4749   -1.7764 C.ar      5 PHE5        0.0000 
     54 O           9.8922   30.1908   -3.0430 O.2       2 ALA2        0.0000 
     55 NZ          7.7220   27.2951    0.0238 N.2       4 LYS4        0.0000 
     56 NZ          8.0875   28.0109   -1.2427 N.2       4 LYS4        0.0000 
     57 CA          8.4529   28.7267   -2.5092 C.3       6 GLY6        0.0000 
     58 O           8.8183   29.4426   -3.7757 O.2       2 ALA2        0.0000 
     59 O           6.6481   26.5469   -0.7089 O.2       2 ALA2        0.0000 
     60 CA          7.0135   27.2627   -1.9754 C.3       6 GLY6        0.0000 
     61 CA          7.1060   29.0962   -0.9125 C.3       6 GLY6        0.0000 
     62 O           7.4715   29.8120   -2.1790 O.2       2 ALA2        0.0000 
     63 CZ          6.0321   28.3480   -1.6452 C.ar      5 PHE5        0.0000 
     64 O           6.3976   29.0638   -2.9117 O.2       2 ALA2        0.0000 
@<TRIPOS>BOND
@<TRIPOS>SUBSTRUCTURE
     1 SER1       22 GROUP   
     2 ALA2        1 GROUP   
     3 ASP3       33 GROUP   
     4 LYS4       23 GROUP   
     5 PHE5        7 GROUP   
     6 GLY6        3 GROUP   
@<TRIPOS>SET

