#    Name: 1YIQ_1_CAVITY_N1_6.mol2
#    Modification time : Mon Mar 10 20:45:16 2014

@<TRIPOS>MOLECULE
1YIQ_1_CAVITY_N1_6.mol2
   45     0     6     0     0
SMALL
NO_CHARGES


@<TRIPOS>ATOM
      1 CA          9.8429   20.7742    0.5032 C.3       6 GLY6        0.0000 
      2 CZ         10.2083   21.4900   -0.7633 C.ar      5 PHE5        0.0000 
      3 CA         10.5737   22.2058   -2.0298 C.3       6 GLY6        0.0000 
      4 NZ         11.7402   24.7875   -0.2341 N.2       4 LYS4        0.0000 
      5 NZ         10.3008   23.3235    0.2997 N.2       4 LYS4        0.0000 
      6 NZ         10.6663   24.0393   -0.9668 N.2       4 LYS4        0.0000 
      7 CA         11.0317   24.7551   -2.2333 C.3       6 GLY6        0.0000 
      8 CZ          8.8615   21.8594    0.8334 C.ar      5 PHE5        0.0000 
      9 O           9.2269   22.5753   -0.4331 O.2       2 ALA2        0.0000 
     10 CA          9.5923   23.2911   -1.6996 C.3       6 GLY6        0.0000 
     11 O           8.1530   21.8271   -1.1658 O.2       2 ALA2        0.0000 
     12 OG          8.5184   22.5429   -2.4323 O.2       1 SER1        0.0000 
     13 CZ         12.1981   27.3368   -0.4376 C.ar      5 PHE5        0.0000 
     14 OD1        10.7588   25.8727    0.0961 O.3       3 ASP3        0.0000 
     15 NZ         11.1242   26.5886   -1.1704 N.2       4 LYS4        0.0000 
     16 CA         11.4896   27.3044   -2.4369 C.3       6 GLY6        0.0000 
     17 N           9.3194   24.4087    0.6299 N.2       2 ALA2        0.0000 
     18 CA          9.6848   25.1245   -0.6366 C.3       6 GLY6        0.0000 
     19 O           8.6109   24.3764   -1.3694 O.2       2 ALA2        0.0000 
     20 CZ         11.9476   29.8537   -2.6404 C.ar      5 PHE5        0.0000 
     21 OD1         9.7774   26.9580    0.4264 O.3       3 ASP3        0.0000 
     22 CZ         10.1428   27.6738   -0.8402 C.ar      5 PHE5        0.0000 
     23 CZ         10.5082   28.3897   -2.1067 C.ar      5 PHE5        0.0000 
     24 CA         10.8736   29.1055   -3.3732 C.3       6 GLY6        0.0000 
     25 OG         11.2391   29.8213   -4.6397 O.2       1 SER1        0.0000 
     26 CA          8.3380   25.4940    0.9601 C.3       6 GLY6        0.0000 
     27 O           8.7034   26.2098   -0.3064 O.2       2 ALA2        0.0000 
     28 CA          9.0689   26.9256   -1.5729 C.3       6 GLY6        0.0000 
     29 CA          9.7997   28.3573   -4.1059 C.3       6 GLY6        0.0000 
     30 CA         10.1651   29.0731   -5.3724 C.3       6 GLY6        0.0000 
     31 O           7.6295   25.4616   -1.0391 O.2       2 ALA2        0.0000 
     32 NZ          8.7959   28.0433    0.7566 N.2       4 LYS4        0.0000 
     33 CZ          9.1614   28.7591   -0.5099 C.ar      5 PHE5        0.0000 
     34 CZ          9.5268   29.4749   -1.7764 C.ar      5 PHE5        0.0000 
     35 O           9.8922   30.1908   -3.0430 O.2       2 ALA2        0.0000 
     36 NZ          7.7220   27.2951    0.0238 N.2       4 LYS4        0.0000 
     37 NZ          8.0875   28.0109   -1.2427 N.2       4 LYS4        0.0000 
     38 CA          8.4529   28.7267   -2.5092 C.3       6 GLY6        0.0000 
     39 O           8.8183   29.4426   -3.7757 O.2       2 ALA2        0.0000 
     40 O           6.6481   26.5469   -0.7089 O.2       2 ALA2        0.0000 
     41 CA          7.0135   27.2627   -1.9754 C.3       6 GLY6        0.0000 
     42 CA          7.1060   29.0962   -0.9125 C.3       6 GLY6        0.0000 
     43 O           7.4715   29.8120   -2.1790 O.2       2 ALA2        0.0000 
     44 CZ          6.0321   28.3480   -1.6452 C.ar      5 PHE5        0.0000 
     45 O           6.3976   29.0638   -2.9117 O.2       2 ALA2        0.0000 
@<TRIPOS>BOND
@<TRIPOS>SUBSTRUCTURE
     1 SER1       12 GROUP   
     2 ALA2        9 GROUP   
     3 ASP3       14 GROUP   
     4 LYS4        4 GROUP   
     5 PHE5        2 GROUP   
     6 GLY6        1 GROUP   
@<TRIPOS>SET

