#    Name: 1yiq_PQQ_1_INTS_M
#    Modification time : Mon Apr  7 15:47:50 2014

@<TRIPOS>MOLECULE
1yiq_PQQ_1_INTS_M
   46     0     6     0     0
SMALL
NO_CHARGES


@<TRIPOS>ATOM
      1 N           7.3375   31.3910   -3.6475 N.am      1 SEC2        0.0000 
      2 N           6.1440   30.2650   -3.9950 N.am      5 SEL2        0.0000 
      3 N           8.5310   32.5170   -3.3000 N.am      3 SEP2        0.0000 
      4 N           4.6250   30.3605   -1.8335 N.am      1 SEC2        0.0000 
      5 N           4.8540   29.2060   -2.5310 N.am      5 SEL2        0.0000 
      6 N           4.3960   31.5150   -1.1360 N.am      3 SEP2        0.0000 
      7 N           4.4775   27.8635   -3.4975 N.am      1 SEC2        0.0000 
      8 N           4.1010   26.5210   -4.4640 N.am      3 SEP2        0.0000 
      9 N           9.5600   26.1905    2.1340 N.am      1 SEC2        0.0000 
     10 N           8.7060   26.4730    0.9070 N.am      5 SEL2        0.0000 
     11 N          10.4140   25.9080    3.3610 N.am      3 SEP2        0.0000 
     12 N          10.9340   26.0945    2.0405 N.am      1 SEC2        0.0000 
     13 N          11.4540   26.2810    0.7200 N.am      5 SEL2        0.0000 
     14 N          16.6145   26.3595   -2.2950 N.am      1 SEC2        0.0000 
     15 N          15.3300   26.5910   -1.1880 N.am      5 SEL2        0.0000 
     16 N          17.8990   26.1280   -3.4020 N.am      3 SEP2        0.0000 
     17 N          16.4345   28.1660   -3.8670 N.am      1 SEC2        0.0000 
     18 N          15.9710   28.2500   -2.6240 N.am      5 SEL2        0.0000 
     19 N          16.8980   28.0820   -5.1100 N.am      3 SEP2        0.0000 
     20 N          16.9350   27.1890   -3.0130 N.am      1 SEC2        0.0000 
     21 N          16.8570   28.8340   -1.8420 N.am      1 SEC2        0.0000 
     22 N          17.7430   29.4180   -1.0600 N.am      3 SEP2        0.0000 
     23 CA         14.7555   29.6410   -4.0845 C.3       2 GLC5        0.0000 
     24 CA         13.2000   28.8460   -3.1130 C.3       6 GLL5        0.0000 
     25 CA         16.3110   30.4360   -5.0560 C.3       4 GLP5        0.0000 
     26 CA         13.9055   30.7120   -2.8030 C.3       2 GLC5        0.0000 
     27 CA         14.6110   32.5780   -2.4930 C.3       4 GLP5        0.0000 
     28 N           9.3270   31.3515   -3.9650 N.am      1 SEC2        0.0000 
     29 N          10.1230   30.1860   -4.6300 N.am      5 SEL2        0.0000 
     30 N          10.8070   31.6765   -5.0195 N.am      1 SEC2        0.0000 
     31 N          11.4910   33.1670   -5.4090 N.am      3 SEP2        0.0000 
     32 N          11.8625   31.9405   -5.1795 N.am      1 SEC2        0.0000 
     33 N          12.2340   30.7140   -4.9500 N.am      5 SEL2        0.0000 
     34 CA          7.7073   27.5602   -3.4757 C.3       2 GLC5        0.0000 
     35 CA          7.1960   28.9360   -2.3880 C.3       6 GLL5        0.0000 
     36 CA          8.1780   26.5820   -5.1240 C.3       4 GLP5        0.0000 
     37 CA          9.2295   26.9468   -2.8607 C.3       2 GLC5        0.0000 
     38 CA          8.6300   27.8760   -1.0730 C.3       6 GLL5        0.0000 
     39 CA          9.4660   25.6910   -4.1400 C.3       4 GLP5        0.0000 
     40 CA          6.8106   26.7461   -2.2666 C.3       2 GLC5        0.0000 
     41 CA          5.6880   25.2850   -3.0830 C.3       4 GLP5        0.0000 
     42 CA         10.4117   27.1073   -3.2754 C.3       2 GLC5        0.0000 
     43 CA         10.8870   28.4780   -2.2480 C.3       6 GLL5        0.0000 
     44 CA         11.9028   27.2527   -3.7576 C.3       2 GLC5        0.0000 
     45 CA         11.7810   29.1200   -3.2370 C.3       6 GLL5        0.0000 
     46 CA         11.3370   25.9910   -4.9660 C.3       4 GLP5        0.0000 
@<TRIPOS>BOND
@<TRIPOS>SUBSTRUCTURE
     1 SEC2        1 GROUP        1 X    SEC  0     ROOT SEC X 2
     2 GLC5       23 GROUP        1 X    GLC  0     **** GLC X 6
     3 SEP2        3 GROUP        1 Y    SEP  0     ROOT SEP Y 9
     4 GLP5       25 GROUP        1 Y    GLP  0     **** GLP Y 13
     5 SEL2        2 GROUP        1 Z    SEL  0     ROOT SEL Z 16
     6 GLL5       24 GROUP        1 Z    GLL  0     **** GLL Z 20
@<TRIPOS>SET

