#    Name: 1yiq_PQQ_1_ligand
#    Modification time : Mon Apr  7 15:47:50 2014

@<TRIPOS>MOLECULE
1yiq_PQQ_1_ligand
   27    29     1     0     0
SMALL
NO_CHARGES


@<TRIPOS>ATOM
      1 N1          8.4750   29.1550   -2.8520 N.pl3     1 PQQ801      0.0000 
      2 C2          7.1960   28.9360   -2.3880 C.2       1 PQQ801      0.0000 
      3 C2X         5.9500   29.5030   -3.0320 C.2       1 PQQ801      0.0000 
      4 O2A         6.1440   30.2650   -3.9950 O.co2     1 PQQ801      0.0000 
      5 O2B         4.8540   29.2060   -2.5310 O.co2     1 PQQ801      0.0000 
      6 C3          7.2770   28.1410   -1.2670 C.2       1 PQQ801      0.0000 
      7 C3A         8.6300   27.8760   -1.0730 C.2       1 PQQ801      0.0000 
      8 C1A         9.3560   28.5290   -2.0900 C.2       1 PQQ801      0.0000 
      9 C4          9.2580   27.0470    0.0090 C.2       1 PQQ801      0.0000 
     10 O4          8.7060   26.4730    0.9070 O.2       1 PQQ801      0.0000 
     11 C5         10.8300   26.9390   -0.1060 C.2       1 PQQ801      0.0000 
     12 O5         11.4540   26.2810    0.7200 O.2       1 PQQ801      0.0000 
     13 C6A        11.5350   27.6670   -1.2420 C.ar      1 PQQ801      0.0000 
     14 N6         12.8620   27.4500   -1.1750 N.ar      1 PQQ801      0.0000 
     15 C7         13.6820   28.0190   -2.1020 C.ar      1 PQQ801      0.0000 
     16 C7X        15.1260   27.6130   -1.9760 C.2       1 PQQ801      0.0000 
     17 O7A        15.3300   26.5910   -1.1880 O.co2     1 PQQ801      0.0000 
     18 O7B        15.9710   28.2500   -2.6240 O.co2     1 PQQ801      0.0000 
     19 C8         13.2000   28.8460   -3.1130 C.ar      1 PQQ801      0.0000 
     20 C9         11.7810   29.1200   -3.2370 C.ar      1 PQQ801      0.0000 
     21 C9X        11.3360   30.0670   -4.3770 C.2       1 PQQ801      0.0000 
     22 O9A        10.1230   30.1860   -4.6300 O.co2     1 PQQ801      0.0000 
     23 O9B        12.2340   30.7140   -4.9500 O.co2     1 PQQ801      0.0000 
     24 C9A        10.8870   28.4780   -2.2480 C.ar      1 PQQ801      0.0000 
     25 H           8.6715   29.7026   -3.6389 H         1 PQQ801      0.0000 
     26 H           6.5683   27.8342   -0.7342 H         1 PQQ801      0.0000 
     27 H          13.8351   29.2786   -3.7905 H         1 PQQ801      0.0000 
@<TRIPOS>BOND
     1    2    1 1    
     2    8    1 1    
     3   25    1 1    
     4    3    2 1    
     5    6    2 2    
     6    4    3 ar   
     7    5    3 ar   
     8    7    6 1    
     9   26    6 1    
    10    8    7 2    
    11    9    7 1    
    12   24    8 1    
    13   10    9 2    
    14   11    9 1    
    15   12   11 2    
    16   13   11 1    
    17   14   13 ar   
    18   24   13 ar   
    19   15   14 ar   
    20   16   15 1    
    21   19   15 ar   
    22   17   16 ar   
    23   18   16 ar   
    24   20   19 ar   
    25   27   19 1    
    26   21   20 1    
    27   24   20 ar   
    28   22   21 ar   
    29   23   21 ar   
@<TRIPOS>SUBSTRUCTURE
     1 PQQ801      1 GROUP   
@<TRIPOS>SET

