#    Name: 1nec_FMN_4_INTS_M
#    Modification time : Mon Mar 24 18:06:33 2014

@<TRIPOS>MOLECULE
1nec_FMN_4_INTS_M
   85     0    12     0     0
SMALL
NO_CHARGES


@<TRIPOS>ATOM
      1 N          19.0100   46.5000   11.0930 N.am      2 SEC2        0.0000 
      2 N          18.0400   45.4950   11.5200 N.am     10 SEL2        0.0000 
      3 N          19.9800   47.5050   10.6660 N.am      6 SEP2        0.0000 
      4 O          15.8950   43.8930   11.8820 O.2       1 ALC1        0.0000 
      5 O          16.3830   45.0730   12.9310 O.2       9 ALL1        0.0000 
      6 O          15.4070   42.7130   10.8330 O.2       5 ALP1        0.0000 
      7 N          14.0380   43.7645   13.0885 N.am      2 SEC2        0.0000 
      8 N          14.6590   44.6580   14.2750 N.am     10 SEL2        0.0000 
      9 N          13.4170   42.8710   11.9020 N.am      6 SEP2        0.0000 
     10 N          14.4095   44.1505   15.8255 N.am      2 SEC2        0.0000 
     11 N          14.1600   43.6430   17.3760 N.am      6 SEP2        0.0000 
     12 N          13.3925   44.2105   14.9350 N.am      2 SEC2        0.0000 
     13 N          12.1260   43.7630   15.5950 N.am      6 SEP2        0.0000 
     14 N          15.1360   44.7455   16.8720 N.am      2 SEC2        0.0000 
     15 N          16.1120   45.8480   16.3680 N.am     10 SEL2        0.0000 
     16 CA         16.4370   44.3285   16.9435 C.3       4 GLC5        0.0000 
     17 CA         16.8920   46.3560   17.3430 C.3      12 GLL5        0.0000 
     18 CA         15.9820   42.3010   16.5440 C.3       8 GLP5        0.0000 
     19 CA         18.0860   46.5890   22.5445 C.3       4 GLC5        0.0000 
     20 CA         16.6680   46.6350   21.1650 C.3      12 GLL5        0.0000 
     21 CA         19.5040   46.5430   23.9240 C.3       8 GLP5        0.0000 
     22 CA         15.8285   46.3135   22.8520 C.3       4 GLC5        0.0000 
     23 CA         14.9890   45.9920   24.5390 C.3       8 GLP5        0.0000 
     24 CA         21.3825   48.1625   20.4000 C.3       4 GLC5        0.0000 
     25 CA         19.3840   47.6260   20.6450 C.3      12 GLL5        0.0000 
     26 CA         23.3810   48.6990   20.1550 C.3       8 GLP5        0.0000 
     27 CA         19.4440   47.0845   22.2845 C.3       4 GLC5        0.0000 
     28 CA         21.5070   46.8415   14.7755 C.3       4 GLC5        0.0000 
     29 CA         19.9150   47.5490   15.5330 C.3      12 GLL5        0.0000 
     30 CA         23.0990   46.1340   14.0180 C.3       8 GLP5        0.0000 
     31 CA         20.6485   45.7040   16.4360 C.3       4 GLC5        0.0000 
     32 CA         21.3820   43.8590   17.3390 C.3       8 GLP5        0.0000 
     33 CA         22.1720   47.8385   15.0375 C.3       4 GLC5        0.0000 
     34 CA         21.2450   49.5430   16.0570 C.3      12 GLL5        0.0000 
     35 CA         23.2335   50.6855   18.5555 C.3       4 GLC5        0.0000 
     36 CA         23.0830   51.2120   16.4930 C.3      12 GLL5        0.0000 
     37 CA         23.3840   50.1590   20.6180 C.3       8 GLP5        0.0000 
     38 NZ         25.0325   47.2405   17.1235 N.4       3 LYC4        0.0000 
     39 NZ         24.2190   48.3400   16.5670 N.4      11 LYL4        0.0000 
     40 NZ         26.7510   46.5710   18.5180 N.4       7 LYP4        0.0000 
     41 N          25.5125   48.1200   17.6535 N.am      2 SEC2        0.0000 
     42 N          24.2190   48.3400   16.5670 N.am     10 SEL2        0.0000 
     43 N          26.8060   47.9000   18.7400 N.am      6 SEP2        0.0000 
     44 N          25.0325   47.2405   17.1235 N.am      2 SEC2        0.0000 
     45 N          25.8460   46.1410   17.6800 N.am      6 SEP2        0.0000 
     46 N          23.5900   47.4260   15.9775 N.am      2 SEC2        0.0000 
     47 N          22.9610   46.5120   15.3880 N.am      6 SEP2        0.0000 
     48 NZ         26.4460   48.9650   17.7455 N.4       3 LYC4        0.0000 
     49 NZ         26.0860   50.0300   16.7510 N.4      11 LYL4        0.0000 
     50 NZ         27.3850   50.1165   16.2665 N.4       3 LYC4        0.0000 
     51 NZ         28.6840   50.2030   15.7820 N.4       7 LYP4        0.0000 
     52 NZ         25.9760   51.0480   17.7530 N.4       3 LYC4        0.0000 
     53 NZ         25.7640   53.3290   18.4020 N.4       7 LYP4        0.0000 
     54 N          26.4460   48.9650   17.7455 N.am      2 SEC2        0.0000 
     55 N          26.0860   50.0300   16.7510 N.am     10 SEL2        0.0000 
     56 N          27.3850   50.1165   16.2665 N.am      2 SEC2        0.0000 
     57 N          28.6840   50.2030   15.7820 N.am      6 SEP2        0.0000 
     58 N          25.9760   51.0480   17.7530 N.am      2 SEC2        0.0000 
     59 N          25.8660   52.0660   18.7550 N.am      6 SEP2        0.0000 
     60 NZ         27.1105   49.5695   15.1455 N.4       3 LYC4        0.0000 
     61 NZ         25.5370   48.9360   14.5090 N.4      11 LYL4        0.0000 
     62 N          25.5530   47.5685   14.2900 N.am      2 SEC2        0.0000 
     63 N          25.5370   48.9360   14.5090 N.am     10 SEL2        0.0000 
     64 N          25.5690   46.2010   14.0710 N.am      6 SEP2        0.0000 
     65 CA         18.3528   45.0423   19.0190 C.3       4 GLC5        0.0000 
     66 CA         17.1970   46.6980   19.7110 C.3      12 GLL5        0.0000 
     67 CA         19.7720   43.5840   19.1740 C.3       8 GLP5        0.0000 
     68 CA         16.0086   48.1852   19.8330 C.3       4 GLC5        0.0000 
     69 CA         16.4480   46.2500   18.6910 C.3      12 GLL5        0.0000 
     70 CA         15.2720   49.8160   19.4830 C.3       8 GLP5        0.0000 
     71 CA         14.9361   46.0177   20.0725 C.3       4 GLC5        0.0000 
     72 CA         13.1270   45.4810   19.9620 C.3       8 GLP5        0.0000 
     73 CA         19.3317   49.2325   20.4505 C.3       4 GLC5        0.0000 
     74 CA         18.5130   47.2060   19.4830 C.3      12 GLL5        0.0000 
     75 CA         19.7150   51.0490   20.8370 C.3       8 GLP5        0.0000 
     76 CA         17.7698   48.8445   19.4570 C.3       4 GLC5        0.0000 
     77 CA         16.5910   50.2730   18.8500 C.3       8 GLP5        0.0000 
     78 CA         19.8648   45.9520   19.3160 C.3       4 GLC5        0.0000 
     79 CA         20.7810   44.4880   18.5680 C.3       8 GLP5        0.0000 
     80 CA         17.4270   48.6090   18.2845 C.3       4 GLC5        0.0000 
     81 CA         18.9830   47.2740   18.2000 C.3      12 GLL5        0.0000 
     82 CA         19.6847   45.7815   18.1172 C.3       4 GLC5        0.0000 
     83 CA         21.5038   52.8628   16.0890 C.3       4 GLC5        0.0000 
     84 CA         21.6340   50.9930   16.1050 C.3      12 GLL5        0.0000 
     85 CA         20.6490   54.6230   15.8790 C.3       8 GLP5        0.0000 
@<TRIPOS>BOND
@<TRIPOS>SUBSTRUCTURE
     1 ALC1        4 GROUP        1 X    ALC  0     ROOT ALC X 1
     2 SEC2        1 GROUP        1 X    SEC  0     **** SEC X 2
     3 LYC4       38 GROUP        1 X    LYC  0     **** LYC X 4
     4 GLC5       16 GROUP        1 X    GLC  0     **** GLC X 6
     5 ALP1        6 GROUP        1 Y    ALP  0     ROOT ALP Y 8
     6 SEP2        3 GROUP        1 Y    SEP  0     **** SEP Y 9
     7 LYP4       40 GROUP        1 Y    LYP  0     **** LYP Y 11
     8 GLP5       18 GROUP        1 Y    GLP  0     **** GLP Y 13
     9 ALL1        5 GROUP        1 Z    ALL  0     ROOT ALL Z 15
    10 SEL2        2 GROUP        1 Z    SEL  0     **** SEL Z 16
    11 LYL4       39 GROUP        1 Z    LYL  0     **** LYL Z 18
    12 GLL5       17 GROUP        1 Z    GLL  0     **** GLL Z 20
@<TRIPOS>SET

