#    Name: 1nec_FMN_4_ligand
#    Modification time : Mon Mar 24 18:06:34 2014

@<TRIPOS>MOLECULE
1nec_FMN_4_ligand
   50    52     1     0     0
SMALL
NO_CHARGES


@<TRIPOS>ATOM
      1 N1         18.4460   46.2110   13.6400 N.2       1 FMN220      0.0000 
      2 C2         17.6860   45.6130   12.6730 C.2       1 FMN220      0.0000 
      3 O2         18.0400   45.4950   11.5200 O.2       1 FMN220      0.0000 
      4 N3         16.3830   45.0730   12.9310 N.am      1 FMN220      0.0000 
      5 C4         15.7930   45.1300   14.1270 C.2       1 FMN220      0.0000 
      6 O4         14.6590   44.6580   14.2750 O.2       1 FMN220      0.0000 
      7 C4A        16.5690   45.8260   15.1540 C.2       1 FMN220      0.0000 
      8 N5         16.1120   45.8480   16.3680 N.2       1 FMN220      0.0000 
      9 C5A        16.8920   46.3560   17.3430 C.ar      1 FMN220      0.0000 
     10 C6         16.4480   46.2500   18.6910 C.ar      1 FMN220      0.0000 
     11 C7         17.1970   46.6980   19.7110 C.ar      1 FMN220      0.0000 
     12 C7M        16.6680   46.6350   21.1650 C.3       1 FMN220      0.0000 
     13 C8         18.5130   47.2060   19.4830 C.ar      1 FMN220      0.0000 
     14 C8M        19.3840   47.6260   20.6450 C.3       1 FMN220      0.0000 
     15 C9         18.9830   47.2740   18.2000 C.ar      1 FMN220      0.0000 
     16 C9A        18.1940   46.8760   17.1330 C.ar      1 FMN220      0.0000 
     17 N10        18.6510   46.8550   15.8260 N.pl3     1 FMN220      0.0000 
     18 C10        17.9200   46.3370   14.8420 C.2       1 FMN220      0.0000 
     19 C1'        19.9150   47.5490   15.5330 C.3       1 FMN220      0.0000 
     20 C2'        19.8200   49.0690   15.7480 C.3       1 FMN220      0.0000 
     21 O2'        19.3900   49.6580   14.5190 O.3       1 FMN220      0.0000 
     22 C3'        21.2450   49.5430   16.0570 C.3       1 FMN220      0.0000 
     23 O3'        21.7280   48.8740   17.2760 O.3       1 FMN220      0.0000 
     24 C4'        21.6340   50.9930   16.1050 C.3       1 FMN220      0.0000 
     25 O4'        21.3730   51.5250   14.7710 O.3       1 FMN220      0.0000 
     26 C5'        23.0830   51.2120   16.4930 C.3       1 FMN220      0.0000 
     27 O5'        23.9280   50.5560   15.4940 O.3       1 FMN220      0.0000 
     28 P          24.9880   49.4530   15.8560 P.3       1 FMN220      0.0000 
     29 O1P        24.2190   48.3400   16.5670 O.co2     1 FMN220      0.0000 
     30 O2P        26.0860   50.0300   16.7510 O.co2     1 FMN220      0.0000 
     31 O3P        25.5370   48.9360   14.5090 O.co2     1 FMN220      0.0000 
     32 H          15.9023   44.6182   12.1114 H         1 FMN220      0.0000 
     33 H          15.5181   45.8105   18.8530 H         1 FMN220      0.0000 
     34 H          19.9421   47.6273   18.0156 H         1 FMN220      0.0000 
     35 H          20.2202   47.3728   14.4889 H         1 FMN220      0.0000 
     36 H          20.7247   47.1659   16.1749 H         1 FMN220      0.0000 
     37 H          19.1970   49.2665   16.5565 H         1 FMN220      0.0000 
     38 H          21.9024   49.0710   15.2205 H         1 FMN220      0.0000 
     39 H          20.9931   51.4967   16.8183 H         1 FMN220      0.0000 
     40 H          23.2488   50.7877   17.4794 H         1 FMN220      0.0000 
     41 H          23.2788   52.2803   16.5248 H         1 FMN220      0.0000 
     42 H          17.3309   47.0019   21.8176 H         1 FMN220      0.0000 
     43 H          15.8249   47.1610   21.2766 H         1 FMN220      0.0000 
     44 H          16.4676   45.6967   21.4470 H         1 FMN220      0.0000 
     45 H          20.2748   47.9618   20.3390 H         1 FMN220      0.0000 
     46 H          18.9624   48.3586   21.1794 H         1 FMN220      0.0000 
     47 H          19.5567   46.8672   21.2730 H         1 FMN220      0.0000 
     48 H          19.7682   49.0700   13.8040 H         1 FMN220      0.0000 
     49 H          22.6921   48.6768   17.0982 H         1 FMN220      0.0000 
     50 H          20.6075   50.9844   14.4221 H         1 FMN220      0.0000 
@<TRIPOS>BOND
     1    2    1 1    
     2   18    1 2    
     3    3    2 2    
     4    4    2 am   
     5    5    4 am   
     6   32    4 1    
     7    6    5 2    
     8    7    5 1    
     9    8    7 2    
    10   18    7 1    
    11    9    8 1    
    12   10    9 ar   
    13   16    9 ar   
    14   11   10 ar   
    15   33   10 1    
    16   12   11 1    
    17   13   11 ar   
    18   42   12 1    
    19   43   12 1    
    20   44   12 1    
    21   14   13 1    
    22   15   13 ar   
    23   45   14 1    
    24   46   14 1    
    25   47   14 1    
    26   16   15 ar   
    27   34   15 1    
    28   17   16 1    
    29   18   17 1    
    30   19   17 1    
    31   20   19 1    
    32   35   19 1    
    33   36   19 1    
    34   21   20 1    
    35   22   20 1    
    36   37   20 1    
    37   48   21 1    
    38   23   22 1    
    39   24   22 1    
    40   38   22 1    
    41   49   23 1    
    42   25   24 1    
    43   26   24 1    
    44   39   24 1    
    45   50   25 1    
    46   27   26 1    
    47   40   26 1    
    48   41   26 1    
    49   28   27 1    
    50   29   28 ar   
    51   30   28 ar   
    52   31   28 ar   
@<TRIPOS>SUBSTRUCTURE
     1 FMN220      1 GROUP   
@<TRIPOS>SET

