#    Name: 4A16_4_CAVITY_N1_ALL.mol2
#    Modification time : Tue Mar 11 16:15:51 2014

@<TRIPOS>MOLECULE
4A16_4_CAVITY_N1_ALL.mol2
  139     0     6     0     0
SMALL
NO_CHARGES


@<TRIPOS>ATOM
      1 O          54.4350   -3.2683   75.4217 O.2       2 ALA2        0.0000 
      2 CZ         54.6990   -2.5322   74.1417 C.ar      4 PHE5        0.0000 
      3 N          51.3923   -7.7569   82.7595 N.2       2 ALA2        0.0000 
      4 N          51.6563   -7.0208   81.4795 N.2       2 ALA2        0.0000 
      5 NZ         51.9203   -6.2847   80.1995 N.2       3 LYS4        0.0000 
      6 CA         52.1843   -5.5486   78.9195 C.3       5 GLY6        0.0000 
      7 OG         52.4483   -4.8124   77.6395 O.2       1 SER1        0.0000 
      8 CZ         52.7124   -4.0763   76.3595 C.ar      4 PHE5        0.0000 
      9 CZ         52.9764   -3.3402   75.0795 C.ar      4 PHE5        0.0000 
     10 CZ         53.2404   -2.6041   73.7995 C.ar      4 PHE5        0.0000 
     11 O          49.9336   -7.8288   82.4173 O.2       2 ALA2        0.0000 
     12 NZ         50.1976   -7.0927   81.1373 N.2       3 LYS4        0.0000 
     13 NZ         50.7257   -5.6205   78.5773 N.2       3 LYS4        0.0000 
     14 OG         50.9897   -4.8844   77.2973 O.2       1 SER1        0.0000 
     15 CZ         49.5310   -4.9563   76.9550 C.ar      4 PHE5        0.0000 
     16 CZ         48.0723   -5.0282   76.6128 C.ar      4 PHE5        0.0000 
     17 N          41.9256  -11.9127   71.3858 N.2       2 ALA2        0.0000 
     18 DU         40.2029  -12.7208   72.3236 H         6 CUB7        0.0000 
     19 NZ         40.4670  -11.9847   71.0436 N.2       3 LYS4        0.0000 
     20 OG         43.8563  -10.6312   76.0367 O.2       1 SER1        0.0000 
     21 CA         41.8696  -12.1753   78.2545 C.3       5 GLY6        0.0000 
     22 CZ         42.1336  -11.4392   76.9744 C.ar      4 PHE5        0.0000 
     23 CZ         42.3976  -10.7031   75.6944 C.ar      4 PHE5        0.0000 
     24 CZ         42.6616   -9.9670   74.4144 C.ar      4 PHE5        0.0000 
     25 CZ         42.9256   -9.2309   73.1344 C.ar      4 PHE5        0.0000 
     26 CZ         40.6749  -11.5111   76.6322 C.ar      4 PHE5        0.0000 
     27 DU         40.9390  -10.7750   75.3522 H         6 CUB7        0.0000 
     28 N          41.2030  -10.0389   74.0722 N.2       2 ALA2        0.0000 
     29 N          39.9736  -11.4158   73.0268 N.2       2 ALA2        0.0000 
     30 CA         51.1630   -6.4519   83.4627 C.3       5 GLY6        0.0000 
     31 N          51.4270   -5.7158   82.1827 N.2       2 ALA2        0.0000 
     32 CA         51.6910   -4.9797   80.9027 C.3       5 GLY6        0.0000 
     33 CA         51.9550   -4.2436   79.6227 C.3       5 GLY6        0.0000 
     34 CA         52.2190   -3.5075   78.3427 C.3       5 GLY6        0.0000 
     35 CA         52.4830   -2.7713   77.0627 C.3       5 GLY6        0.0000 
     36 CZ         52.7470   -2.0352   75.7826 C.ar      4 PHE5        0.0000 
     37 N          53.0111   -1.2991   74.5026 N.2       2 ALA2        0.0000 
     38 DU         39.4803  -10.8469   75.0100 H         6 CUB7        0.0000 
     39 N          39.7443  -10.1108   73.7300 N.2       2 ALA2        0.0000 
     40 N          44.5789  -12.5050   73.3503 N.2       2 ALA2        0.0000 
     41 CZ         45.3843   -6.4770   75.2252 C.ar      4 PHE5        0.0000 
     42 CZ         45.6483   -5.7409   73.9452 C.ar      4 PHE5        0.0000 
     43 CZ         43.6617   -7.2851   76.1630 C.ar      4 PHE5        0.0000 
     44 CZ         43.9257   -6.5490   74.8830 C.ar      4 PHE5        0.0000 
     45 CZ         44.1897   -5.8129   73.6030 C.ar      4 PHE5        0.0000 
     46 CZ         42.2030   -7.3570   75.8208 C.ar      4 PHE5        0.0000 
     47 O          42.4670   -6.6209   74.5407 O.2       2 ALA2        0.0000 
     48 N          40.7443   -7.4289   75.4785 N.2       2 ALA2        0.0000 
     49 CA         41.0083   -6.6928   74.1985 C.3       5 GLY6        0.0000 
     50 N          52.6910   -2.2978   82.6513 N.2       2 ALA2        0.0000 
     51 CZ         52.9550   -1.5617   81.3712 C.ar      4 PHE5        0.0000 
     52 CA         51.2323   -2.3697   82.3090 C.3       5 GLY6        0.0000 
     53 N          51.4964   -1.6336   81.0290 N.2       2 ALA2        0.0000 
     54 CZ         51.7604   -0.8975   79.7490 C.ar      4 PHE5        0.0000 
     55 CZ         52.0244   -0.1614   78.4690 C.ar      4 PHE5        0.0000 
     56 CZ         52.2884    0.5747   77.1890 C.ar      4 PHE5        0.0000 
     57 OG         46.6137   -5.1001   76.2706 O.2       1 SER1        0.0000 
     58 CZ         46.8777   -4.3640   74.9906 C.ar      4 PHE5        0.0000 
     59 OG         45.1550   -5.1721   75.9284 O.2       1 SER1        0.0000 
     60 CZ         45.4190   -4.4360   74.6484 C.ar      4 PHE5        0.0000 
     61 CZ         43.4323   -5.9801   76.8662 C.ar      4 PHE5        0.0000 
     62 CZ         43.6963   -5.2440   75.5861 C.ar      4 PHE5        0.0000 
     63 O          43.9604   -4.5079   74.3061 O.2       2 ALA2        0.0000 
     64 N          42.2377   -5.3159   75.2439 N.2       2 ALA2        0.0000 
     65 OG         43.5576  -13.4084   77.8935 O.2       1 SER1        0.0000 
     66 OG         43.8216  -12.6722   76.6135 O.2       1 SER1        0.0000 
     67 CZ         44.0856  -11.9361   75.3335 C.ar      4 PHE5        0.0000 
     68 CZ         44.3496  -11.2000   74.0535 C.ar      4 PHE5        0.0000 
     69 DU         42.3629  -12.7442   76.2713 H         6 CUB7        0.0000 
     70 DU         42.6269  -12.0081   74.9913 H         6 CUB7        0.0000 
     71 CZ         42.8910  -11.2719   73.7112 C.ar      4 PHE5        0.0000 
     72 CA         43.1550  -10.5358   72.4312 C.3       5 GLY6        0.0000 
     73 DU         41.4323  -11.3439   73.3690 H         6 CUB7        0.0000 
     74 N          41.6963  -10.6078   72.0890 N.2       2 ALA2        0.0000 
     75 CZ         42.1683   -9.3981   76.3976 C.ar      4 PHE5        0.0000 
     76 CZ         42.4323   -8.6620   75.1176 C.ar      4 PHE5        0.0000 
     77 CZ         42.6963   -7.9259   73.8376 C.ar      4 PHE5        0.0000 
     78 CZ         54.6644   -4.5733   74.7185 C.ar      4 PHE5        0.0000 
     79 CZ         54.9284   -3.8371   73.4385 C.ar      4 PHE5        0.0000 
     80 OG         51.1977   -4.4108   82.8859 O.2       1 SER1        0.0000 
     81 N          51.4617   -3.6747   81.6059 N.2       2 ALA2        0.0000 
     82 CA         51.7257   -2.9386   80.3258 C.3       5 GLY6        0.0000 
     83 CZ         51.9897   -2.2025   79.0458 C.ar      4 PHE5        0.0000 
     84 CZ         52.2537   -1.4664   77.7658 C.ar      4 PHE5        0.0000 
     85 N          52.5177   -0.7303   76.4858 N.2       2 ALA2        0.0000 
     86 OG         50.0030   -3.7466   81.2636 O.2       1 SER1        0.0000 
     87 OG         50.2670   -3.0105   79.9836 O.2       1 SER1        0.0000 
     88 DU         50.5310   -2.2744   78.7036 H         6 CUB7        0.0000 
     89 DU         50.7950   -1.5383   77.4236 H         6 CUB7        0.0000 
     90 CA         51.0591   -0.8022   76.1436 C.3       5 GLY6        0.0000 
     91 OG         48.8084   -3.0825   79.6414 O.2       1 SER1        0.0000 
     92 CA         49.0724   -2.3463   78.3614 C.3       5 GLY6        0.0000 
     93 DU         49.3364   -1.6102   77.0814 H         6 CUB7        0.0000 
     94 CA         49.6004   -0.8741   75.8014 C.3       5 GLY6        0.0000 
     95 OG         47.3497   -3.1544   79.2992 O.2       1 SER1        0.0000 
     96 OG         47.6137   -2.4183   78.0192 O.2       1 SER1        0.0000 
     97 CZ         47.8777   -1.6822   76.7391 C.ar      4 PHE5        0.0000 
     98 CZ         46.1550   -2.4902   77.6769 C.ar      4 PHE5        0.0000 
     99 CZ         46.4190   -1.7541   76.3969 C.ar      4 PHE5        0.0000 
    100 CA         49.7043   -6.5238   83.1205 C.3       5 GLY6        0.0000 
    101 OG         49.9683   -5.7877   81.8405 O.2       1 SER1        0.0000 
    102 NZ         50.2323   -5.0516   80.5605 N.2       3 LYS4        0.0000 
    103 NZ         50.4963   -4.3155   79.2805 N.2       3 LYS4        0.0000 
    104 CZ         50.7604   -3.5794   78.0004 C.ar      4 PHE5        0.0000 
    105 CZ         51.0244   -2.8433   76.7204 C.ar      4 PHE5        0.0000 
    106 CZ         51.2884   -2.1072   75.4404 C.ar      4 PHE5        0.0000 
    107 CZ         51.5524   -1.3710   74.1604 C.ar      4 PHE5        0.0000 
    108 NZ         48.7737   -5.1235   80.2182 N.2       3 LYS4        0.0000 
    109 OG         49.0377   -4.3874   78.9382 O.2       1 SER1        0.0000 
    110 CZ         49.3017   -3.6513   77.6582 C.ar      4 PHE5        0.0000 
    111 CZ         49.5657   -2.9152   76.3782 C.ar      4 PHE5        0.0000 
    112 OG         47.8430   -3.7232   77.3160 O.2       1 SER1        0.0000 
    113 CZ         48.1070   -2.9871   76.0360 C.ar      4 PHE5        0.0000 
    114 OG         46.3844   -3.7952   76.9738 O.2       1 SER1        0.0000 
    115 CZ         46.6484   -3.0591   75.6937 C.ar      4 PHE5        0.0000 
    116 CZ         44.9257   -3.8671   76.6315 C.ar      4 PHE5        0.0000 
    117 CZ         45.1897   -3.1310   75.3515 C.ar      4 PHE5        0.0000 
    118 CA         50.0377   -1.7056   80.6868 C.3       5 GLY6        0.0000 
    119 CA         50.3017   -0.9694   79.4068 C.3       5 GLY6        0.0000 
    120 DU         50.5657   -0.2333   78.1268 H         6 CUB7        0.0000 
    121 CA         50.8297    0.5028   76.8468 C.3       5 GLY6        0.0000 
    122 CA         48.8430   -1.0414   79.0646 C.3       5 GLY6        0.0000 
    123 CA         49.1071   -0.3052   77.7845 C.3       5 GLY6        0.0000 
    124 O          47.3844   -1.1133   78.7223 O.2       2 ALA2        0.0000 
    125 OG         47.6484   -0.3772   77.4423 O.2       1 SER1        0.0000 
    126 O          45.9257   -1.1852   78.3801 O.2       2 ALA2        0.0000 
    127 CZ         46.1897   -0.4491   77.1001 C.ar      4 PHE5        0.0000 
    128 OG         52.7257   -0.2567   82.0744 O.2       1 SER1        0.0000 
    129 OG         52.9897    0.4794   80.7944 O.2       1 SER1        0.0000 
    130 N          51.2670   -0.3286   81.7322 N.2       2 ALA2        0.0000 
    131 N          51.5311    0.4075   80.4522 N.2       2 ALA2        0.0000 
    132 NZ         51.7951    1.1436   79.1722 N.2       3 LYS4        0.0000 
    133 O          50.0724    0.3355   80.1100 O.2       2 ALA2        0.0000 
    134 NZ         50.3364    1.0717   78.8299 N.2       3 LYS4        0.0000 
    135 OG         48.8777    0.9997   78.4877 O.2       1 SER1        0.0000 
    136 CZ         40.7096   -9.4700   76.0554 C.ar      4 PHE5        0.0000 
    137 N          40.9736   -8.7339   74.7754 N.2       2 ALA2        0.0000 
    138 CA         39.2510   -9.5420   75.7131 C.3       5 GLY6        0.0000 
    139 N          39.5150   -8.8058   74.4331 N.2       2 ALA2        0.0000 
@<TRIPOS>BOND
@<TRIPOS>SUBSTRUCTURE
     1 SER1        7 GROUP   
     2 ALA2        1 GROUP   
     3 LYS4        5 GROUP   
     4 PHE5        2 GROUP   
     5 GLY6        6 GROUP   
     6 CUB7       18 GROUP   
@<TRIPOS>SET

