#    Name: 4a16_H34_4_INTS_M
#    Modification time : Tue Mar 25 04:49:21 2014

@<TRIPOS>MOLECULE
4a16_H34_4_INTS_M
   61     0     9     0     0
SMALL
NO_CHARGES


@<TRIPOS>ATOM
      1 CA         56.0070   -4.4265   72.0360 C.3       3 GLC5        0.0000 
      2 CA         54.8280   -3.3080   71.9310 C.3       9 GLL5        0.0000 
      3 CA         57.1860   -5.5450   72.1410 C.3       6 GLP5        0.0000 
      4 CA         54.4045   -3.9305   70.0630 C.3       3 GLC5        0.0000 
      5 CA         53.9810   -4.5530   68.1950 C.3       6 GLP5        0.0000 
      6 CA         54.7450   -1.6860   70.8615 C.3       3 GLC5        0.0000 
      7 CA         54.6620   -0.0640   69.7920 C.3       6 GLP5        0.0000 
      8 CA         55.8805   -2.0630   72.6500 C.3       3 GLC5        0.0000 
      9 CA         56.9330   -0.8180   73.3690 C.3       6 GLP5        0.0000 
     10 CA         52.4170   -2.5120   72.5760 C.3       3 GLC5        0.0000 
     11 CA         53.7250   -1.9330   74.0880 C.3       9 GLL5        0.0000 
     12 CA         51.1090   -3.0910   71.0640 C.3       6 GLP5        0.0000 
     13 O          53.0725    0.2890   74.7640 O.2       1 ALC1        0.0000 
     14 O          52.7730   -0.6260   75.7910 O.2       7 ALL1        0.0000 
     15 O          53.3720    1.2040   73.7370 O.2       4 ALP1        0.0000 
     16 CA         53.7950    0.8925   77.8185 C.3       3 GLC5        0.0000 
     17 CA         51.8140    0.8230   77.3960 C.3       9 GLL5        0.0000 
     18 CA         55.7760    0.9620   78.2410 C.3       6 GLP5        0.0000 
     19 CA         52.9755    2.0855   76.3665 C.3       3 GLC5        0.0000 
     20 CA         54.1370    3.3480   75.3370 C.3       6 GLP5        0.0000 
     21 CA         49.1105   -3.6725   75.7610 C.3       3 GLC5        0.0000 
     22 CA         47.9060   -2.7390   77.0170 C.3       9 GLL5        0.0000 
     23 CA         50.3150   -4.6060   74.5050 C.3       6 GLP5        0.0000 
     24 CA         45.5330   -3.9725   78.4090 C.3       3 GLC5        0.0000 
     25 CA         46.5180   -3.2900   76.6870 C.3       9 GLL5        0.0000 
     26 CA         44.5480   -4.6550   80.1310 C.3       6 GLP5        0.0000 
     27 CA         44.6420   -2.9575   76.9910 C.3       3 GLC5        0.0000 
     28 CA         42.7660   -2.6250   77.2950 C.3       6 GLP5        0.0000 
     29 CA         48.4790   -4.5675   75.1335 C.3       3 GLC5        0.0000 
     30 CA         46.6430   -4.5290   75.7620 C.3       9 GLL5        0.0000 
     31 CA         47.1300   -6.4585   75.7045 C.3       3 GLC5        0.0000 
     32 CA         47.6170   -8.3880   75.6470 C.3       6 GLP5        0.0000 
     33 N          42.4950   -4.3130   73.5515 N.am      2 SEC2        0.0000 
     34 N          43.3380   -5.0630   74.4160 N.am      8 SEL2        0.0000 
     35 N          41.6520   -3.5630   72.6870 N.am      5 SEP2        0.0000 
     36 CA         41.4520   -7.2770   77.2105 C.3       3 GLC5        0.0000 
     37 CA         42.1000   -6.8610   75.6020 C.3       9 GLL5        0.0000 
     38 CA         40.8040   -7.6930   78.8190 C.3       6 GLP5        0.0000 
     39 CA         43.7490   -7.9150   75.1435 C.3       3 GLC5        0.0000 
     40 CA         45.3980   -8.9690   74.6850 C.3       6 GLP5        0.0000 
     41 CA         53.2950   -0.7043   79.6775 C.3       3 GLC5        0.0000 
     42 CA         51.4230   -0.0010   79.6870 C.3       9 GLL5        0.0000 
     43 CA         55.1290   -0.6750   79.9090 C.3       6 GLP5        0.0000 
     44 CA         49.4537   -0.0585   80.3698 C.3       3 GLC5        0.0000 
     45 CA         47.7940   -0.4910   81.6290 C.3       6 GLP5        0.0000 
     46 CA         53.6715   -3.0790   78.9567 C.3       3 GLC5        0.0000 
     47 CA         52.1050   -1.5830   77.8940 C.3       9 GLL5        0.0000 
     48 CA         55.0090   -3.9560   80.2720 C.3       6 GLP5        0.0000 
     49 CA         52.8018   -3.1683   71.9200 C.3       3 GLC5        0.0000 
     50 CA         54.1610   -3.1830   73.6210 C.3       9 GLL5        0.0000 
     51 CA         50.7283    0.8442   75.8535 C.3       3 GLC5        0.0000 
     52 CA         52.2370   -0.4700   77.0260 C.3       9 GLL5        0.0000 
     53 CA         49.4310    1.5120   74.4960 C.3       6 GLP5        0.0000 
     54 CA         49.0907    2.1723   78.3723 C.3       3 GLC5        0.0000 
     55 CA         50.8040    0.7490   78.5340 C.3       9 GLL5        0.0000 
     56 CA         48.0010    3.9140   78.3910 C.3       6 GLP5        0.0000 
     57 CA         49.8058    0.9713   76.4247 C.3       3 GLC5        0.0000 
     58 CA         49.5570    0.1120   78.1730 C.3       9 GLL5        0.0000 
     59 CA         48.2676   -0.8441   79.9541 C.3       3 GLC5        0.0000 
     60 CA         46.4758   -2.6724   74.8015 C.3       3 GLC5        0.0000 
     61 CA         46.0240   -1.5730   73.2960 C.3       6 GLP5        0.0000 
@<TRIPOS>BOND
@<TRIPOS>SUBSTRUCTURE
     1 ALC1       13 GROUP        1 X    ALC  0     ROOT ALC X 1
     2 SEC2       33 GROUP        1 X    SEC  0     **** SEC X 2
     3 GLC5        1 GROUP        1 X    GLC  0     **** GLC X 6
     4 ALP1       15 GROUP        1 Y    ALP  0     ROOT ALP Y 8
     5 SEP2       35 GROUP        1 Y    SEP  0     **** SEP Y 9
     6 GLP5        3 GROUP        1 Y    GLP  0     **** GLP Y 13
     7 ALL1       14 GROUP        1 Z    ALL  0     ROOT ALL Z 15
     8 SEL2       34 GROUP        1 Z    SEL  0     **** SEL Z 16
     9 GLL5        2 GROUP        1 Z    GLL  0     **** GLL Z 20
@<TRIPOS>SET

