#    Name: 4a16_H34_4_ligand
#    Modification time : Tue Mar 25 04:49:21 2014

@<TRIPOS>MOLECULE
4a16_H34_4_ligand
   57    61     1     0     0
SMALL
NO_CHARGES


@<TRIPOS>ATOM
      1 CAN        50.0710   -2.0860   79.1600 C.3       1 H341545     0.0000 
      2 CBC        51.4990   -1.4660   79.2050 C.3       1 H341545     0.0000 
      3 CAP        51.4230   -0.0010   79.6870 C.3       1 H341545     0.0000 
      4 CAY        52.1050   -1.5830   77.8940 C.ar      1 H341545     0.0000 
      5 CAV        52.5630   -2.8210   77.3890 C.ar      1 H341545     0.0000 
      6 NAA        52.5010   -3.9500   78.0970 N.pl3     1 H341545     0.0000 
      7 CBA        53.0970   -2.9500   76.1210 C.ar      1 H341545     0.0000 
      8 CAF        53.5200   -4.2060   75.6780 C.ar      1 H341545     0.0000 
      9 CAE        54.0460   -4.3300   74.4100 C.ar      1 H341545     0.0000 
     10 CAU        54.1610   -3.1830   73.6210 C.ar      1 H341545     0.0000 
     11 CL1        54.8280   -3.3080   71.9310 Cl        1 H341545     0.0000 
     12 CAG        53.7250   -1.9330   74.0880 C.ar      1 H341545     0.0000 
     13 CAZ        53.1870   -1.8140   75.3370 C.ar      1 H341545     0.0000 
     14 NAS        52.7730   -0.6260   75.7910 N.pl3     1 H341545     0.0000 
     15 CAX        52.2370   -0.4700   77.0260 C.ar      1 H341545     0.0000 
     16 CAO        51.8140    0.8230   77.3960 C.3       1 H341545     0.0000 
     17 CBB        50.8040    0.7490   78.5340 C.3       1 H341545     0.0000 
     18 CAD        49.5570    0.1120   78.1730 C.2       1 H341545     0.0000 
     19 CAT        49.1890   -1.2160   78.4630 C.2       1 H341545     0.0000 
     20 CAL        47.8890   -1.6250   78.0660 C.3       1 H341545     0.0000 
     21 CAJ        47.9060   -2.7390   77.0170 C.3       1 H341545     0.0000 
     22 CAK        46.5180   -3.2900   76.6870 C.3       1 H341545     0.0000 
     23 CAM        46.6430   -4.5290   75.7620 C.3       1 H341545     0.0000 
     24 NBD        45.2480   -5.0290   75.4640 N.pl3     1 H341545     0.0000 
     25 CAH        44.4900   -5.9770   76.0220 C.2       1 H341545     0.0000 
     26 NAR        44.5210   -4.4880   74.5260 N.2       1 H341545     0.0000 
     27 NAQ        43.3380   -5.0630   74.4160 N.2       1 H341545     0.0000 
     28 CAW        43.3190   -5.9750   75.3560 C.2       1 H341545     0.0000 
     29 CAI        42.1000   -6.8610   75.6020 C.3       1 H341545     0.0000 
     30 OAB        41.8990   -7.6210   74.4270 O.3       1 H341545     0.0000 
     31 H          49.7619   -2.2497   80.1972 H         1 H341545     0.0000 
     32 H          50.1629   -3.0629   78.6748 H         1 H341545     0.0000 
     33 H          52.0625   -2.0325   79.9409 H         1 H341545     0.0000 
     34 H          52.4082    0.3538   79.8765 H         1 H341545     0.0000 
     35 H          50.7954    0.0502   80.5449 H         1 H341545     0.0000 
     36 H          52.1659   -3.8632   79.0352 H         1 H341545     0.0000 
     37 H          52.7952   -4.7815   77.6259 H         1 H341545     0.0000 
     38 H          53.4366   -5.0190   76.2944 H         1 H341545     0.0000 
     39 H          54.3466   -5.2339   74.0485 H         1 H341545     0.0000 
     40 H          53.8190   -1.1104   73.4711 H         1 H341545     0.0000 
     41 H          52.8638    0.2265   75.1701 H         1 H341545     0.0000 
     42 H          51.3325    1.3559   76.5600 H         1 H341545     0.0000 
     43 H          52.6528    1.4507   77.7380 H         1 H341545     0.0000 
     44 H          50.6192    1.7715   78.8822 H         1 H341545     0.0000 
     45 H          48.8642    0.7133   77.6402 H         1 H341545     0.0000 
     46 H          47.3072   -0.7805   77.6389 H         1 H341545     0.0000 
     47 H          47.2955   -1.9954   78.9289 H         1 H341545     0.0000 
     48 H          48.5402   -3.5615   77.3800 H         1 H341545     0.0000 
     49 H          48.3664   -2.3540   76.0948 H         1 H341545     0.0000 
     50 H          45.9364   -2.5317   76.1778 H         1 H341545     0.0000 
     51 H          46.0166   -3.5855   77.6001 H         1 H341545     0.0000 
     52 H          47.2093   -5.2865   76.2748 H         1 H341545     0.0000 
     53 H          47.1353   -4.2321   74.8526 H         1 H341545     0.0000 
     54 H          44.7263   -6.5492   76.7522 H         1 H341545     0.0000 
     55 H          41.2572   -6.2121   75.8251 H         1 H341545     0.0000 
     56 H          42.3110   -7.4837   76.4673 H         1 H341545     0.0000 
     57 H          40.9770   -7.3844   74.1205 H         1 H341545     0.0000 
@<TRIPOS>BOND
     1    2    1 1    
     2   19    1 1    
     3   31    1 1    
     4   32    1 1    
     5    3    2 1    
     6    4    2 1    
     7   33    2 1    
     8   17    3 1    
     9   34    3 1    
    10   35    3 1    
    11    5    4 ar   
    12   15    4 ar   
    13    6    5 1    
    14    7    5 ar   
    15   36    6 1    
    16   37    6 1    
    17    8    7 ar   
    18   13    7 ar   
    19    9    8 ar   
    20   38    8 1    
    21   10    9 ar   
    22   39    9 1    
    23   11   10 1    
    24   12   10 ar   
    25   13   12 ar   
    26   40   12 1    
    27   14   13 ar   
    28   15   14 ar   
    29   41   14 1    
    30   16   15 1    
    31   17   16 1    
    32   42   16 1    
    33   43   16 1    
    34   18   17 1    
    35   44   17 1    
    36   19   18 2    
    37   45   18 1    
    38   20   19 1    
    39   21   20 1    
    40   46   20 1    
    41   47   20 1    
    42   22   21 1    
    43   48   21 1    
    44   49   21 1    
    45   23   22 1    
    46   50   22 1    
    47   51   22 1    
    48   24   23 1    
    49   52   23 1    
    50   53   23 1    
    51   25   24 1    
    52   26   24 1    
    53   28   25 2    
    54   54   25 1    
    55   27   26 2    
    56   28   27 1    
    57   29   28 1    
    58   30   29 1    
    59   55   29 1    
    60   56   29 1    
    61   57   30 1    
@<TRIPOS>SUBSTRUCTURE
     1 H341545     1 GROUP   
@<TRIPOS>SET

