#    Name: 3lnk_74A_1_INTS_M
#    Modification time : Mon Mar 24 21:55:24 2014

@<TRIPOS>MOLECULE
3lnk_74A_1_INTS_M
   86     0    12     0     0
SMALL
NO_CHARGES


@<TRIPOS>ATOM
      1 CA         28.2390   11.5110   18.0980 C.3       4 GLC5        0.0000 
      2 CA         26.8380   10.8410   18.9120 C.3      12 GLL5        0.0000 
      3 CA         29.6400   12.1810   17.2840 C.3       8 GLP5        0.0000 
      4 CA         27.2805    9.9200   17.5990 C.3       4 GLC5        0.0000 
      5 CA         27.7230    8.9990   16.2860 C.3       8 GLP5        0.0000 
      6 N          19.0915   15.1665   23.5470 N.am      2 SEC2        0.0000 
      7 N          18.7770   14.0810   24.2960 N.am     10 SEL2        0.0000 
      8 N          19.4060   16.2520   22.7980 N.am      6 SEP2        0.0000 
      9 N          19.6300   15.2410   24.8510 N.am      2 SEC2        0.0000 
     10 N          20.4830   16.4010   25.4060 N.am      6 SEP2        0.0000 
     11 CA         21.2060   12.9460   18.6130 C.3       4 GLC5        0.0000 
     12 CA         22.9970   13.3960   18.3660 C.3      12 GLL5        0.0000 
     13 CA         19.4150   12.4960   18.8600 C.3       8 GLP5        0.0000 
     14 CA         22.2015   14.9690   17.8985 C.3       4 GLC5        0.0000 
     15 CA         21.4060   16.5420   17.4310 C.3       8 GLP5        0.0000 
     16 CA         22.5325   12.3945   17.1250 C.3       4 GLC5        0.0000 
     17 CA         22.0680   11.3930   15.8840 C.3       8 GLP5        0.0000 
     18 O          24.7015   10.9220   23.4240 O.2       1 ALC1        0.0000 
     19 O          23.5040   11.7310   23.2950 O.2       9 ALL1        0.0000 
     20 O          25.8990   10.1130   23.5530 O.2       5 ALP1        0.0000 
     21 N          29.3615   12.6760   25.0510 N.am      2 SEC2        0.0000 
     22 N          29.0280   13.7420   24.1420 N.am     10 SEL2        0.0000 
     23 N          29.6950   11.6100   25.9600 N.am      6 SEP2        0.0000 
     24 N          30.4200   13.0575   24.1495 N.am      2 SEC2        0.0000 
     25 N          31.8120   12.3730   24.1570 N.am      6 SEP2        0.0000 
     26 OD1        22.3510    8.9055   26.5195 O.co2     3 ASC3        0.0000 
     27 OD1        20.8220    9.9890   26.3000 O.co2    11 ASL3        0.0000 
     28 OD1        23.8800    7.8220   26.7390 O.co2     7 ASP3        0.0000 
     29 OD1        21.9470    9.8170   26.9975 O.co2     3 ASC3        0.0000 
     30 OD1        23.0720    9.6450   27.6950 O.co2     7 ASP3        0.0000 
     31 O          21.3435    7.9265   23.0835 O.2       1 ALC1        0.0000 
     32 O          20.9410    8.9940   23.6350 O.2       9 ALL1        0.0000 
     33 O          21.7460    6.8590   22.5320 O.2       5 ALP1        0.0000 
     34 CA         19.5080   11.5145   22.7305 C.3       4 GLC5        0.0000 
     35 CA         19.9420   11.5450   24.4770 C.3      12 GLL5        0.0000 
     36 CA         19.0740   11.4840   20.9840 C.3       8 GLP5        0.0000 
     37 CA         24.5060    8.8200   22.9305 C.3       4 GLC5        0.0000 
     38 CA         23.0310    9.8550   21.8090 C.3      12 GLL5        0.0000 
     39 CA         25.9810    7.7850   24.0520 C.3       8 GLP5        0.0000 
     40 CA         26.8185   14.0865   25.9305 C.3       4 GLC5        0.0000 
     41 CA         26.7270   15.5280   24.2230 C.3      12 GLL5        0.0000 
     42 CA         26.9100   12.6450   27.6380 C.3       8 GLP5        0.0000 
     43 CA         22.6350   16.1970   24.4215 C.3       4 GLC5        0.0000 
     44 CA         24.3090   15.1110   24.4430 C.3      12 GLL5        0.0000 
     45 CA         20.9610   17.2830   24.4000 C.3       8 GLP5        0.0000 
     46 CA         21.2550   12.8245   20.4410 C.3       4 GLC5        0.0000 
     47 CA         22.9880   11.6850   19.9960 C.3      12 GLL5        0.0000 
     48 CA         19.5220   13.9640   20.8860 C.3       8 GLP5        0.0000 
     49 CA         20.4530    8.5515   27.0280 C.3       4 GLC5        0.0000 
     50 CA         19.9690   10.6970   27.2830 C.3      12 GLL5        0.0000 
     51 CA         20.9370    6.4060   26.7730 C.3       8 GLP5        0.0000 
     52 CA         20.3780    9.9905   29.0515 C.3       4 GLC5        0.0000 
     53 CA         20.7870    9.2840   30.8200 C.3       8 GLP5        0.0000 
     54 CA         30.9395   12.7485   23.5930 C.3       4 GLC5        0.0000 
     55 CA         29.9450   12.9110   21.6220 C.3      12 GLL5        0.0000 
     56 CA         31.9340   12.5860   25.5640 C.3       8 GLP5        0.0000 
     57 CA         23.3995   17.9235   25.2530 C.3       4 GLC5        0.0000 
     58 CA         25.3310   17.2760   25.4790 C.3      12 GLL5        0.0000 
     59 CA         21.4680   18.5710   25.0270 C.3       8 GLP5        0.0000 
     60 CA         31.4315   10.8785   20.0430 C.3       4 GLC5        0.0000 
     61 CA         29.8600   11.4460   21.1230 C.3      12 GLL5        0.0000 
     62 CA         33.0030   10.3110   18.9630 C.3       8 GLP5        0.0000 
     63 CA         30.1110    8.9080   21.2400 C.3       4 GLC5        0.0000 
     64 CA         28.9420   10.5950   22.0150 C.3      12 GLL5        0.0000 
     65 CA         31.2800    7.2210   20.4650 C.3       8 GLP5        0.0000 
     66 CA         28.1605   10.7205   23.9670 C.3       4 GLC5        0.0000 
     67 CA         27.3790   10.8460   25.9190 C.3       8 GLP5        0.0000 
     68 CA         26.0278    9.0055   19.1857 C.3       4 GLC5        0.0000 
     69 CA         25.6270   11.0870   19.2590 C.3      12 GLL5        0.0000 
     70 CA         25.8230    7.0470   19.2860 C.3       8 GLP5        0.0000 
     71 CA         26.8555   12.3730   24.6412 C.3       4 GLC5        0.0000 
     72 CA         25.7670   13.4920   23.2220 C.3      12 GLL5        0.0000 
     73 CA         25.0975    8.7747   19.8940 C.3       4 GLC5        0.0000 
     74 CA         23.6990   10.6490   20.6760 C.3      12 GLL5        0.0000 
     75 CA         22.6895    8.6575   20.1762 C.3       4 GLC5        0.0000 
     76 CA         22.0140    7.0630   19.1100 C.3       8 GLP5        0.0000 
     77 CA         20.8396   10.7948   21.8246 C.3       4 GLC5        0.0000 
     78 CA         18.1878    9.9150   27.8385 C.3       4 GLC5        0.0000 
     79 CA         18.6520   11.1650   26.5710 C.3      12 GLL5        0.0000 
     80 CA         17.0650    8.8990   28.7500 C.3       8 GLP5        0.0000 
     81 CA         29.7713   12.1797   19.3282 C.3       4 GLC5        0.0000 
     82 CA         28.8785   13.3048   18.7563 C.3       4 GLC5        0.0000 
     83 CA         27.7720   13.9130   20.6930 C.3      12 GLL5        0.0000 
     84 CA         17.1243   16.3403   29.5625 C.3       4 GLC5        0.0000 
     85 CA         17.1700   15.1640   28.3300 C.3      12 GLL5        0.0000 
     86 CA         17.7860   17.6060   30.8890 C.3       8 GLP5        0.0000 
@<TRIPOS>BOND
@<TRIPOS>SUBSTRUCTURE
     1 ALC1       18 GROUP        1 X    ALC  0     ROOT ALC X 1
     2 SEC2        6 GROUP        1 X    SEC  0     **** SEC X 2
     3 ASC3       26 GROUP        1 X    ASC  0     **** ASC X 3
     4 GLC5        1 GROUP        1 X    GLC  0     **** GLC X 6
     5 ALP1       20 GROUP        1 Y    ALP  0     ROOT ALP Y 8
     6 SEP2        8 GROUP        1 Y    SEP  0     **** SEP Y 9
     7 ASP3       28 GROUP        1 Y    ASP  0     **** ASP Y 10
     8 GLP5        3 GROUP        1 Y    GLP  0     **** GLP Y 13
     9 ALL1       19 GROUP        1 Z    ALL  0     ROOT ALL Z 15
    10 SEL2        7 GROUP        1 Z    SEL  0     **** SEL Z 16
    11 ASL3       27 GROUP        1 Z    ASL  0     **** ASL Z 17
    12 GLL5        2 GROUP        1 Z    GLL  0     **** GLL Z 20
@<TRIPOS>SET

