#    Name: 3lnk_74A_1_ligand
#    Modification time : Mon Mar 24 21:55:25 2014

@<TRIPOS>MOLECULE
3lnk_74A_1_ligand
   86    89     1     0     0
SMALL
NO_CHARGES


@<TRIPOS>ATOM
      1 C1         18.4900   13.3590   25.2480 C.2       1 74A1        0.0000 
      2 F1         26.8380   10.8410   18.9120 F         1 74A1        0.0000 
      3 N1         18.9890   12.1110   25.4530 N.am      1 74A1        0.0000 
      4 O1         18.7770   14.0810   24.2960 O.2       1 74A1        0.0000 
      5 C2         26.8970   14.3080   23.5050 C.ar      1 74A1        0.0000 
      6 F2         22.9970   13.3960   18.3660 F         1 74A1        0.0000 
      7 N2         23.5040   11.7310   23.2950 N.am      1 74A1        0.0000 
      8 O2         29.0280   13.7420   24.1420 O.2       1 74A1        0.0000 
      9 C3         28.2720   13.8600   23.1470 C.2       1 74A1        0.0000 
     10 N3         20.8220    9.9890   26.3000 N.4       1 74A1        0.0000 
     11 O3         22.2150   13.5840   23.2130 O.2       1 74A1        0.0000 
     12 C4         23.3010   13.0360   23.3900 C.2       1 74A1        0.0000 
     13 N4         28.6280   13.5430   21.8730 N.am      1 74A1        0.0000 
     14 O4         20.9410    8.9940   23.6350 O.3       1 74A1        0.0000 
     15 C5         21.1780   10.8440   25.1400 C.3       1 74A1        0.0000 
     16 C6         22.4520   10.7620   22.9250 C.3       1 74A1        0.0000 
     17 C7         24.4740   13.8830   23.7000 C.ar      1 74A1        0.0000 
     18 C8         21.9070    9.9500   24.1180 C.3       1 74A1        0.0000 
     19 C9         19.9420   11.5450   24.4770 C.3       1 74A1        0.0000 
     20 C10        25.7670   13.4920   23.2220 C.ar      1 74A1        0.0000 
     21 C11        23.6990   10.6490   20.6760 C.ar      1 74A1        0.0000 
     22 C12        23.0310    9.8550   21.8090 C.3       1 74A1        0.0000 
     23 C13        26.7270   15.5280   24.2230 C.ar      1 74A1        0.0000 
     24 C14        24.3090   15.1110   24.4430 C.ar      1 74A1        0.0000 
     25 C15        17.5390   13.9210   26.2380 C.ar      1 74A1        0.0000 
     26 C16        24.9680   12.1010   18.5590 C.ar      1 74A1        0.0000 
     27 C17        25.6270   11.0870   19.2590 C.ar      1 74A1        0.0000 
     28 C18        23.6460   12.4000   18.9710 C.ar      1 74A1        0.0000 
     29 C19        25.4670   15.9380   24.6970 C.ar      1 74A1        0.0000 
     30 C20        25.0450   10.3560   20.3280 C.ar      1 74A1        0.0000 
     31 C21        22.9880   11.6850   19.9960 C.ar      1 74A1        0.0000 
     32 C22        18.6520   11.1650   26.5710 C.3       1 74A1        0.0000 
     33 C23        19.9690   10.6970   27.2830 C.3       1 74A1        0.0000 
     34 C24        29.9450   12.9110   21.6220 C.3       1 74A1        0.0000 
     35 C25        27.7720   13.9130   20.6930 C.3       1 74A1        0.0000 
     36 C26        18.0740   14.6240   27.3720 C.ar      1 74A1        0.0000 
     37 C27        16.1270   13.7510   26.0570 C.ar      1 74A1        0.0000 
     38 C28        25.3310   17.2760   25.4790 C.3       1 74A1        0.0000 
     39 C29        29.8600   11.4460   21.1230 C.3       1 74A1        0.0000 
     40 C30        28.4620   14.9440   19.7640 C.3       1 74A1        0.0000 
     41 C31        28.9420   10.5950   22.0150 C.3       1 74A1        0.0000 
     42 C32        28.9060   16.2260   20.5150 C.3       1 74A1        0.0000 
     43 C33        15.2220   14.2920   27.0130 C.ar      1 74A1        0.0000 
     44 C34        17.1700   15.1640   28.3300 C.ar      1 74A1        0.0000 
     45 C35        15.7550   14.9850   28.1420 C.ar      1 74A1        0.0000 
     46 H          24.4463   11.2980   23.4813 H         1 74A1        0.0000 
     47 H          21.8755   11.6130   25.4504 H         1 74A1        0.0000 
     48 H          21.6128   11.3086   22.4714 H         1 74A1        0.0000 
     49 H          22.7173    9.4605   24.6092 H         1 74A1        0.0000 
     50 H          20.3324   12.3313   23.8098 H         1 74A1        0.0000 
     51 H          19.4476   10.7962   23.8361 H         1 74A1        0.0000 
     52 H          25.8707   12.6385   22.6861 H         1 74A1        0.0000 
     53 H          22.2189    9.2494   21.3938 H         1 74A1        0.0000 
     54 H          23.7658    9.1770   22.2551 H         1 74A1        0.0000 
     55 H          27.5543   16.1203   24.3956 H         1 74A1        0.0000 
     56 H          23.4044   15.3860   24.7778 H         1 74A1        0.0000 
     57 H          25.3989   12.5952   17.8054 H         1 74A1        0.0000 
     58 H          25.5664    9.6558   20.8215 H         1 74A1        0.0000 
     59 H          22.0340   11.8962   20.2487 H         1 74A1        0.0000 
     60 H          18.1486   10.2863   26.1883 H         1 74A1        0.0000 
     61 H          18.0285   11.6536   27.3090 H         1 74A1        0.0000 
     62 H          20.4651   11.5777   27.6692 H         1 74A1        0.0000 
     63 H          19.6879   10.0444   28.0991 H         1 74A1        0.0000 
     64 H          30.5553   12.9160   22.5443 H         1 74A1        0.0000 
     65 H          30.5111   13.4895   20.8683 H         1 74A1        0.0000 
     66 H          26.8246   14.3427   21.0370 H         1 74A1        0.0000 
     67 H          27.5421   13.0197   20.1016 H         1 74A1        0.0000 
     68 H          19.0681   14.7289   27.4807 H         1 74A1        0.0000 
     69 H          15.7790   13.2464   25.2493 H         1 74A1        0.0000 
     70 H          30.8607   11.0167   21.1228 H         1 74A1        0.0000 
     71 H          29.4750   11.4440   20.1044 H         1 74A1        0.0000 
     72 H          27.7681   15.2232   18.9680 H         1 74A1        0.0000 
     73 H          29.3396   14.4790   19.3094 H         1 74A1        0.0000 
     74 H          14.2275   14.1895   26.8977 H         1 74A1        0.0000 
     75 H          17.5116   15.6684   29.1353 H         1 74A1        0.0000 
     76 H          15.1105   15.3701   28.8457 H         1 74A1        0.0000 
     77 H          25.8873   17.2787   26.3100 H         1 74A1        0.0000 
     78 H          25.6219   18.0588   24.9290 H         1 74A1        0.0000 
     79 H          24.3864   17.4487   25.7581 H         1 74A1        0.0000 
     80 H          28.8827    9.6502   21.6926 H         1 74A1        0.0000 
     81 H          29.2683   10.5624   22.9597 H         1 74A1        0.0000 
     82 H          28.0096   10.9555   22.0393 H         1 74A1        0.0000 
     83 H          29.5578   16.0216   21.2454 H         1 74A1        0.0000 
     84 H          29.3482   16.8810   19.9023 H         1 74A1        0.0000 
     85 H          28.1310   16.6965   20.9369 H         1 74A1        0.0000 
     86 H          21.3992    8.5209   22.8824 H         1 74A1        0.0000 
@<TRIPOS>BOND
     1    3    1 am   
     2    4    1 2    
     3   25    1 1    
     4   27    2 1    
     5   19    3 1    
     6   32    3 1    
     7    9    5 1    
     8   20    5 ar   
     9   23    5 ar   
    10   28    6 1    
    11   12    7 am   
    12   16    7 1    
    13   46    7 1    
    14    9    8 2    
    15   13    9 am   
    16   15   10 1    
    17   33   10 1    
    18   12   11 2    
    19   17   12 1    
    20   34   13 1    
    21   35   13 1    
    22   18   14 1    
    23   86   14 1    
    24   18   15 1    
    25   19   15 1    
    26   47   15 1    
    27   18   16 1    
    28   22   16 1    
    29   48   16 1    
    30   20   17 ar   
    31   24   17 ar   
    32   49   18 1    
    33   50   19 1    
    34   51   19 1    
    35   52   20 1    
    36   22   21 1    
    37   30   21 ar   
    38   31   21 ar   
    39   53   22 1    
    40   54   22 1    
    41   29   23 ar   
    42   55   23 1    
    43   29   24 ar   
    44   56   24 1    
    45   36   25 ar   
    46   37   25 ar   
    47   27   26 ar   
    48   28   26 ar   
    49   57   26 1    
    50   30   27 ar   
    51   31   28 ar   
    52   38   29 1    
    53   58   30 1    
    54   59   31 1    
    55   33   32 1    
    56   60   32 1    
    57   61   32 1    
    58   62   33 1    
    59   63   33 1    
    60   39   34 1    
    61   64   34 1    
    62   65   34 1    
    63   40   35 1    
    64   66   35 1    
    65   67   35 1    
    66   44   36 ar   
    67   68   36 1    
    68   43   37 ar   
    69   69   37 1    
    70   77   38 1    
    71   78   38 1    
    72   79   38 1    
    73   41   39 1    
    74   70   39 1    
    75   71   39 1    
    76   42   40 1    
    77   72   40 1    
    78   73   40 1    
    79   80   41 1    
    80   81   41 1    
    81   82   41 1    
    82   83   42 1    
    83   84   42 1    
    84   85   42 1    
    85   45   43 ar   
    86   74   43 1    
    87   45   44 ar   
    88   75   44 1    
    89   76   45 1    
@<TRIPOS>SUBSTRUCTURE
     1 74A1        1 GROUP   
@<TRIPOS>SET

