#    Name: 1dwd_MID_1_INTS_M
#    Modification time : Mon Mar 24 22:29:30 2014

@<TRIPOS>MOLECULE
1dwd_MID_1_INTS_M
   70     0     9     0     0
SMALL
NO_CHARGES


@<TRIPOS>ATOM
      1 CA         35.2665   10.7640   26.9555 C.3       3 GLC5        0.0000 
      2 CA         33.8930   10.5930   28.7020 C.3       9 GLL5        0.0000 
      3 CA         36.6400   10.9350   25.2090 C.3       6 GLP5        0.0000 
      4 O          30.2010   14.7420   26.7965 O.2       1 ALC1        0.0000 
      5 O          29.9850   13.7390   26.3060 O.2       7 ALL1        0.0000 
      6 O          30.4170   15.7450   27.2870 O.2       4 ALP1        0.0000 
      7 N          32.7335   15.1810   26.1840 N.am      2 SEC2        0.0000 
      8 N          32.3780   14.1170   25.2350 N.am      8 SEL2        0.0000 
      9 N          33.0890   16.2450   27.1330 N.am      5 SEP2        0.0000 
     10 CA         33.9675   15.0125   24.3045 C.3       3 GLC5        0.0000 
     11 CA         32.7930   14.5390   22.4860 C.3       9 GLL5        0.0000 
     12 CA         35.1420   15.4860   26.1230 C.3       6 GLP5        0.0000 
     13 CA         31.5380   17.2935   20.5015 C.3       3 GLC5        0.0000 
     14 CA         32.7220   15.8910   21.7900 C.3       9 GLL5        0.0000 
     15 CA         30.3540   18.6960   19.2130 C.3       6 GLP5        0.0000 
     16 CA         30.9085   18.0255   21.2540 C.3       3 GLC5        0.0000 
     17 CA         31.4630   17.3550   23.2950 C.3       9 GLL5        0.0000 
     18 CA         29.7125   19.6260   23.9575 C.3       3 GLC5        0.0000 
     19 CA         31.3820   18.3620   24.2600 C.3       9 GLL5        0.0000 
     20 CA         28.0430   20.8900   23.6550 C.3       6 GLP5        0.0000 
     21 CA         32.3745   18.5270   26.8795 C.3       3 GLC5        0.0000 
     22 CA         32.4750   19.9650   25.7860 C.3       9 GLL5        0.0000 
     23 CA         32.2740   17.0890   27.9730 C.3       6 GLP5        0.0000 
     24 O          31.1635   21.5505   26.7685 O.2       1 ALC1        0.0000 
     25 O          31.2960   20.4290   26.2370 O.2       7 ALL1        0.0000 
     26 O          31.0310   22.6720   27.3000 O.2       4 ALP1        0.0000 
     27 O          29.9455   19.9710   26.3415 O.2       1 ALC1        0.0000 
     28 O          28.5950   19.5130   26.4460 O.2       4 ALP1        0.0000 
     29 O          33.2805   22.1950   26.5640 O.2       1 ALC1        0.0000 
     30 O          33.5310   20.7490   26.0440 O.2       7 ALL1        0.0000 
     31 O          33.0300   23.6410   27.0840 O.2       4 ALP1        0.0000 
     32 O          32.2810   21.7105   26.6720 O.2       1 ALC1        0.0000 
     33 CA         35.0425   12.3285   21.7100 C.3       3 GLC5        0.0000 
     34 CA         33.7560   12.1980   23.4560 C.3       9 GLL5        0.0000 
     35 CA         36.3290   12.4590   19.9640 C.3       6 GLP5        0.0000 
     36 CA         34.4425   13.1185   25.0630 C.3       3 GLC5        0.0000 
     37 CA         35.1290   14.0390   26.6700 C.3       6 GLP5        0.0000 
     38 CA         33.1355    7.8610   23.0970 C.3       3 GLC5        0.0000 
     39 CA         33.3310    9.7150   23.2650 C.3       9 GLL5        0.0000 
     40 CA         32.9400    6.0070   22.9290 C.3       6 GLP5        0.0000 
     41 CA         32.9575    8.1265   21.1585 C.3       3 GLC5        0.0000 
     42 CA         32.9400    9.9200   21.7710 C.3       9 GLL5        0.0000 
     43 CA         32.9750    6.3330   20.5460 C.3       6 GLP5        0.0000 
     44 CA         31.1715    9.9460   21.0945 C.3       3 GLC5        0.0000 
     45 CA         29.4030    9.9720   20.4180 C.3       6 GLP5        0.0000 
     46 CA         35.0095   11.7875   20.5655 C.3       3 GLC5        0.0000 
     47 CA         33.6900   11.1160   21.1670 C.3       9 GLL5        0.0000 
     48 CA         31.9060   10.4580   20.2035 C.3       3 GLC5        0.0000 
     49 CA         30.1220    9.8000   19.2400 C.3       6 GLP5        0.0000 
     50 CA         32.6640   10.6130   29.8203 C.3       3 GLC5        0.0000 
     51 CA         32.7410   10.4530   27.9200 C.3       9 GLL5        0.0000 
     52 CA         33.0940   10.2800   31.7120 C.3       6 GLP5        0.0000 
     53 CA         36.2055    8.4250   29.2897 C.3       3 GLC5        0.0000 
     54 CA         34.6900    8.4150   27.8780 C.3       9 GLL5        0.0000 
     55 CA         37.6400    7.8500   30.3000 C.3       6 GLP5        0.0000 
     56 CA         35.8882    9.3025   26.8878 C.3       3 GLC5        0.0000 
     57 CA         34.8520    9.5850   28.6810 C.3       9 GLL5        0.0000 
     58 CA         37.2860    9.6420   25.6860 C.3       6 GLP5        0.0000 
     59 CA         33.7332   10.1845   30.2018 C.3       3 GLC5        0.0000 
     60 CA         34.0962   12.4042   27.4926 C.3       3 GLC5        0.0000 
     61 CA         35.3670   19.0767   23.1797 C.3       3 GLC5        0.0000 
     62 CA         33.8380   17.4680   23.3090 C.3       9 GLL5        0.0000 
     63 CA         36.9250   20.1770   22.5650 C.3       6 GLP5        0.0000 
     64 CA         34.3302   16.6661   24.8960 C.3       3 GLC5        0.0000 
     65 CA         33.7800   18.4850   24.2800 C.3       9 GLL5        0.0000 
     66 CA         32.2731   17.8116   26.1800 C.3       3 GLC5        0.0000 
     67 CA         31.4534   19.9431   22.9909 C.3       3 GLC5        0.0000 
     68 CA         32.5450   18.9280   24.7480 C.3       9 GLL5        0.0000 
     69 CA         30.9230   21.4930   21.7190 C.3       6 GLP5        0.0000 
     70 CA         35.0036   10.7949   24.3635 C.3       3 GLC5        0.0000 
@<TRIPOS>BOND
@<TRIPOS>SUBSTRUCTURE
     1 ALC1        4 GROUP        1 X    ALC  0     ROOT ALC X 1
     2 SEC2        7 GROUP        1 X    SEC  0     **** SEC X 2
     3 GLC5        1 GROUP        1 X    GLC  0     **** GLC X 6
     4 ALP1        6 GROUP        1 Y    ALP  0     ROOT ALP Y 8
     5 SEP2        9 GROUP        1 Y    SEP  0     **** SEP Y 9
     6 GLP5        3 GROUP        1 Y    GLP  0     **** GLP Y 13
     7 ALL1        5 GROUP        1 Z    ALL  0     ROOT ALL Z 15
     8 SEL2        8 GROUP        1 Z    SEL  0     **** SEL Z 16
     9 GLL5        2 GROUP        1 Z    GLL  0     **** GLL Z 20
@<TRIPOS>SET

