#    Name: 1dwd_MID_1_ligand
#    Modification time : Mon Mar 24 22:29:30 2014

@<TRIPOS>MOLECULE
1dwd_MID_1_ligand
   69    72     1     0     0
SMALL
NO_CHARGES


@<TRIPOS>ATOM
      1 S          29.3410   12.4380   27.0580 S.o2      1 MID1        0.0000 
      2 O1S        28.3630   11.8390   26.1820 O.2       1 MID1        0.0000 
      3 O2S        29.0620   12.8090   28.4350 O.2       1 MID1        0.0000 
      4 C1         31.7270   11.4390   27.9370 C.ar      1 MID1        0.0000 
      5 C2         30.6400   11.2630   27.1350 C.ar      1 MID1        0.0000 
      6 C3         30.5070   10.1480   26.3150 C.ar      1 MID1        0.0000 
      7 C4         31.4640    9.1710   26.3000 C.ar      1 MID1        0.0000 
      8 C5         33.5680    8.2670   27.1180 C.ar      1 MID1        0.0000 
      9 C6         34.6900    8.4150   27.8780 C.ar      1 MID1        0.0000 
     10 C7         34.8520    9.5850   28.6810 C.ar      1 MID1        0.0000 
     11 C8         33.8930   10.5930   28.7020 C.ar      1 MID1        0.0000 
     12 C9         32.7410   10.4530   27.9200 C.ar      1 MID1        0.0000 
     13 C10        32.5820    9.2850   27.1330 C.ar      1 MID1        0.0000 
     14 N          29.9850   13.7390   26.3060 N.pl3     1 MID1        0.0000 
     15 CA         30.0460   13.7400   24.8830 C.3       1 MID1        0.0000 
     16 C          31.4080   14.0330   24.4730 C.2       1 MID1        0.0000 
     17 O          32.3780   14.1170   25.2350 O.2       1 MID1        0.0000 
     18 N1         31.5060   14.2480   23.1380 N.am      1 MID1        0.0000 
     19 CA1        32.7930   14.5390   22.4860 C.3       1 MID1        0.0000 
     20 CB         32.9780   13.4720   21.4620 C.2       1 MID1        0.0000 
     21 O1         32.7440   13.5950   20.2550 O.2       1 MID1        0.0000 
     22 CB1        32.7220   15.8910   21.7900 C.3       1 MID1        0.0000 
     23 CG         32.6760   16.9470   22.8070 C.ar      1 MID1        0.0000 
     24 CD1        33.8380   17.4680   23.3090 C.ar      1 MID1        0.0000 
     25 CD2        31.4630   17.3550   23.2950 C.ar      1 MID1        0.0000 
     26 CE1        33.7800   18.4850   24.2800 C.ar      1 MID1        0.0000 
     27 CE2        31.3820   18.3620   24.2600 C.ar      1 MID1        0.0000 
     28 CZ         32.5450   18.9280   24.7480 C.ar      1 MID1        0.0000 
     29 CF         32.4750   19.9650   25.7860 C.2       1 MID1        0.0000 
     30 NG1        31.2960   20.4290   26.2370 N.pl3     1 MID1        0.0000 
     31 NG2        33.5310   20.7490   26.0440 N.pl3     1 MID1        0.0000 
     32 N11        33.4730   12.2860   22.0110 N.am      1 MID1        0.0000 
     33 C21        33.7560   12.1980   23.4560 C.3       1 MID1        0.0000 
     34 C31        33.0510   10.9910   24.0860 C.3       1 MID1        0.0000 
     35 C41        33.3310    9.7150   23.2650 C.3       1 MID1        0.0000 
     36 C51        32.9400    9.9200   21.7710 C.3       1 MID1        0.0000 
     37 C61        33.6900   11.1160   21.1670 C.3       1 MID1        0.0000 
     38 H          31.8296   12.2511   28.5419 H         1 MID1        0.0000 
     39 H          29.6674   10.0653   25.7105 H         1 MID1        0.0000 
     40 H          31.3752    8.3518   25.6849 H         1 MID1        0.0000 
     41 H          33.4164    7.4396   26.5350 H         1 MID1        0.0000 
     42 H          35.4307    7.7066   27.8932 H         1 MID1        0.0000 
     43 H          35.7073    9.6702   29.2545 H         1 MID1        0.0000 
     44 H          34.0246   11.4245   29.2787 H         1 MID1        0.0000 
     45 H          30.2931   14.4478   26.8999 H         1 MID1        0.0000 
     46 H          29.3632   14.4945   24.4637 H         1 MID1        0.0000 
     47 H          29.7402   12.7631   24.4786 H         1 MID1        0.0000 
     48 H          30.6780   14.2171   22.5152 H         1 MID1        0.0000 
     49 H          33.5821   14.5233   23.1783 H         1 MID1        0.0000 
     50 H          31.8300   15.9143   21.1669 H         1 MID1        0.0000 
     51 H          33.5998   16.0017   21.1562 H         1 MID1        0.0000 
     52 H          34.7535   17.1312   22.9909 H         1 MID1        0.0000 
     53 H          30.5876   16.9189   22.9519 H         1 MID1        0.0000 
     54 H          34.6478   18.8946   24.6379 H         1 MID1        0.0000 
     55 H          30.4669   18.6732   24.5983 H         1 MID1        0.0000 
     56 H          31.3412   21.0996   26.9774 H         1 MID1        0.0000 
     57 H          30.4793   20.0620   25.7917 H         1 MID1        0.0000 
     58 H          34.4306   20.3383   25.8956 H         1 MID1        0.0000 
     59 H          33.3248   21.6745   26.3618 H         1 MID1        0.0000 
     60 H          33.4138   13.1025   23.9711 H         1 MID1        0.0000 
     61 H          34.8327   12.0967   23.6320 H         1 MID1        0.0000 
     62 H          31.9812   11.1695   24.1083 H         1 MID1        0.0000 
     63 H          33.4158   10.8478   25.0975 H         1 MID1        0.0000 
     64 H          32.7503    8.8933   23.6681 H         1 MID1        0.0000 
     65 H          34.3869    9.4765   23.3198 H         1 MID1        0.0000 
     66 H          31.8707   10.0951   21.7129 H         1 MID1        0.0000 
     67 H          33.1896    9.0191   21.2201 H         1 MID1        0.0000 
     68 H          34.7462   10.8606   21.1112 H         1 MID1        0.0000 
     69 H          33.3111   11.2803   20.1603 H         1 MID1        0.0000 
@<TRIPOS>BOND
     1    2    1 2    
     2    3    1 2    
     3    5    1 1    
     4   14    1 1    
     5    5    4 ar   
     6   12    4 ar   
     7   38    4 1    
     8    6    5 ar   
     9    7    6 ar   
    10   39    6 1    
    11   13    7 ar   
    12   40    7 1    
    13    9    8 ar   
    14   13    8 ar   
    15   41    8 1    
    16   10    9 ar   
    17   42    9 1    
    18   11   10 ar   
    19   43   10 1    
    20   12   11 ar   
    21   44   11 1    
    22   13   12 ar   
    23   15   14 1    
    24   45   14 1    
    25   16   15 1    
    26   46   15 1    
    27   47   15 1    
    28   17   16 2    
    29   18   16 am   
    30   19   18 1    
    31   48   18 1    
    32   20   19 1    
    33   22   19 1    
    34   49   19 1    
    35   21   20 2    
    36   32   20 am   
    37   23   22 1    
    38   50   22 1    
    39   51   22 1    
    40   24   23 ar   
    41   25   23 ar   
    42   26   24 ar   
    43   52   24 1    
    44   27   25 ar   
    45   53   25 1    
    46   28   26 ar   
    47   54   26 1    
    48   28   27 ar   
    49   55   27 1    
    50   29   28 1    
    51   30   29 2    
    52   31   29 1    
    53   56   30 1    
    54   57   30 1    
    55   58   31 1    
    56   59   31 1    
    57   33   32 1    
    58   37   32 1    
    59   34   33 1    
    60   60   33 1    
    61   61   33 1    
    62   35   34 1    
    63   62   34 1    
    64   63   34 1    
    65   36   35 1    
    66   64   35 1    
    67   65   35 1    
    68   37   36 1    
    69   66   36 1    
    70   67   36 1    
    71   68   37 1    
    72   69   37 1    
@<TRIPOS>SUBSTRUCTURE
     1 MID1        1 GROUP   
@<TRIPOS>SET

