#    Name: 1t2d_NAD_1_INTS_M
#    Modification time : Tue Mar 25 04:10:58 2014

@<TRIPOS>MOLECULE
1t2d_NAD_1_INTS_M
   96     0     9     0     0
SMALL
NO_CHARGES


@<TRIPOS>ATOM
      1 N          36.5975   17.1600    5.9940 N.am      2 SEC2        0.0000 
      2 N          35.8920   15.9400    6.2660 N.am      8 SEL2        0.0000 
      3 N          37.3030   18.3800    5.7220 N.am      5 SEP2        0.0000 
      4 CA         36.8805   17.5225   12.1060 C.3       3 GLC5        0.0000 
      5 CA         36.3650   15.7790   10.9120 C.3       9 GLL5        0.0000 
      6 CA         37.3960   19.2660   13.3000 C.3       6 GLP5        0.0000 
      7 CA         35.0710   16.5655   12.5415 C.3       3 GLC5        0.0000 
      8 CA         33.7770   17.3520   14.1710 C.3       6 GLP5        0.0000 
      9 N          34.3940   15.4385   12.7675 N.am      2 SEC2        0.0000 
     10 N          35.9140   15.5870   12.2380 N.am      8 SEL2        0.0000 
     11 N          32.8740   15.2900   13.2970 N.am      5 SEP2        0.0000 
     12 O          39.1865   15.6980   11.1805 O.2       1 ALC1        0.0000 
     13 O          38.5640   14.9900   10.2020 O.2       7 ALL1        0.0000 
     14 O          39.8090   16.4060   12.1590 O.2       4 ALP1        0.0000 
     15 O          39.3840   13.8285   12.6890 O.2       1 ALC1        0.0000 
     16 O          38.4350   13.0590   12.1490 O.2       7 ALL1        0.0000 
     17 O          40.3330   14.5980   13.2290 O.2       4 ALP1        0.0000 
     18 CA         37.1540   17.0415   13.0840 C.3       3 GLC5        0.0000 
     19 CA         36.9120   14.8170   12.8680 C.3       9 GLL5        0.0000 
     20 CA         35.3445   16.0845   13.5195 C.3       3 GLC5        0.0000 
     21 CA         34.9685   16.4760   18.3405 C.3       3 GLC5        0.0000 
     22 CA         36.4070   14.9840   17.6690 C.3       9 GLL5        0.0000 
     23 CA         33.5300   17.9680   19.0120 C.3       6 GLP5        0.0000 
     24 O          36.4695   14.8845   20.1005 O.2       1 ALC1        0.0000 
     25 O          35.9120   14.4060   18.7540 O.2       7 ALL1        0.0000 
     26 O          37.0270   15.3630   21.4470 O.2       4 ALP1        0.0000 
     27 CA         36.9025   18.4760   17.3750 C.3       3 GLC5        0.0000 
     28 CA         37.6540   16.7640   16.6790 C.3       9 GLL5        0.0000 
     29 CA         36.1510   20.1880   18.0710 C.3       6 GLP5        0.0000 
     30 CA         37.5250   18.0150   14.9895 C.3       3 GLC5        0.0000 
     31 CA         39.4655   16.7915   15.9440 C.3       3 GLC5        0.0000 
     32 CA         41.2770   16.8190   15.2090 C.3       6 GLP5        0.0000 
     33 CA         38.4190   15.0355   17.3825 C.3       3 GLC5        0.0000 
     34 CA         39.1840   13.3070   18.0860 C.3       6 GLP5        0.0000 
     35 CA         35.9360   17.0235   16.1490 C.3       3 GLC5        0.0000 
     36 CA         34.2180   17.2830   15.6190 C.3       6 GLP5        0.0000 
     37 N          35.0055   19.8040    6.4615 N.am      2 SEC2        0.0000 
     38 N          34.2600   18.8010    7.2750 N.am      8 SEL2        0.0000 
     39 N          35.7510   20.8070    5.6480 N.am      5 SEP2        0.0000 
     40 CA         31.6720   19.7915    7.6250 C.3       3 GLC5        0.0000 
     41 CA         31.8300   18.1480    8.8730 C.3       9 GLL5        0.0000 
     42 CA         31.5140   21.4350    6.3770 C.3       6 GLP5        0.0000 
     43 CA         32.6525   19.5430    9.9905 C.3       3 GLC5        0.0000 
     44 CA         33.4750   20.9380   11.1080 C.3       6 GLP5        0.0000 
     45 CA         31.4705   16.4900    7.4960 C.3       3 GLC5        0.0000 
     46 CA         31.1110   14.8320    6.1190 C.3       6 GLP5        0.0000 
     47 CA         31.5480   19.3335   10.8935 C.3       3 GLC5        0.0000 
     48 CA         30.4070   18.1320    9.4150 C.3       9 GLL5        0.0000 
     49 CA         32.6890   20.5350   12.3720 C.3       6 GLP5        0.0000 
     50 N          27.5480   17.1735   10.7740 N.am      2 SEC2        0.0000 
     51 N          28.8440   16.4480   10.1020 N.am      8 SEL2        0.0000 
     52 N          26.2520   17.8990   11.4460 N.am      5 SEP2        0.0000 
     53 O          28.8800   15.0405    9.8230 O.2       1 ALC1        0.0000 
     54 O          28.8440   16.4480   10.1020 O.2       7 ALL1        0.0000 
     55 O          28.9160   13.6330    9.5440 O.2       4 ALP1        0.0000 
     56 N          26.2090   17.5095    7.6790 N.am      2 SEC2        0.0000 
     57 N          27.5390   16.6570    7.7430 N.am      8 SEL2        0.0000 
     58 N          24.8790   18.3620    7.6150 N.am      5 SEP2        0.0000 
     59 CA         28.9200   20.7870    9.0630 C.3       3 GLC5        0.0000 
     60 CA         28.4450   18.8370    8.4490 C.3       9 GLL5        0.0000 
     61 CA         29.3950   22.7370    9.6770 C.3       6 GLP5        0.0000 
     62 CA         28.2545   18.9625   10.4955 C.3       3 GLC5        0.0000 
     63 CA         28.0640   19.0880   12.5420 C.3       6 GLP5        0.0000 
     64 CA         24.3400   21.8500    7.1375 C.3       3 GLC5        0.0000 
     65 CA         26.5680   21.7470    7.1570 C.3       9 GLL5        0.0000 
     66 CA         22.1120   21.9530    7.1180 C.3       6 GLP5        0.0000 
     67 O          26.0750   21.9405    9.9715 O.2       1 ALC1        0.0000 
     68 O          25.2410   22.7640    8.9780 O.2       7 ALL1        0.0000 
     69 O          26.9090   21.1170   10.9650 O.2       4 ALP1        0.0000 
     70 O          24.4280   23.9900    9.4730 O.2       1 ALC1        0.0000 
     71 O          23.6150   25.2160    9.9680 O.2       4 ALP1        0.0000 
     72 CA         26.3460   23.2580    4.7795 C.3       3 GLC5        0.0000 
     73 CA         26.9810   21.7970    5.8270 C.3       9 GLL5        0.0000 
     74 CA         25.7110   24.7190    3.7320 C.3       6 GLP5        0.0000 
     75 CA         37.4749   16.4724    9.1344 C.3       3 GLC5        0.0000 
     76 CA         35.1700   15.9060    9.9870 C.3       9 GLL5        0.0000 
     77 CA         38.4380   17.7350    7.7580 C.3       6 GLP5        0.0000 
     78 CA         34.2815   14.7897   17.4768 C.3       3 GLC5        0.0000 
     79 CA         36.2250   14.4310   16.4000 C.3       9 GLL5        0.0000 
     80 CA         32.2470   14.8720   17.9190 C.3       6 GLP5        0.0000 
     81 CA         37.8665   14.1014   17.1289 C.3       3 GLC5        0.0000 
     82 CA         35.3835   16.0894   15.8954 C.3       3 GLC5        0.0000 
     83 CA         29.0340   18.3035   10.8745 C.3       3 GLC5        0.0000 
     84 CA         30.1315   16.0010    7.2858 C.3       3 GLC5        0.0000 
     85 CA         29.6010   16.9060    8.9990 C.3       9 GLL5        0.0000 
     86 CA         26.6250   17.6602    8.9402 C.3       3 GLC5        0.0000 
     87 CA         28.7030   17.4340    7.9060 C.3       9 GLL5        0.0000 
     88 CA         24.6760   17.1850    9.7030 C.3       6 GLP5        0.0000 
     89 CA         28.1045   21.9957    8.6240 C.3       3 GLC5        0.0000 
     90 CA         27.0600   20.7620    7.9850 C.3       9 GLL5        0.0000 
     91 CA         27.1732   23.6805    7.0480 C.3       3 GLC5        0.0000 
     92 CA         27.5720   25.5890    7.6040 C.3       6 GLP5        0.0000 
     93 CA         28.3463   22.4492    4.3570 C.3       3 GLC5        0.0000 
     94 CA         29.2580   23.5710    3.1240 C.3       6 GLP5        0.0000 
     95 CA         29.8210   20.9032    6.0793 C.3       3 GLC5        0.0000 
     96 CA         27.8880   20.8580    5.3530 C.3       9 GLL5        0.0000 
@<TRIPOS>BOND
@<TRIPOS>SUBSTRUCTURE
     1 ALC1       12 GROUP        1 X    ALC  0     ROOT ALC X 1
     2 SEC2        1 GROUP        1 X    SEC  0     **** SEC X 2
     3 GLC5        4 GROUP        1 X    GLC  0     **** GLC X 6
     4 ALP1       14 GROUP        1 Y    ALP  0     ROOT ALP Y 8
     5 SEP2        3 GROUP        1 Y    SEP  0     **** SEP Y 9
     6 GLP5        6 GROUP        1 Y    GLP  0     **** GLP Y 13
     7 ALL1       13 GROUP        1 Z    ALL  0     ROOT ALL Z 15
     8 SEL2        2 GROUP        1 Z    SEL  0     **** SEL Z 16
     9 GLL5        5 GROUP        1 Z    GLL  0     **** GLL Z 20
@<TRIPOS>SET

