#    Name: 1t2d_NAD_1_ligand
#    Modification time : Tue Mar 25 04:10:58 2014

@<TRIPOS>MOLECULE
1t2d_NAD_1_ligand
   70    74     1     0     0
SMALL
NO_CHARGES


@<TRIPOS>ATOM
      1 PA         35.0040   15.6010    7.3850 P.3       1 NAD323      0.0000 
      2 O1A        35.8920   15.9400    6.2660 O.co2     1 NAD323      0.0000 
      3 O2A        34.6990   14.1230    7.5670 O.co2     1 NAD323      0.0000 
      4 O5B        35.6610   16.2160    8.7030 O.3       1 NAD323      0.0000 
      5 C5B        35.1700   15.9060    9.9870 C.3       1 NAD323      0.0000 
      6 C4B        36.3650   15.7790   10.9120 C.3       1 NAD323      0.0000 
      7 O4B        35.9140   15.5870   12.2380 O.3       1 NAD323      0.0000 
      8 C3B        37.2560   14.5770   10.5720 C.3       1 NAD323      0.0000 
      9 O3B        38.5640   14.9900   10.2020 O.3       1 NAD323      0.0000 
     10 C2B        37.2350   13.7390   11.8490 C.3       1 NAD323      0.0000 
     11 O2B        38.4350   13.0590   12.1490 O.3       1 NAD323      0.0000 
     12 C1B        36.9120   14.8170   12.8680 C.3       1 NAD323      0.0000 
     13 N9A        36.4700   14.3780   14.1950 N.pl3     1 NAD323      0.0000 
     14 C8A        35.7360   13.2890   14.5800 C.2       1 NAD323      0.0000 
     15 N7A        35.5940   13.3290   15.9260 N.2       1 NAD323      0.0000 
     16 C5A        36.2250   14.4310   16.4000 C.ar      1 NAD323      0.0000 
     17 C6A        36.4070   14.9840   17.6690 C.ar      1 NAD323      0.0000 
     18 N6A        35.9120   14.4060   18.7540 N.pl3     1 NAD323      0.0000 
     19 N1A        37.1170   16.1570   17.7960 N.ar      1 NAD323      0.0000 
     20 C2A        37.6540   16.7640   16.6790 C.ar      1 NAD323      0.0000 
     21 N3A        37.4810   16.2330   15.4300 N.ar      1 NAD323      0.0000 
     22 C4A        36.7820   15.0840   15.3090 C.ar      1 NAD323      0.0000 
     23 O3         33.5880   16.3560    7.2630 O.3       1 NAD323      0.0000 
     24 PN         33.2650   17.8450    6.7380 P.3       1 NAD323      0.0000 
     25 O1N        34.2600   18.8010    7.2750 O.co2     1 NAD323      0.0000 
     26 O2N        32.9960   17.8230    5.2870 O.co2     1 NAD323      0.0000 
     27 O5D        31.8530   18.0470    7.4690 O.3       1 NAD323      0.0000 
     28 C5D        31.8300   18.1480    8.8730 C.3       1 NAD323      0.0000 
     29 C4D        30.4070   18.1320    9.4150 C.3       1 NAD323      0.0000 
     30 O4D        29.6940   19.2590    8.9400 O.3       1 NAD323      0.0000 
     31 C3D        29.6010   16.9060    8.9990 C.3       1 NAD323      0.0000 
     32 O3D        28.8440   16.4480   10.1020 O.3       1 NAD323      0.0000 
     33 C2D        28.7030   17.4340    7.9060 C.3       1 NAD323      0.0000 
     34 O2D        27.5390   16.6570    7.7430 O.3       1 NAD323      0.0000 
     35 C1D        28.4450   18.8370    8.4490 C.3       1 NAD323      0.0000 
     36 N1N        27.9370   19.8450    7.5010 N.pl3     1 NAD323      0.0000 
     37 C2N        27.0600   20.7620    7.9850 C.ar      1 NAD323      0.0000 
     38 C3N        26.5680   21.7470    7.1570 C.ar      1 NAD323      0.0000 
     39 C7N        25.6040   22.7390    7.7110 C.2       1 NAD323      0.0000 
     40 O7N        25.0770   23.6600    6.8470 O.2       1 NAD323      0.0000 
     41 N7N        25.2410   22.7640    8.9780 N.am      1 NAD323      0.0000 
     42 C4N        26.9810   21.7970    5.8270 C.ar      1 NAD323      0.0000 
     43 C5N        27.8880   20.8580    5.3530 C.ar      1 NAD323      0.0000 
     44 C6N        28.3680   19.8850    6.2100 C.ar      1 NAD323      0.0000 
     45 H          34.6285   14.9598   10.0059 H         1 NAD323      0.0000 
     46 H          34.5210   16.6881   10.3821 H         1 NAD323      0.0000 
     47 H          36.9673   16.6698   10.8375 H         1 NAD323      0.0000 
     48 H          36.7514   14.0174    9.8070 H         1 NAD323      0.0000 
     49 H          36.3658   13.1040   11.7921 H         1 NAD323      0.0000 
     50 H          37.8178   15.4412   12.9609 H         1 NAD323      0.0000 
     51 H          35.3859   12.6172   13.9908 H         1 NAD323      0.0000 
     52 H          36.0656   14.8865   19.6175 H         1 NAD323      0.0000 
     53 H          35.4297   13.5417   18.6110 H         1 NAD323      0.0000 
     54 H          38.2012   17.6439   16.7945 H         1 NAD323      0.0000 
     55 H          32.3080   19.0814    9.2286 H         1 NAD323      0.0000 
     56 H          32.3767   17.3154    9.3567 H         1 NAD323      0.0000 
     57 H          30.4475   18.1476   10.5013 H         1 NAD323      0.0000 
     58 H          30.2611   16.1950    8.5956 H         1 NAD323      0.0000 
     59 H          29.3016   17.5410    7.0281 H         1 NAD323      0.0000 
     60 H          27.7541   18.7345    9.2923 H         1 NAD323      0.0000 
     61 H          26.7559   20.7284    8.9743 H         1 NAD323      0.0000 
     62 H          24.6264   23.5063    9.2451 H         1 NAD323      0.0000 
     63 H          25.6132   22.0384    9.5568 H         1 NAD323      0.0000 
     64 H          26.6158   22.5245    5.2029 H         1 NAD323      0.0000 
     65 H          28.1972   20.8885    4.3755 H         1 NAD323      0.0000 
     66 H          29.0529   19.1932    5.8621 H         1 NAD323      0.0000 
     67 H          38.7865   15.7367   10.8288 H         1 NAD323      0.0000 
     68 H          39.0342   13.7544   12.5456 H         1 NAD323      0.0000 
     69 H          28.3702   15.6325    9.7698 H         1 NAD323      0.0000 
     70 H          27.5574   16.3608    6.7881 H         1 NAD323      0.0000 
@<TRIPOS>BOND
     1    2    1 ar   
     2    3    1 ar   
     3    4    1 1    
     4   23    1 1    
     5    5    4 1    
     6    6    5 1    
     7   45    5 1    
     8   46    5 1    
     9    7    6 1    
    10    8    6 1    
    11   47    6 1    
    12   12    7 1    
    13    9    8 1    
    14   10    8 1    
    15   48    8 1    
    16   67    9 1    
    17   11   10 1    
    18   12   10 1    
    19   49   10 1    
    20   68   11 1    
    21   13   12 1    
    22   50   12 1    
    23   14   13 1    
    24   22   13 1    
    25   15   14 2    
    26   51   14 1    
    27   16   15 1    
    28   17   16 ar   
    29   22   16 ar   
    30   18   17 1    
    31   19   17 ar   
    32   52   18 1    
    33   53   18 1    
    34   20   19 ar   
    35   21   20 ar   
    36   54   20 1    
    37   22   21 ar   
    38   24   23 1    
    39   25   24 ar   
    40   26   24 ar   
    41   27   24 1    
    42   28   27 1    
    43   29   28 1    
    44   55   28 1    
    45   56   28 1    
    46   30   29 1    
    47   31   29 1    
    48   57   29 1    
    49   35   30 1    
    50   32   31 1    
    51   33   31 1    
    52   58   31 1    
    53   69   32 1    
    54   34   33 1    
    55   35   33 1    
    56   59   33 1    
    57   70   34 1    
    58   36   35 1    
    59   60   35 1    
    60   37   36 ar   
    61   44   36 ar   
    62   38   37 ar   
    63   61   37 1    
    64   39   38 1    
    65   42   38 ar   
    66   40   39 2    
    67   41   39 am   
    68   62   41 1    
    69   63   41 1    
    70   43   42 ar   
    71   64   42 1    
    72   44   43 ar   
    73   65   43 1    
    74   66   44 1    
@<TRIPOS>SUBSTRUCTURE
     1 NAD323      1 GROUP   
@<TRIPOS>SET

