#    Name: 4jkt_04A_1_INTS_M
#    Modification time : Tue Mar 25 05:59:54 2014

@<TRIPOS>MOLECULE
4jkt_04A_1_INTS_M
   52     0     6     0     0
SMALL
NO_CHARGES


@<TRIPOS>ATOM
      1 CA         17.1695  -29.3175    1.0085 C.3       2 GLC5        0.0000 
      2 CA         15.5000  -29.8560    0.4080 C.3       6 GLL5        0.0000 
      3 CA         18.8390  -28.7790    1.6090 C.3       4 GLP5        0.0000 
      4 CA         21.2200  -24.9075    1.7745 C.3       2 GLC5        0.0000 
      5 CA         21.5880  -23.9440    0.1980 C.3       6 GLL5        0.0000 
      6 CA         20.8520  -25.8710    3.3510 C.3       4 GLP5        0.0000 
      7 CA         24.6390  -21.9460   -0.1400 C.3       2 GLC5        0.0000 
      8 CA         22.6650  -22.9550   -0.0900 C.3       6 GLL5        0.0000 
      9 CA         26.6130  -20.9370   -0.1900 C.3       4 GLP5        0.0000 
     10 CA         22.5410  -21.8450    1.5785 C.3       2 GLC5        0.0000 
     11 CA         22.4170  -20.7350    3.2470 C.3       4 GLP5        0.0000 
     12 CA         19.4420  -21.0175    1.2930 C.3       2 GLC5        0.0000 
     13 CA         19.0250  -22.1220   -0.0380 C.3       6 GLL5        0.0000 
     14 CA         19.8590  -19.9130    2.6240 C.3       4 GLP5        0.0000 
     15 CA         17.1680  -21.6885    0.6715 C.3       2 GLC5        0.0000 
     16 CA         15.3110  -21.2550    1.3810 C.3       4 GLP5        0.0000 
     17 CA         14.2495  -28.0540    3.6840 C.3       2 GLC5        0.0000 
     18 CA         14.3040  -28.1140    1.6740 C.3       6 GLL5        0.0000 
     19 CA         14.1950  -27.9940    5.6940 C.3       4 GLP5        0.0000 
     20 O          16.1795  -26.4870    2.9745 O.2       1 ALC1        0.0000 
     21 O          16.0570  -26.3060    1.4880 O.2       5 ALL1        0.0000 
     22 O          16.3020  -26.6680    4.4610 O.2       3 ALP1        0.0000 
     23 CA         23.2300  -25.4940   -2.2370 C.3       2 GLC5        0.0000 
     24 CA         24.1590  -23.9360   -2.3240 C.3       6 GLL5        0.0000 
     25 CA         22.3010  -27.0520   -2.1500 C.3       4 GLP5        0.0000 
     26 CA         23.6445  -22.5165   -3.6195 C.3       2 GLC5        0.0000 
     27 CA         23.1300  -21.0970   -4.9150 C.3       4 GLP5        0.0000 
     28 CA         18.9365  -25.6585    2.3030 C.3       2 GLC5        0.0000 
     29 CA         17.9810  -24.2830    1.5290 C.3       6 GLL5        0.0000 
     30 CA         19.8920  -27.0340    3.0770 C.3       4 GLP5        0.0000 
     31 CA         18.5655  -23.5740    3.2420 C.3       2 GLC5        0.0000 
     32 CA         19.1500  -22.8650    4.9550 C.3       4 GLP5        0.0000 
     33 CA         16.8680  -24.4060    3.4730 C.3       2 GLC5        0.0000 
     34 CA         15.7550  -24.5290    5.4170 C.3       4 GLP5        0.0000 
     35 CA         15.5485  -31.5442   -2.8085 C.3       2 GLC5        0.0000 
     36 CA         15.5220  -31.0320   -0.5080 C.3       6 GLL5        0.0000 
     37 CA         16.1610  -31.8030   -4.8680 C.3       4 GLP5        0.0000 
     38 CA         30.4289  -30.7389   -3.4587 C.3       2 GLC5        0.0000 
     39 CA         28.1070  -31.0800   -2.6960 C.3       6 GLL5        0.0000 
     40 CA         31.9570  -30.7150   -4.6670 C.3       4 GLP5        0.0000 
     41 CA         21.6717  -25.5092   -1.3210 C.3       2 GLC5        0.0000 
     42 CA         20.4970  -23.9890   -1.1820 C.3       6 GLL5        0.0000 
     43 CA         19.5705  -20.8227   -1.8000 C.3       2 GLC5        0.0000 
     44 CA         19.7710  -22.3890   -1.3000 C.3       6 GLL5        0.0000 
     45 CA         19.7430  -19.3900   -2.9310 C.3       4 GLP5        0.0000 
     46 CA         25.3849  -28.5224   -2.8135 C.3       2 GLC5        0.0000 
     47 CA         26.8080  -27.6150   -1.7300 C.3       6 GLL5        0.0000 
     48 CA         23.6160  -28.5400   -3.6540 C.3       4 GLP5        0.0000 
     49 CA         27.8367  -27.4494   -0.0546 C.3       2 GLC5        0.0000 
     50 CA         28.0900  -26.7180    1.5580 C.3       4 GLP5        0.0000 
     51 CA         12.6440  -29.2574    2.4708 C.3       2 GLC5        0.0000 
     52 CA         11.3010  -29.6750    3.8570 C.3       4 GLP5        0.0000 
@<TRIPOS>BOND
@<TRIPOS>SUBSTRUCTURE
     1 ALC1       20 GROUP        1 X    ALC  0     ROOT ALC X 1
     2 GLC5        1 GROUP        1 X    GLC  0     **** GLC X 6
     3 ALP1       22 GROUP        1 Y    ALP  0     ROOT ALP Y 8
     4 GLP5        3 GROUP        1 Y    GLP  0     **** GLP Y 13
     5 ALL1       21 GROUP        1 Z    ALL  0     ROOT ALL Z 15
     6 GLL5        2 GROUP        1 Z    GLL  0     **** GLL Z 20
@<TRIPOS>SET

