#    Name: 4jkt_04A_1_ligand
#    Modification time : Tue Mar 25 05:59:55 2014

@<TRIPOS>MOLECULE
4jkt_04A_1_ligand
   59    62     1     0     0
SMALL
NO_CHARGES


@<TRIPOS>ATOM
      1 OAA        27.7460  -27.1070   -3.7930 O.2       1 04A701      0.0000 
      2 OAB        14.3820  -26.5930   -0.0930 O.2       1 04A701      0.0000 
      3 CAC        29.4820  -31.0090   -2.1260 C.ar      1 04A701      0.0000 
      4 CAD        14.3500  -31.5390   -0.9900 C.ar      1 04A701      0.0000 
      5 CAE        29.9070  -29.8820   -1.4840 C.ar      1 04A701      0.0000 
      6 CAF        28.1070  -31.0800   -2.6960 C.ar      1 04A701      0.0000 
      7 CAG        13.0490  -30.9200   -0.6070 C.ar      1 04A701      0.0000 
      8 CAH        15.5220  -31.0320   -0.5080 C.ar      1 04A701      0.0000 
      9 CAI        28.9890  -28.7150   -1.3450 C.ar      1 04A701      0.0000 
     10 CAJ        27.2700  -30.0110   -2.5680 C.ar      1 04A701      0.0000 
     11 CAK        13.0300  -29.8420    0.2300 C.ar      1 04A701      0.0000 
     12 CAL        15.5000  -29.8560    0.4080 C.ar      1 04A701      0.0000 
     13 CAM        21.5880  -23.9440    0.1980 C.3       1 04A701      0.0000 
     14 CAN        19.7710  -22.3890   -1.3000 C.3       1 04A701      0.0000 
     15 CAO        22.6650  -22.9550   -0.0900 C.3       1 04A701      0.0000 
     16 CAP        19.0250  -22.1220   -0.0380 C.3       1 04A701      0.0000 
     17 CAQ        26.8080  -27.6150   -1.7300 C.3       1 04A701      0.0000 
     18 CAR        14.3040  -28.1140    1.6740 C.3       1 04A701      0.0000 
     19 NAS        24.7810  -24.3040    0.1240 N.2       1 04A701      0.0000 
     20 NAT        17.1430  -23.6170   -0.7820 N.2       1 04A701      0.0000 
     21 NAU        25.7860  -24.9540   -0.6190 N.2       1 04A701      0.0000 
     22 NAV        16.3540  -24.7200   -0.3910 N.2       1 04A701      0.0000 
     23 NAW        26.4310  -25.4040   -2.9710 N.am      1 04A701      0.0000 
     24 NAX        16.0570  -26.3060    1.4880 N.am      1 04A701      0.0000 
     25 SAY        20.4970  -23.9890   -1.1820 S.3       1 04A701      0.0000 
     26 SAZ        24.1590  -23.9360   -2.3240 S.3       1 04A701      0.0000 
     27 SBA        17.9810  -24.2830    1.5290 S.3       1 04A701      0.0000 
     28 CBB        27.0300  -26.7080   -2.8910 C.2       1 04A701      0.0000 
     29 CBC        14.8980  -26.9570    0.9510 C.2       1 04A701      0.0000 
     30 CBD        27.7290  -28.7780   -1.8640 C.ar      1 04A701      0.0000 
     31 CBE        14.3100  -29.2890    0.7600 C.ar      1 04A701      0.0000 
     32 CBF        23.8260  -23.7000   -0.6410 C.2       1 04A701      0.0000 
     33 CBG        18.0730  -23.2500    0.1460 C.2       1 04A701      0.0000 
     34 CBH        25.5800  -24.8490   -1.9590 C.2       1 04A701      0.0000 
     35 CBI        16.6860  -25.1930    0.8410 C.2       1 04A701      0.0000 
     36 H          30.0674  -31.8366   -2.2449 H         1 04A701      0.0000 
     37 H          14.3055  -32.3417   -1.6169 H         1 04A701      0.0000 
     38 H          30.8357  -29.7831   -1.0826 H         1 04A701      0.0000 
     39 H          27.8492  -31.9417   -3.1652 H         1 04A701      0.0000 
     40 H          12.2101  -31.3403   -0.9974 H         1 04A701      0.0000 
     41 H          16.4345  -31.4145   -0.7392 H         1 04A701      0.0000 
     42 H          29.3537  -27.9024   -0.8561 H         1 04A701      0.0000 
     43 H          26.3191  -29.9983   -2.9340 H         1 04A701      0.0000 
     44 H          12.1752  -29.3773    0.5248 H         1 04A701      0.0000 
     45 H          16.4004  -29.5186    0.7397 H         1 04A701      0.0000 
     46 H          20.9511  -23.6662    1.0022 H         1 04A701      0.0000 
     47 H          21.9315  -24.9473    0.2690 H         1 04A701      0.0000 
     48 H          20.6091  -21.7530   -1.4488 H         1 04A701      0.0000 
     49 H          19.1512  -22.4669   -2.1595 H         1 04A701      0.0000 
     50 H          22.9508  -22.4463    0.8243 H         1 04A701      0.0000 
     51 H          22.3127  -22.2287   -0.8144 H         1 04A701      0.0000 
     52 H          18.4833  -21.1902   -0.1206 H         1 04A701      0.0000 
     53 H          19.7132  -22.0790    0.7945 H         1 04A701      0.0000 
     54 H          25.7776  -27.9596   -1.7234 H         1 04A701      0.0000 
     55 H          27.0149  -27.0856   -0.8040 H         1 04A701      0.0000 
     56 H          13.2838  -27.8811    1.9682 H         1 04A701      0.0000 
     57 H          14.8905  -28.3348    2.5621 H         1 04A701      0.0000 
     58 H          26.6280  -24.8274   -3.8169 H         1 04A701      0.0000 
     59 H          16.4539  -26.6532    2.3761 H         1 04A701      0.0000 
@<TRIPOS>BOND
     1   28    1 2    
     2   29    2 2    
     3    5    3 ar   
     4    6    3 ar   
     5   36    3 1    
     6    7    4 ar   
     7    8    4 ar   
     8   37    4 1    
     9    9    5 ar   
    10   38    5 1    
    11   10    6 ar   
    12   39    6 1    
    13   11    7 ar   
    14   40    7 1    
    15   12    8 ar   
    16   41    8 1    
    17   30    9 ar   
    18   42    9 1    
    19   30   10 ar   
    20   43   10 1    
    21   31   11 ar   
    22   44   11 1    
    23   31   12 ar   
    24   45   12 1    
    25   15   13 1    
    26   25   13 1    
    27   46   13 1    
    28   47   13 1    
    29   16   14 1    
    30   25   14 1    
    31   48   14 1    
    32   49   14 1    
    33   32   15 1    
    34   50   15 1    
    35   51   15 1    
    36   33   16 1    
    37   52   16 1    
    38   53   16 1    
    39   28   17 1    
    40   30   17 1    
    41   54   17 1    
    42   55   17 1    
    43   29   18 1    
    44   31   18 1    
    45   56   18 1    
    46   57   18 1    
    47   21   19 1    
    48   32   19 2    
    49   22   20 1    
    50   33   20 2    
    51   34   21 2    
    52   35   22 2    
    53   28   23 am   
    54   34   23 1    
    55   58   23 1    
    56   29   24 am   
    57   35   24 1    
    58   59   24 1    
    59   32   26 1    
    60   34   26 1    
    61   33   27 1    
    62   35   27 1    
@<TRIPOS>SUBSTRUCTURE
     1 04A701      1 GROUP   
@<TRIPOS>SET

