#    Name: 2xpt_TDC_1_INTS_M
#    Modification time : Tue Mar 25 06:30:53 2014

@<TRIPOS>MOLECULE
2xpt_TDC_1_INTS_M
   51     0     9     0     0
SMALL
NO_CHARGES


@<TRIPOS>ATOM
      1 N          22.8685   35.1615   31.1080 N.am      2 SEC2        0.0000 
      2 N          21.9150   35.8100   32.0650 N.am      8 SEL2        0.0000 
      3 N          23.8220   34.5130   30.1510 N.am      5 SEP2        0.0000 
      4 CA         17.6845   38.2120   36.2830 C.3       3 GLC5        0.0000 
      5 CA         19.5160   38.5940   37.1110 C.3       9 GLL5        0.0000 
      6 CA         15.8530   37.8300   35.4550 C.3       6 GLP5        0.0000 
      7 CA         19.0910   39.8040   38.7465 C.3       3 GLC5        0.0000 
      8 CA         18.6660   41.0140   40.3820 C.3       6 GLP5        0.0000 
      9 O          21.6965   31.8655   37.8585 O.2       1 ALC1        0.0000 
     10 O          21.9510   32.8420   36.9180 O.2       7 ALL1        0.0000 
     11 O          21.4420   30.8890   38.7990 O.2       4 ALP1        0.0000 
     12 CA         22.5605   35.3960   38.5630 C.3       3 GLC5        0.0000 
     13 CA         22.7310   33.6640   37.9410 C.3       9 GLL5        0.0000 
     14 CA         22.3900   37.1280   39.1850 C.3       6 GLP5        0.0000 
     15 CA         24.0610   31.3490   35.1715 C.3       3 GLC5        0.0000 
     16 CA         22.8810   32.2390   35.9520 C.3       9 GLL5        0.0000 
     17 CA         25.2410   30.4590   34.3910 C.3       6 GLP5        0.0000 
     18 N          19.5720   30.3805   35.6310 N.am      2 SEC2        0.0000 
     19 N          19.6310   31.6150   36.2850 N.am      8 SEL2        0.0000 
     20 N          19.5130   29.1460   34.9770 N.am      5 SEP2        0.0000 
     21 N          19.5165   30.7815   37.3850 N.am      2 SEC2        0.0000 
     22 N          19.4020   29.9480   38.4850 N.am      5 SEP2        0.0000 
     23 N          18.3500   32.1395   37.0280 N.am      2 SEC2        0.0000 
     24 N          17.0690   32.6640   37.7710 N.am      5 SEP2        0.0000 
     25 CA         19.4750   32.2180   32.4520 C.3       3 GLC5        0.0000 
     26 CA         19.1950   33.1550   34.4620 C.3       9 GLL5        0.0000 
     27 CA         19.7550   31.2810   30.4420 C.3       6 GLP5        0.0000 
     28 CA         19.1185   31.0185   34.0850 C.3       3 GLC5        0.0000 
     29 CA         19.0420   28.8820   33.7080 C.3       6 GLP5        0.0000 
     30 N          17.2740   32.1285   36.2500 N.am      2 SEC2        0.0000 
     31 N          17.4790   31.5930   34.7290 N.am      8 SEL2        0.0000 
     32 CA         19.6685   38.6715   32.6838 C.3       3 GLC5        0.0000 
     33 CA         21.1650   37.2750   33.8930 C.3       9 GLL5        0.0000 
     34 CA         18.0310   39.4880   31.8060 C.3       6 GLP5        0.0000 
     35 CA         19.4232   39.6015   33.0983 C.3       3 GLC5        0.0000 
     36 CA         21.1210   39.6840   33.7680 C.3       9 GLL5        0.0000 
     37 CA         21.4560   42.3582   31.5657 C.3       3 GLC5        0.0000 
     38 CA         21.4530   40.8290   33.0430 C.3       9 GLL5        0.0000 
     39 CA         21.6360   43.2290   29.8010 C.3       6 GLP5        0.0000 
     40 CA         20.0095   40.9347   32.0918 C.3       3 GLC5        0.0000 
     41 CA         21.0990   42.1460   33.6180 C.3       9 GLL5        0.0000 
     42 CA         18.7430   40.3820   30.8530 C.3       6 GLP5        0.0000 
     43 CA         21.2190   41.9663   36.9040 C.3       3 GLC5        0.0000 
     44 CA         20.4710   42.1670   34.8360 C.3       9 GLL5        0.0000 
     45 CA         22.1020   42.3500   38.6210 C.3       6 GLP5        0.0000 
     46 CA         21.1265   37.8510   37.8113 C.3       3 GLC5        0.0000 
     47 CA         20.2100   38.5540   35.7640 C.3       9 GLL5        0.0000 
     48 CA         18.3690   36.8972   35.0404 C.3       3 GLC5        0.0000 
     49 CA         20.2500   36.0550   35.9130 C.3       9 GLL5        0.0000 
     50 CA         16.4260   36.7960   34.3930 C.3       6 GLP5        0.0000 
     51 CA         21.6013   36.4721   37.3515 C.3       3 GLC5        0.0000 
@<TRIPOS>BOND
@<TRIPOS>SUBSTRUCTURE
     1 ALC1        9 GROUP        1 X    ALC  0     ROOT ALC X 1
     2 SEC2        1 GROUP        1 X    SEC  0     **** SEC X 2
     3 GLC5        4 GROUP        1 X    GLC  0     **** GLC X 6
     4 ALP1       11 GROUP        1 Y    ALP  0     ROOT ALP Y 8
     5 SEP2        3 GROUP        1 Y    SEP  0     **** SEP Y 9
     6 GLP5        6 GROUP        1 Y    GLP  0     **** GLP Y 13
     7 ALL1       10 GROUP        1 Z    ALL  0     ROOT ALL Z 15
     8 SEL2        2 GROUP        1 Z    SEL  0     **** SEL Z 16
     9 GLL5        5 GROUP        1 Z    GLL  0     **** GLL Z 20
@<TRIPOS>SET

