#    Name: 2xpt_TDC_1_ligand
#    Modification time : Tue Mar 25 06:30:53 2014

@<TRIPOS>MOLECULE
2xpt_TDC_1_ligand
   53    56     1     0     0
SMALL
NO_CHARGES


@<TRIPOS>ATOM
      1 O12        21.9150   35.8100   32.0650 O.2       1 TDC1209     0.0000 
      2 C12        21.4870   35.9690   33.2530 C.2       1 TDC1209     0.0000 
      3 C1B        21.1650   37.2750   33.8930 C.ar      1 TDC1209     0.0000 
      4 C11        21.4470   38.4350   33.2300 C.ar      1 TDC1209     0.0000 
      5 O11        22.0410   38.4550   32.0130 O.3       1 TDC1209     0.0000 
      6 C1A        21.1210   39.6840   33.7680 C.ar      1 TDC1209     0.0000 
      7 C10        21.4530   40.8290   33.0430 C.ar      1 TDC1209     0.0000 
      8 O10        22.0640   40.7080   31.8000 O.3       1 TDC1209     0.0000 
      9 C9         21.0990   42.1460   33.6180 C.ar      1 TDC1209     0.0000 
     10 C8         20.4710   42.1670   34.8360 C.ar      1 TDC1209     0.0000 
     11 C7         20.2010   40.9980   35.5380 C.ar      1 TDC1209     0.0000 
     12 C61        20.5100   39.7460   35.0130 C.ar      1 TDC1209     0.0000 
     13 C6         20.2100   38.5540   35.7640 C.ar      1 TDC1209     0.0000 
     14 C62        19.5160   38.5940   37.1110 C.3       1 TDC1209     0.0000 
     15 C51        20.5380   37.3300   35.1610 C.ar      1 TDC1209     0.0000 
     16 C5         20.2500   36.0550   35.9130 C.3       1 TDC1209     0.0000 
     17 C1C        21.1060   34.7280   34.0180 C.3       1 TDC1209     0.0000 
     18 C1         19.6490   34.3410   33.7160 C.2       1 TDC1209     0.0000 
     19 O1         19.0110   34.9340   32.7800 O.2       1 TDC1209     0.0000 
     20 O1C        21.8750   33.6720   33.4870 O.3       1 TDC1209     0.0000 
     21 C41        21.2310   34.9400   35.4990 C.3       1 TDC1209     0.0000 
     22 C4         20.8970   33.6150   36.3000 C.3       1 TDC1209     0.0000 
     23 N4         21.9510   32.8420   36.9180 N.4       1 TDC1209     0.0000 
     24 C43        22.7310   33.6640   37.9410 C.3       1 TDC1209     0.0000 
     25 C42        22.8810   32.2390   35.9520 C.3       1 TDC1209     0.0000 
     26 C3         19.8860   32.6720   35.6170 C.2       1 TDC1209     0.0000 
     27 O3         19.6310   31.6150   36.2850 O.co2     1 TDC1209     0.0000 
     28 C2         19.1950   33.1550   34.4620 C.2       1 TDC1209     0.0000 
     29 C21        18.0160   32.4270   33.9780 C.2       1 TDC1209     0.0000 
     30 O21        17.4790   31.5930   34.7290 O.2       1 TDC1209     0.0000 
     31 N21        17.3750   32.8170   32.8790 N.am      1 TDC1209     0.0000 
     32 H          21.3331   42.9682   33.0930 H         1 TDC1209     0.0000 
     33 H          20.1850   43.0792   35.2540 H         1 TDC1209     0.0000 
     34 H          19.7586   41.0588   36.4758 H         1 TDC1209     0.0000 
     35 H          19.2346   35.7204   35.7027 H         1 TDC1209     0.0000 
     36 H          20.3490   36.2249   36.9847 H         1 TDC1209     0.0000 
     37 H          22.2212   35.2430   35.7518 H         1 TDC1209     0.0000 
     38 H          20.2469   34.0238   37.2154 H         1 TDC1209     0.0000 
     39 H          21.4871   32.0065   37.5015 H         1 TDC1209     0.0000 
     40 H          16.5675   32.2833   32.6278 H         1 TDC1209     0.0000 
     41 H          17.7586   33.6086   32.4034 H         1 TDC1209     0.0000 
     42 H          19.3872   37.6775   37.4898 H         1 TDC1209     0.0000 
     43 H          20.0393   39.1180   37.7830 H         1 TDC1209     0.0000 
     44 H          18.6114   39.0159   37.0503 H         1 TDC1209     0.0000 
     45 H          23.4589   33.1291   38.3700 H         1 TDC1209     0.0000 
     46 H          23.1621   34.4640   37.5237 H         1 TDC1209     0.0000 
     47 H          22.1412   33.9988   38.6759 H         1 TDC1209     0.0000 
     48 H          23.3353   32.9316   35.3918 H         1 TDC1209     0.0000 
     49 H          23.5993   31.7126   36.4069 H         1 TDC1209     0.0000 
     50 H          22.4131   31.6158   35.3253 H         1 TDC1209     0.0000 
     51 H          22.1544   37.4929   31.7646 H         1 TDC1209     0.0000 
     52 H          21.7007   39.8598   31.4147 H         1 TDC1209     0.0000 
     53 H          22.2186   34.0161   32.6133 H         1 TDC1209     0.0000 
@<TRIPOS>BOND
     1    2    1 2    
     2    3    2 1    
     3   17    2 1    
     4    4    3 ar   
     5   15    3 ar   
     6    5    4 1    
     7    6    4 ar   
     8   51    5 1    
     9    7    6 ar   
    10   12    6 ar   
    11    8    7 1    
    12    9    7 ar   
    13   52    8 1    
    14   10    9 ar   
    15   32    9 1    
    16   11   10 ar   
    17   33   10 1    
    18   12   11 ar   
    19   34   11 1    
    20   13   12 ar   
    21   14   13 1    
    22   15   13 ar   
    23   42   14 1    
    24   43   14 1    
    25   44   14 1    
    26   16   15 1    
    27   21   16 1    
    28   35   16 1    
    29   36   16 1    
    30   18   17 1    
    31   20   17 1    
    32   21   17 1    
    33   19   18 2    
    34   28   18 1    
    35   53   20 1    
    36   22   21 1    
    37   37   21 1    
    38   23   22 1    
    39   26   22 1    
    40   38   22 1    
    41   24   23 1    
    42   25   23 1    
    43   39   23 1    
    44   45   24 1    
    45   46   24 1    
    46   47   24 1    
    47   48   25 1    
    48   49   25 1    
    49   50   25 1    
    50   27   26 ar   
    51   28   26 2    
    52   29   28 1    
    53   30   29 2    
    54   31   29 am   
    55   40   31 1    
    56   41   31 1    
@<TRIPOS>SUBSTRUCTURE
     1 TDC1209     1 GROUP   
@<TRIPOS>SET

