#    Name: 1odn_APV_1_INTS_M
#    Modification time : Mon Mar 24 19:58:41 2014

@<TRIPOS>MOLECULE
1odn_APV_1_INTS_M
   48     0    12     0     0
SMALL
NO_CHARGES


@<TRIPOS>ATOM
      1 CA         16.3580   34.5705    6.6475 C.3       4 GLC5        0.0000 
      2 CA         15.8930   36.4540    5.8920 C.3      12 GLL5        0.0000 
      3 CA         16.8230   32.6870    7.4030 C.3       8 GLP5        0.0000 
      4 CA         14.4900   34.9315    5.7975 C.3       4 GLC5        0.0000 
      5 CA         13.0870   33.4090    5.7030 C.3       8 GLP5        0.0000 
      6 CA         16.7650   39.0715    4.8985 C.3       4 GLC5        0.0000 
      7 CA         15.2580   37.6720    5.2270 C.3      12 GLL5        0.0000 
      8 CA         18.2720   40.4710    4.5700 C.3       8 GLP5        0.0000 
      9 CA         13.4245   35.5920    5.6525 C.3       4 GLC5        0.0000 
     10 CA         13.7620   37.7750    5.6020 C.3      12 GLL5        0.0000 
     11 CA         12.3765   37.8755    3.5555 C.3       4 GLC5        0.0000 
     12 CA         13.0530   38.9900    4.9880 C.3      12 GLL5        0.0000 
     13 CA         11.7000   36.7610    2.1230 C.3       8 GLP5        0.0000 
     14 CA         10.0320   37.5780    2.3850 C.3       4 GLC5        0.0000 
     15 CA          8.3640   38.3950    2.6470 C.3      12 GLL5        0.0000 
     16 NZ         19.6350   36.2535    5.8270 N.4       2 LYC4        0.0000 
     17 NZ         18.2980   36.4910    6.2570 N.4      10 LYL4        0.0000 
     18 NZ         21.1840   35.4900    4.2040 N.4       6 LYP4        0.0000 
     19 N          19.6350   36.2535    5.8270 N.am      1 SEC2        0.0000 
     20 N          18.2980   36.4910    6.2570 N.am      9 SEL2        0.0000 
     21 N          20.9720   36.0160    5.3970 N.am      5 SEP2        0.0000 
     22 NZ         18.8395   35.6645    3.8255 N.4       2 LYC4        0.0000 
     23 NZ         17.5230   36.0150    4.2420 N.4      10 LYL4        0.0000 
     24 N          18.8395   35.6645    3.8255 N.am      1 SEC2        0.0000 
     25 N          17.5230   36.0150    4.2420 N.am      9 SEL2        0.0000 
     26 N          20.1560   35.3140    3.4090 N.am      5 SEP2        0.0000 
     27 N          17.0610   34.9530    3.5775 N.am      1 SEC2        0.0000 
     28 N          16.5990   33.8910    2.9130 N.am      5 SEP2        0.0000 
     29 CA          7.1875   36.0750    5.5520 C.3       4 GLC5        0.0000 
     30 CA          6.7250   37.4670    4.5440 C.3      12 GLL5        0.0000 
     31 CA          7.6500   34.6830    6.5600 C.3       8 GLP5        0.0000 
     32 CA          3.6135   38.6750    1.7500 C.3       4 GLC5        0.0000 
     33 CA          5.5370   38.4250    2.4330 C.3      12 GLL5        0.0000 
     34 CA          1.6900   38.9250    1.0670 C.3       8 GLP5        0.0000 
     35 CA          4.0930   39.3170    3.4220 C.3       4 GLC5        0.0000 
     36 CA          2.6490   40.2090    4.4110 C.3       8 GLP5        0.0000 
     37 N           3.9740   37.2765    6.2975 N.am      1 SEC2        0.0000 
     38 N           4.5060   36.6120    4.8070 N.am      9 SEL2        0.0000 
     39 N           3.4420   37.9410    7.7880 N.am      5 SEP2        0.0000 
     40 N           4.5955   35.3025    4.3030 N.am      1 SEC2        0.0000 
     41 N           4.6850   33.9930    3.7990 N.am      5 SEP2        0.0000 
     42 Zn          6.7180   40.1405    1.1960 Zn        3 ZIC7        0.0000 
     43 Zn          5.8340   39.6510    1.7940 Zn       11 ZIL7        0.0000 
     44 Zn          7.6020   40.6300    0.5980 Zn        7 ZIP7        0.0000 
     45 N           4.3960   38.0140    7.0540 N.am      1 SEC2        0.0000 
     46 N           5.3500   38.0870    6.3200 N.am      9 SEL2        0.0000 
     47 CA         13.5440   36.7772    4.0442 C.3       4 GLC5        0.0000 
     48 CA         12.5780   35.8310    2.6740 C.3       8 GLP5        0.0000 
@<TRIPOS>BOND
@<TRIPOS>SUBSTRUCTURE
     1 SEC2       19 GROUP        1 X    SEC  0     ROOT SEC X 2
     2 LYC4       16 GROUP        1 X    LYC  0     **** LYC X 4
     3 ZIC7       42 GROUP        1 X    ZIC  0     **** ZIC X 5
     4 GLC5        1 GROUP        1 X    GLC  0     **** GLC X 6
     5 SEP2       21 GROUP        1 Y    SEP  0     ROOT SEP Y 9
     6 LYP4       18 GROUP        1 Y    LYP  0     **** LYP Y 11
     7 ZIP7       44 GROUP        1 Y    ZIP  0     **** ZIP Y 12
     8 GLP5        3 GROUP        1 Y    GLP  0     **** GLP Y 13
     9 SEL2       20 GROUP        1 Z    SEL  0     ROOT SEL Z 16
    10 LYL4       17 GROUP        1 Z    LYL  0     **** LYL Z 18
    11 ZIL7       43 GROUP        1 Z    ZIL  0     **** ZIL Z 19
    12 GLL5        2 GROUP        1 Z    GLL  0     **** GLL Z 20
@<TRIPOS>SET

