#    Name: 1odn_APV_1_ligand
#    Modification time : Mon Mar 24 19:58:41 2014

@<TRIPOS>MOLECULE
1odn_APV_1_ligand
   41    42     1     0     0
SMALL
NO_CHARGES


@<TRIPOS>ATOM
      1 C1         17.3730   36.3290    5.5220 C.2       1 APV1324     0.0000 
      2 C2         15.8930   36.4540    5.8920 C.3       1 APV1324     0.0000 
      3 C3         15.2580   37.6720    5.2270 C.3       1 APV1324     0.0000 
      4 C4         13.7620   37.7750    5.6020 C.3       1 APV1324     0.0000 
      5 C7         13.0530   38.9900    4.9880 C.3       1 APV1324     0.0000 
      6 C10        11.6720   39.1410    5.5760 C.2       1 APV1324     0.0000 
      7 N11        10.6610   39.2780    4.6870 N.am      1 APV1324     0.0000 
      8 C12         9.3400   39.7050    5.0820 C.3       1 APV1324     0.0000 
      9 C13         8.4940   38.7820    5.9940 C.2       1 APV1324     0.0000 
     10 N14        15.7280   36.3600    7.3400 N.4       1 APV1324     0.0000 
     11 O15        11.4980   39.1350    6.7960 O.2       1 APV1324     0.0000 
     12 C16         8.1890   39.4820    4.0640 C.3       1 APV1324     0.0000 
     13 S17         8.3640   38.3950    2.6470 S.3       1 APV1324     0.0000 
     14 O18         8.5820   38.3430    7.1170 O.2       1 APV1324     0.0000 
     15 O19        18.2980   36.4910    6.2570 O.co2     1 APV1324     0.0000 
     16 O20        17.5230   36.0150    4.2420 O.co2     1 APV1324     0.0000 
     17 N29         7.4830   38.6270    5.0390 N.am      1 APV1324     0.0000 
     18 C30         6.7250   37.4670    4.5440 C.3       1 APV1324     0.0000 
     19 C31         5.4110   37.3450    5.1660 C.2       1 APV1324     0.0000 
     20 C32         6.7150   37.5920    2.9720 C.3       1 APV1324     0.0000 
     21 C33         5.5370   38.4250    2.4330 C.3       1 APV1324     0.0000 
     22 O42         4.5060   36.6120    4.8070 O.co2     1 APV1324     0.0000 
     23 O32         5.8340   39.6510    1.7940 O.3       1 APV1324     0.0000 
     24 O43         5.3500   38.0870    6.3200 O.co2     1 APV1324     0.0000 
     25 H          15.4033   35.5485    5.4276 H         1 APV1324     0.0000 
     26 H          15.3437   37.5846    4.1483 H         1 APV1324     0.0000 
     27 H          15.7650   38.5734    5.5572 H         1 APV1324     0.0000 
     28 H          13.6769   37.8249    6.6963 H         1 APV1324     0.0000 
     29 H          13.2535   36.8584    5.2727 H         1 APV1324     0.0000 
     30 H          12.9837   38.8494    3.9116 H         1 APV1324     0.0000 
     31 H          13.6421   39.8811    5.1930 H         1 APV1324     0.0000 
     32 H          10.8026   39.0776    3.6737 H         1 APV1324     0.0000 
     33 H           9.1904   40.6715    5.4494 H         1 APV1324     0.0000 
     34 H           7.6659   40.2723    3.8289 H         1 APV1324     0.0000 
     35 H           7.3330   36.5637    4.7536 H         1 APV1324     0.0000 
     36 H           6.8448   36.6597    2.5360 H         1 APV1324     0.0000 
     37 H           4.8326   38.5792    3.3053 H         1 APV1324     0.0000 
     38 H           4.9508   37.7396    1.7493 H         1 APV1324     0.0000 
     39 H          16.0622   35.4873    7.6960 H         1 APV1324     0.0000 
     40 H          16.2275   37.0823    7.8184 H         1 APV1324     0.0000 
     41 H          14.7685   36.4387    7.6103 H         1 APV1324     0.0000 
@<TRIPOS>BOND
     1    2    1 1    
     2   15    1 ar   
     3   16    1 ar   
     4    3    2 1    
     5   10    2 1    
     6   25    2 1    
     7    4    3 1    
     8   26    3 1    
     9   27    3 1    
    10    5    4 1    
    11   28    4 1    
    12   29    4 1    
    13    6    5 1    
    14   30    5 1    
    15   31    5 1    
    16    7    6 am   
    17   11    6 2    
    18    8    7 1    
    19   32    7 1    
    20    9    8 1    
    21   12    8 1    
    22   33    8 1    
    23   14    9 2    
    24   17    9 am   
    25   39   10 1    
    26   40   10 1    
    27   41   10 1    
    28   13   12 1    
    29   17   12 1    
    30   34   12 1    
    31   20   13 1    
    32   18   17 1    
    33   19   18 1    
    34   20   18 1    
    35   35   18 1    
    36   22   19 ar   
    37   24   19 ar   
    38   21   20 1    
    39   36   20 1    
    40   23   21 1    
    41   37   21 1    
    42   38   21 1    
@<TRIPOS>SUBSTRUCTURE
     1 APV1324     1 GROUP   
@<TRIPOS>SET

