#    Name: 1h0g_HIS_0AR_DPR_UN2_UN1_1_INTS_M
#    Modification time : Tue Mar 25 04:18:01 2014

@<TRIPOS>MOLECULE
1h0g_HIS_0AR_DPR_UN2_UN1_1_INTS_M
   70     0     9     0     0
SMALL
NO_CHARGES


@<TRIPOS>ATOM
      1 CA         44.5260   74.8780   50.5065 C.3       3 GLC5        0.0000 
      2 CA         44.2070   74.4470   52.3430 C.3       9 GLL5        0.0000 
      3 CA         44.8450   75.3090   48.6700 C.3       6 GLP5        0.0000 
      4 N          42.3615   75.6205   55.5360 N.am      2 SEC2        0.0000 
      5 N          43.0870   75.6090   54.1590 N.am      8 SEL2        0.0000 
      6 N          41.6360   75.6320   56.9130 N.am      5 SEP2        0.0000 
      7 CA         43.3600   71.2510   51.7690 C.3       3 GLC5        0.0000 
      8 CA         43.4520   73.1530   51.9650 C.3       9 GLL5        0.0000 
      9 CA         43.2680   69.3490   51.5730 C.3       6 GLP5        0.0000 
     10 CA         43.5945   73.8090   50.1875 C.3       3 GLC5        0.0000 
     11 CA         43.7370   74.4650   48.4100 C.3       6 GLP5        0.0000 
     12 CA         42.7140   72.6475   49.7770 C.3       3 GLC5        0.0000 
     13 CA         41.9480   73.3830   51.7170 C.3       9 GLL5        0.0000 
     14 CA         43.4800   71.9120   47.8370 C.3       6 GLP5        0.0000 
     15 O          41.3105   71.2710   50.6360 O.2       1 ALC1        0.0000 
     16 O          41.1200   72.4990   51.1460 O.2       7 ALL1        0.0000 
     17 O          41.5010   70.0430   50.1260 O.2       4 ALP1        0.0000 
     18 N          49.5010   72.6885   55.4530 N.am      2 SEC2        0.0000 
     19 N          49.4020   73.8880   55.9820 N.am      8 SEL2        0.0000 
     20 N          49.6000   71.4890   54.9240 N.am      5 SEP2        0.0000 
     21 CA         47.1540   77.0535   57.9510 C.3       3 GLC5        0.0000 
     22 CA         48.2660   75.3370   57.5570 C.3       9 GLL5        0.0000 
     23 CA         46.0420   78.7700   58.3450 C.3       6 GLP5        0.0000 
     24 CA         47.2720   76.1195   59.4750 C.3       3 GLC5        0.0000 
     25 CA         48.9180   74.7590   58.8230 C.3       9 GLL5        0.0000 
     26 CA         45.6260   77.4800   60.1270 C.3       6 GLP5        0.0000 
     27 CA         49.7710   73.1015   59.0515 C.3       3 GLC5        0.0000 
     28 CA         50.6240   71.4440   59.2800 C.3       6 GLP5        0.0000 
     29 CA         48.2860   75.1410   63.2160 C.3       3 GLC5        0.0000 
     30 CA         48.9660   74.7440   61.3390 C.3       9 GLL5        0.0000 
     31 CA         47.6060   75.5380   65.0930 C.3       6 GLP5        0.0000 
     32 CA         49.7950   73.0940   60.3095 C.3       3 GLC5        0.0000 
     33 CA         45.3205   70.3065   62.8860 C.3       3 GLC5        0.0000 
     34 CA         47.2530   69.2450   63.3230 C.3       9 GLL5        0.0000 
     35 CA         43.3880   71.3680   62.4490 C.3       6 GLP5        0.0000 
     36 CA         48.9615   68.7590   62.9570 C.3       3 GLC5        0.0000 
     37 CA         50.6700   68.2730   62.5910 C.3       6 GLP5        0.0000 
     38 CA         51.3425   74.4310   53.5075 C.3       3 GLC5        0.0000 
     39 CA         50.6870   75.8160   54.5250 C.3       9 GLL5        0.0000 
     40 CA         51.9980   73.0460   52.4900 C.3       6 GLP5        0.0000 
     41 CA         47.8120   78.1205   57.1770 C.3       3 GLC5        0.0000 
     42 CA         49.5820   77.4710   56.0090 C.3       9 GLL5        0.0000 
     43 O          46.1380   71.2855   53.9365 O.2       1 ALC1        0.0000 
     44 O          46.4850   72.4100   53.5240 O.2       7 ALL1        0.0000 
     45 O          45.7910   70.1610   54.3490 O.2       4 ALP1        0.0000 
     46 CA         44.3975   71.3645   60.4585 C.3       3 GLC5        0.0000 
     47 CA         45.4070   71.3610   58.4680 C.3       9 GLL5        0.0000 
     48 CA         46.0790   69.9300   57.0975 C.3       3 GLC5        0.0000 
     49 CA         46.7510   68.4990   55.7270 C.3       6 GLP5        0.0000 
     50 CA         47.5700   70.9350   58.5935 C.3       3 GLC5        0.0000 
     51 CA         49.7330   70.5090   58.7190 C.3       6 GLP5        0.0000 
     52 CA         44.4745   76.2180   56.4140 C.3       3 GLC5        0.0000 
     53 CA         44.8420   74.3010   56.0380 C.3       9 GLL5        0.0000 
     54 CA         44.1070   78.1350   56.7900 C.3       6 GLP5        0.0000 
     55 CA         44.3915   74.5250   58.7365 C.3       3 GLC5        0.0000 
     56 CA         45.1370   72.7960   58.0440 C.3       9 GLL5        0.0000 
     57 CA         43.6460   76.2540   59.4290 C.3       6 GLP5        0.0000 
     58 CA         41.6282   72.9385   53.3367 C.3       3 GLC5        0.0000 
     59 CA         41.2900   71.9890   54.7480 C.3       6 GLP5        0.0000 
     60 CA         47.1732   75.9700   61.0475 C.3       3 GLC5        0.0000 
     61 CA         48.4350   75.4580   60.0990 C.3       9 GLL5        0.0000 
     62 CA         45.6460   76.8390   61.3760 C.3       6 GLP5        0.0000 
     63 CA         49.9435   73.5613   52.1663 C.3       3 GLC5        0.0000 
     64 CA         47.9590   74.8350   51.9780 C.3       9 GLL5        0.0000 
     65 CA         47.5495   71.5678   51.1625 C.3       3 GLC5        0.0000 
     66 CA         47.8190   73.3180   51.7070 C.3       9 GLL5        0.0000 
     67 CA         47.9910   70.0010   50.3700 C.3       6 GLP5        0.0000 
     68 CA         46.3590   73.1812   50.1685 C.3       3 GLC5        0.0000 
     69 CA         45.6100   73.2280   48.3820 C.3       6 GLP5        0.0000 
     70 CA         43.0715   72.7853   55.5270 C.3       3 GLC5        0.0000 
@<TRIPOS>BOND
@<TRIPOS>SUBSTRUCTURE
     1 ALC1       15 GROUP        1 X    ALC  0     ROOT ALC X 1
     2 SEC2        4 GROUP        1 X    SEC  0     **** SEC X 2
     3 GLC5        1 GROUP        1 X    GLC  0     **** GLC X 6
     4 ALP1       17 GROUP        1 Y    ALP  0     ROOT ALP Y 8
     5 SEP2        6 GROUP        1 Y    SEP  0     **** SEP Y 9
     6 GLP5        3 GROUP        1 Y    GLP  0     **** GLP Y 13
     7 ALL1       16 GROUP        1 Z    ALL  0     ROOT ALL Z 15
     8 SEL2        5 GROUP        1 Z    SEL  0     **** SEL Z 16
     9 GLL5        2 GROUP        1 Z    GLL  0     **** GLL Z 20
@<TRIPOS>SET

