#    Name: 1h0g_HIS_0AR_DPR_UN2_UN1_1_ligand
#    Modification time : Tue Mar 25 04:18:02 2014

@<TRIPOS>MOLECULE
1h0g_HIS_0AR_DPR_UN2_UN1_1_ligand
   90    93     5     0     0
SMALL
NO_CHARGES


@<TRIPOS>ATOM
      1 N          45.6880   74.2580   52.2220 N.am      1 HIS4        0.0000
      2 CA         44.2070   74.4470   52.3430 C.3       1 HIS4        0.0000
      3 C          43.9450   74.8000   53.8080 C.2       1 HIS4        0.0000
      4 O          43.0870   75.6090   54.1590 O.2       1 HIS4        0.0000
      5 CB         43.4520   73.1530   51.9650 C.3       1 HIS4        0.0000
      6 CG         41.9480   73.3830   51.7170 C.2       1 HIS4        0.0000
      7 ND1        41.1200   72.4990   51.1460 N.pl3     1 HIS4        0.0000
      8 CD2        41.2330   74.5080   52.0100 C.2       1 HIS4        0.0000
      9 CE1        39.9510   73.1100   51.1160 C.2       1 HIS4        0.0000
     10 NE2        39.9620   74.3270   51.6250 N.2       1 HIS4        0.0000
     11 HA         43.8856   75.2467   51.7304 H         1 HIS4        0.0000
     12 HB2        43.5723   72.4244   52.7733 H         1 HIS4        0.0000
     13 HB3        43.9020   72.7326   51.0598 H         1 HIS4        0.0000
     14 HD1        41.3381   71.6282   50.8356 H         1 HIS4        0.0000
     15 HD2        41.5977   75.3007   52.4281 H         1 HIS4        0.0000
     16 HE1        39.1150   72.6805   50.7341 H         1 HIS4        0.0000
     17 C          49.2000   75.0450   56.3480 C.2       2 0AR1        0.0000
     18 N          46.9510   74.6830   57.3150 N.am      2 0AR1        0.0000
     19 O          49.4020   73.8880   55.9820 O.2       2 0AR1        0.0000
     20 CA         48.2660   75.3370   57.5570 C.3       2 0AR1        0.0000
     21 CB         48.9180   74.7590   58.8230 C.3       2 0AR1        0.0000
     22 CD         48.9660   74.7440   61.3390 C.3       2 0AR1        0.0000
     23 NE         48.2950   73.4380   61.4430 N.pl3     2 0AR1        0.0000
     24 CG         48.4350   75.4580   60.0990 C.3       2 0AR1        0.0000
     25 CZ         48.5620   72.5750   62.4210 C.cat     2 0AR1        0.0000
     26 C0B        48.1050   70.5100   63.4310 C.2       2 0AR1        0.0000
     27 O0C        48.9000   70.6580   64.3620 O.2       2 0AR1        0.0000
     28 C1B        47.2530   69.2450   63.3230 C.3       2 0AR1        0.0000
     29 NH1        49.5050   72.8510   63.3240 N.pl3     2 0AR1        0.0000
     30 NH2        47.8950   71.4120   62.4620 N.am      2 0AR1        0.0000
     31 H          46.6812   73.9577   57.9884 H         2 0AR1        0.0000
     32 H          48.1619   76.3846   57.6582 H         2 0AR1        0.0000
     33 H          50.0037   74.8664   58.7446 H         2 0AR1        0.0000
     34 H          48.6841   73.6925   58.8882 H         2 0AR1        0.0000
     35 H          50.0386   74.6196   61.2349 H         2 0AR1        0.0000
     36 H          48.7550   75.3567   62.2090 H         2 0AR1        0.0000
     37 H          47.5953   73.2369   60.6957 H         2 0AR1        0.0000
     38 H          47.3474   75.4539   60.1178 H         2 0AR1        0.0000
     39 H          48.7867   76.4873   60.0965 H         2 0AR1        0.0000
     40 H          49.6384   72.1693   64.0433 H         2 0AR1        0.0000
     41 H          49.9935   73.7147   63.2002 H         2 0AR1        0.0000
     42 H          47.1837   71.2012   61.7086 H         2 0AR1        0.0000
     43 H          47.8170   68.4223   63.2520 H         2 0AR1        0.0000
     44 H          46.6611   69.1267   64.1203 H         2 0AR1        0.0000
     45 H          46.6600   69.2642   62.5180 H         2 0AR1        0.0000
     46 N          49.7660   76.0470   55.6600 N.4       3 DPR2        0.0000
     47 CA         50.6870   75.8160   54.5250 C.3       3 DPR2        0.0000
     48 CB         51.3660   77.1910   54.4110 C.3       3 DPR2        0.0000
     49 CG         50.2950   78.1900   54.8650 C.3       3 DPR2        0.0000
     50 CD         49.5820   77.4710   56.0090 C.3       3 DPR2        0.0000
     51 C          49.9480   75.5420   53.1900 C.2       3 DPR2        0.0000
     52 O          50.5440   75.6990   52.1290 O.co2     3 DPR2        0.0000
     53 H          48.6716   76.1367   54.7426 H         3 DPR2        0.0000
     54 H          51.3994   75.1027   54.7298 H         3 DPR2        0.0000
     55 H          51.6250   77.3774   53.3984 H         3 DPR2        0.0000
     56 H          52.1982   77.2329   55.0689 H         3 DPR2        0.0000
     57 H          49.6147   78.3688   54.0717 H         3 DPR2        0.0000
     58 H          50.7599   79.0715   55.2270 H         3 DPR2        0.0000
     59 H          50.0667   77.7073   56.9237 H         3 DPR2        0.0000
     60 H          48.5544   77.7382   56.0005 H         3 DPR2        0.0000
     61 N          48.6850   75.1110   53.2420 N.am      4 UN23        0.0000
     62 CA         47.9590   74.8350   51.9780 C.3       4 UN23        0.0000
     63 C          46.5200   75.2740   52.1150 C.2       4 UN23        0.0000
     64 O          46.1680   76.4510   52.1550 O.2       4 UN23        0.0000
     65 CB         47.8190   73.3180   51.7070 C.3       4 UN23        0.0000
     66 CG         46.3970   72.9510   52.2030 C.3       4 UN23        0.0000
     67 OD1        46.4850   72.4100   53.5240 O.3       4 UN23        0.0000
     68 H          48.1673   74.9527   54.1056 H         4 UN23        0.0000
     69 H          48.3869   75.2931   51.1437 H         4 UN23        0.0000
     70 H          48.5397   72.7873   52.2756 H         4 UN23        0.0000
     71 H          47.8881   73.1352   50.6648 H         4 UN23        0.0000
     72 H          45.9632   72.3081   51.5016 H         4 UN23        0.0000
     73 H          46.1405   71.4747   53.4440 H         4 UN23        0.0000
     74 C1'        46.2310   71.4050   59.7310 C.2       5 UN15        0.0000
     75 O1'        46.9680   72.4060   59.8620 O.co2     5 UN15        0.0000
     76 O2'        46.1150   70.4520   60.5340 O.co2     5 UN15        0.0000
     77 O58        46.5450   75.9170   55.4720 O.co2     5 UN15        0.0000
     78 C1         45.4070   71.3610   58.4680 C.3       5 UN15        0.0000
     79 C3         46.1940   75.0460   56.2710 C.2       5 UN15        0.0000
     80 C4         44.8420   74.3010   56.0380 C.3       5 UN15        0.0000
     81 C5         44.8640   72.8620   56.5740 C.3       5 UN15        0.0000
     82 C6         45.1370   72.7960   58.0440 C.3       5 UN15        0.0000
     83 N4         44.7730   74.1710   54.6050 N.4       5 UN15        0.0000
     84 H          44.4706   70.8608   58.6577 H         5 UN15        0.0000
     85 H          45.9548   70.8540   57.6896 H         5 UN15        0.0000
     86 H          44.0601   74.8433   56.4235 H         5 UN15        0.0000
     87 H          45.6326   72.2993   56.0246 H         5 UN15        0.0000
     88 H          43.8937   72.3946   56.3518 H         5 UN15        0.0000
     89 H          46.0064   73.4080   58.2889 H         5 UN15        0.0000
     90 H          44.2776   73.1745   58.5995 H         5 UN15        0.0000
@<TRIPOS>BOND
     1    2    1 1
     2    3    2 1
     3    5    2 1
     4   11    2 1
     5    4    3 2
     6    6    5 1
     7   12    5 1
     8   13    5 1
     9    7    6 1
    10    8    6 2
    11    9    7 1
    12   14    7 1
    13   10    8 1
    14   15    8 1
    15   10    9 2
    16   16    9 1
    17   19   17 2
    18   20   17 1
    19   20   18 1
    20   31   18 1
    21   21   20 1
    22   32   20 1
    23   24   21 1
    24   33   21 1
    25   34   21 1
    26   23   22 1
    27   24   22 1
    28   35   22 1
    29   36   22 1
    30   25   23 ar
    31   37   23 1
    32   38   24 1
    33   39   24 1
    34   29   25 ar
    35   30   25 1
    36   27   26 2
    37   28   26 1
    38   30   26 am
    39   43   28 1
    40   44   28 1
    41   45   28 1
    42   40   29 1
    43   41   29 1
    44   42   30 1
    45   47   46 1
    46   50   46 1
    47   53   46 1
    48   48   47 1
    49   51   47 1
    50   54   47 1
    51   49   48 1
    52   55   48 1
    53   56   48 1
    54   50   49 1
    55   57   49 1
    56   58   49 1
    57   59   50 1
    58   60   50 1
    59   52   51 ar
    60   62   61 1
    61   68   61 1
    62   63   62 1
    63   65   62 1
    64   69   62 1
    65   64   63 2
    66   66   65 1
    67   70   65 1
    68   71   65 1
    69   67   66 1
    70   72   66 1
    71   73   67 1
    72   75   74 ar
    73   76   74 ar
    74   78   74 1
    75   79   77 ar
    76   82   78 1
    77   84   78 1
    78   85   78 1
    79   80   79 1
    80   81   80 1
    81   83   80 1
    82   86   80 1
    83   82   81 1
    84   87   81 1
    85   88   81 1
    86   89   82 1
    87   90   82 1
    88   63    1 am
    89   66    1 1 
    90   83    3 1 
    91   46   17 1 
    92   79   18 1 
    93   61   51 1 
@<TRIPOS>SUBSTRUCTURE
     1 HIS4        1 RESIDUE
     2 0AR1       17 GROUP
     3 DPR2       46 GROUP
     4 UN23       61 GROUP
     5 UN15       74 GROUP
@<TRIPOS>SET

