#    Name: 3oro_AGS_1_INTS_M
#    Modification time : Tue Mar 25 05:12:00 2014

@<TRIPOS>MOLECULE
3oro_AGS_1_INTS_M
   79     0    12     0     0
SMALL
NO_CHARGES


@<TRIPOS>ATOM
      1 CA         39.6440   42.3415    6.5945 C.3       4 GLC5        0.0000 
      2 CA         40.3040   42.4090    8.4580 C.3      12 GLL5        0.0000 
      3 CA         38.9840   42.2740    4.7310 C.3       8 GLP5        0.0000 
      4 CA         41.7360   41.5475    7.1375 C.3       4 GLC5        0.0000 
      5 CA         43.1680   40.6860    5.8170 C.3       8 GLP5        0.0000 
      6 CA         40.8595   43.9605    7.0355 C.3       4 GLC5        0.0000 
      7 CA         41.4150   45.5120    5.6130 C.3       8 GLP5        0.0000 
      8 N          38.0290   41.3605    6.9730 N.am      2 SEC2        0.0000 
      9 N          37.7940   41.4400    8.4290 N.am     10 SEL2        0.0000 
     10 N          38.2640   41.2810    5.5170 N.am      6 SEP2        0.0000 
     11 NZ         38.0825   43.0695   11.0650 N.4       3 LYC4        0.0000 
     12 NZ         38.7190   41.9710   10.6680 N.4      11 LYL4        0.0000 
     13 NZ         37.4460   44.1680   11.4620 N.4       7 LYP4        0.0000 
     14 N          38.0825   43.0695   11.0650 N.am      2 SEC2        0.0000 
     15 N          38.7190   41.9710   10.6680 N.am     10 SEL2        0.0000 
     16 N          37.4460   44.1680   11.4620 N.am      6 SEP2        0.0000 
     17 N          40.4175   39.9665    6.0265 N.am      2 SEC2        0.0000 
     18 N          39.9270   39.1290    7.1320 N.am     10 SEL2        0.0000 
     19 N          40.9080   40.8040    4.9210 N.am      6 SEP2        0.0000 
     20 N          40.7630   38.5860    6.1150 N.am      2 SEC2        0.0000 
     21 N          41.5990   38.0430    5.0980 N.am      6 SEP2        0.0000 
     22 NZ         42.0480   37.3520   10.0610 N.4       3 LYC4        0.0000 
     23 NZ         41.5770   38.4370    8.9200 N.4      11 LYL4        0.0000 
     24 NZ         42.5190   36.2670   11.2020 N.4       7 LYP4        0.0000 
     25 N          42.3340   37.7735    8.0710 N.am      2 SEC2        0.0000 
     26 N          41.5770   38.4370    8.9200 N.am     10 SEL2        0.0000 
     27 N          43.0910   37.1100    7.2220 N.am      6 SEP2        0.0000 
     28 N          42.0480   37.3520   10.0610 N.am      2 SEC2        0.0000 
     29 N          42.5190   36.2670   11.2020 N.am      6 SEP2        0.0000 
     30 NZ         41.0685   36.3355   11.1845 N.4       3 LYC4        0.0000 
     31 NZ         39.6180   36.4040   11.1670 N.4      11 LYL4        0.0000 
     32 CA         36.9220   37.6670    7.2320 C.3       4 GLC5        0.0000 
     33 CA         36.8130   36.0880    8.5710 C.3      12 GLL5        0.0000 
     34 CA         37.0310   39.2460    5.8930 C.3       8 GLP5        0.0000 
     35 CA         34.9065   33.9505    7.0780 C.3       4 GLC5        0.0000 
     36 CA         35.6180   35.1520    8.6280 C.3      12 GLL5        0.0000 
     37 CA         34.1950   32.7490    5.5280 C.3       8 GLP5        0.0000 
     38 CA         34.7000   32.8950    7.4995 C.3       4 GLC5        0.0000 
     39 CA         35.2050   33.0410    9.4710 C.3      12 GLL5        0.0000 
     40 CA         36.8185   32.1565    8.6815 C.3       4 GLC5        0.0000 
     41 CA         38.4320   31.2720    7.8920 C.3       8 GLP5        0.0000 
     42 CA         36.4150   32.9225   13.6940 C.3       4 GLC5        0.0000 
     43 CA         36.6360   31.3120   12.3250 C.3      12 GLL5        0.0000 
     44 CA         36.1940   34.5330   15.0630 C.3       8 GLP5        0.0000 
     45 CA         35.5065   29.8235   15.0660 C.3       4 GLC5        0.0000 
     46 CA         36.5930   30.2200   13.1980 C.3      12 GLL5        0.0000 
     47 CA         34.4200   29.4270   16.9340 C.3       8 GLP5        0.0000 
     48 O          37.8030   28.8965   14.9535 O.2       1 ALC1        0.0000 
     49 O          37.4700   30.0860   14.1940 O.2       9 ALL1        0.0000 
     50 O          38.1360   27.7070   15.7130 O.2       5 ALP1        0.0000 
     51 N          35.0880   28.2350   14.0385 N.am      2 SEC2        0.0000 
     52 N          35.6070   29.2750   13.0140 N.am     10 SEL2        0.0000 
     53 N          34.5690   27.1950   15.0630 N.am      6 SEP2        0.0000 
     54 CA         35.0790   28.2840   10.5620 C.3       4 GLC5        0.0000 
     55 CA         34.6680   29.3900   12.0020 C.3      12 GLL5        0.0000 
     56 CA         35.4900   27.1780    9.1220 C.3       8 GLP5        0.0000 
     57 CA         36.7085   28.4830   11.8500 C.3       4 GLC5        0.0000 
     58 CA         38.7490   27.5760   11.6980 C.3       8 GLP5        0.0000 
     59 CA         33.9715   29.2480   13.9970 C.3       4 GLC5        0.0000 
     60 CA         33.2750   29.1060   15.9920 C.3       8 GLP5        0.0000 
     61 CA         33.2400   30.6715   12.6605 C.3       4 GLC5        0.0000 
     62 CA         31.8120   31.9530   13.3190 C.3       8 GLP5        0.0000 
     63 CA         36.2772   35.6765    6.6098 C.3       4 GLC5        0.0000 
     64 CA         36.3390   35.7330    4.6200 C.3       8 GLP5        0.0000 
     65 CA         37.6527   34.1060    8.4707 C.3       4 GLC5        0.0000 
     66 CA         39.0900   32.5920    8.3420 C.3       8 GLP5        0.0000 
     67 CA         32.9377   35.5580   11.0962 C.3       4 GLC5        0.0000 
     68 CA         34.7690   35.3180    9.8840 C.3      12 GLL5        0.0000 
     69 CA         31.4410   36.4730   12.2840 C.3       8 GLP5        0.0000 
     70 CA         34.9913   35.0985   11.8172 C.3       4 GLC5        0.0000 
     71 CA         35.5480   35.5540   13.7260 C.3       8 GLP5        0.0000 
     72 CA         37.3368   30.7853   10.4127 C.3       4 GLC5        0.0000 
     73 CA         35.6850   31.4150   11.3120 C.3      12 GLL5        0.0000 
     74 CA         38.5130   30.2070    9.0070 C.3       8 GLP5        0.0000 
     75 CA         37.6818   29.1710   12.2297 C.3       4 GLC5        0.0000 
     76 CA         38.6213   31.0475   12.5312 C.3       4 GLC5        0.0000 
     77 CA         40.6280   31.3290   12.3010 C.3       8 GLP5        0.0000 
     78 CA         34.6749   31.8828   13.1184 C.3       4 GLC5        0.0000 
     79 CA         33.2000   32.6750   14.2000 C.3       8 GLP5        0.0000 
@<TRIPOS>BOND
@<TRIPOS>SUBSTRUCTURE
     1 ALC1       48 GROUP        1 X    ALC  0     ROOT ALC X 1
     2 SEC2        8 GROUP        1 X    SEC  0     **** SEC X 2
     3 LYC4       11 GROUP        1 X    LYC  0     **** LYC X 4
     4 GLC5        1 GROUP        1 X    GLC  0     **** GLC X 6
     5 ALP1       50 GROUP        1 Y    ALP  0     ROOT ALP Y 8
     6 SEP2       10 GROUP        1 Y    SEP  0     **** SEP Y 9
     7 LYP4       13 GROUP        1 Y    LYP  0     **** LYP Y 11
     8 GLP5        3 GROUP        1 Y    GLP  0     **** GLP Y 13
     9 ALL1       49 GROUP        1 Z    ALL  0     ROOT ALL Z 15
    10 SEL2        9 GROUP        1 Z    SEL  0     **** SEL Z 16
    11 LYL4       12 GROUP        1 Z    LYL  0     **** LYL Z 18
    12 GLL5        2 GROUP        1 Z    GLL  0     **** GLL Z 20
@<TRIPOS>SET

