#    Name: 3oro_AGS_1_ligand
#    Modification time : Tue Mar 25 05:12:00 2014

@<TRIPOS>MOLECULE
3oro_AGS_1_ligand
   43    45     1     0     0
SMALL
NO_CHARGES


@<TRIPOS>ATOM
      1 PG         39.0790   41.4700    9.2650 P.3       1 AGS340      0.0000 
      2 S1G        40.3040   42.4090    8.4580 S.3       1 AGS340      0.0000 
      3 O2G        37.7940   41.4400    8.4290 O.co2     1 AGS340      0.0000 
      4 O3G        38.7190   41.9710   10.6680 O.co2     1 AGS340      0.0000 
      5 PB         40.1360   38.8120    8.5630 P.3       1 AGS340      0.0000 
      6 O1B        39.9270   39.1290    7.1320 O.co2     1 AGS340      0.0000 
      7 O2B        41.5770   38.4370    8.9200 O.co2     1 AGS340      0.0000 
      8 O3B        39.5840   39.9680    9.5510 O.3       1 AGS340      0.0000 
      9 PA         38.5990   37.0230   10.2780 P.3       1 AGS340      0.0000 
     10 O1A        39.6180   36.4040   11.1670 O.co2     1 AGS340      0.0000 
     11 O2A        37.6700   38.0040   10.9500 O.co2     1 AGS340      0.0000 
     12 O3A        39.1920   37.5510    8.8710 O.3       1 AGS340      0.0000 
     13 O5'        37.6910   35.8300    9.6460 O.3       1 AGS340      0.0000 
     14 C5'        36.8130   36.0880    8.5710 C.3       1 AGS340      0.0000 
     15 C4'        35.6180   35.1520    8.6280 C.3       1 AGS340      0.0000 
     16 O4'        36.0480   33.8060    8.6240 O.3       1 AGS340      0.0000 
     17 C3'        34.7690   35.3180    9.8840 C.3       1 AGS340      0.0000 
     18 O3'        33.8610   36.3950    9.7890 O.3       1 AGS340      0.0000 
     19 C2'        34.1000   33.9680    9.9330 C.3       1 AGS340      0.0000 
     20 O2'        33.0200   33.9000    9.0260 O.3       1 AGS340      0.0000 
     21 C1'        35.2050   33.0410    9.4710 C.3       1 AGS340      0.0000 
     22 N9         35.9670   32.5520   10.6250 N.pl3     1 AGS340      0.0000 
     23 C8         37.0670   33.1420   11.2010 C.2       1 AGS340      0.0000 
     24 N7         37.4640   32.3770   12.2390 N.2       1 AGS340      0.0000 
     25 C5         36.6360   31.3120   12.3250 C.ar      1 AGS340      0.0000 
     26 C6         36.5930   30.2200   13.1980 C.ar      1 AGS340      0.0000 
     27 N6         37.4700   30.0860   14.1940 N.pl3     1 AGS340      0.0000 
     28 N1         35.6070   29.2750   13.0140 N.ar      1 AGS340      0.0000 
     29 C2         34.6680   29.3900   12.0020 C.ar      1 AGS340      0.0000 
     30 N3         34.7030   30.4700   11.1410 N.ar      1 AGS340      0.0000 
     31 C4         35.6850   31.4150   11.3120 C.ar      1 AGS340      0.0000 
     32 H          37.3034   35.9441    7.5950 H         1 AGS340      0.0000 
     33 H          36.4295   37.1206    8.5911 H         1 AGS340      0.0000 
     34 H          34.9789   35.3439    7.7717 H         1 AGS340      0.0000 
     35 H          35.4447   35.3757   10.7111 H         1 AGS340      0.0000 
     36 H          33.8587   33.7348   10.9262 H         1 AGS340      0.0000 
     37 H          34.7582   32.2265    8.9413 H         1 AGS340      0.0000 
     38 H          37.4728   33.9600   10.9039 H         1 AGS340      0.0000 
     39 H          38.1642   30.8019   14.2683 H         1 AGS340      0.0000 
     40 H          37.3544   29.2817   14.7768 H         1 AGS340      0.0000 
     41 H          33.9408   28.6660   11.8922 H         1 AGS340      0.0000 
     42 H          34.3520   37.1033    9.2818 H         1 AGS340      0.0000 
     43 H          32.6590   34.8316    8.9832 H         1 AGS340      0.0000 
@<TRIPOS>BOND
     1    2    1 1    
     2    3    1 ar   
     3    4    1 ar   
     4    8    1 1    
     5    6    5 ar   
     6    7    5 ar   
     7    8    5 1    
     8   12    5 1    
     9   10    9 ar   
    10   11    9 ar   
    11   12    9 1    
    12   13    9 1    
    13   14   13 1    
    14   15   14 1    
    15   32   14 1    
    16   33   14 1    
    17   16   15 1    
    18   17   15 1    
    19   34   15 1    
    20   21   16 1    
    21   18   17 1    
    22   19   17 1    
    23   35   17 1    
    24   42   18 1    
    25   20   19 1    
    26   21   19 1    
    27   36   19 1    
    28   43   20 1    
    29   22   21 1    
    30   37   21 1    
    31   23   22 1    
    32   31   22 1    
    33   24   23 2    
    34   38   23 1    
    35   25   24 1    
    36   26   25 ar   
    37   31   25 ar   
    38   27   26 1    
    39   28   26 ar   
    40   39   27 1    
    41   40   27 1    
    42   29   28 ar   
    43   30   29 ar   
    44   41   29 1    
    45   31   30 ar   
@<TRIPOS>SUBSTRUCTURE
     1 AGS340      1 GROUP   
@<TRIPOS>SET

