#    Name: 4eo8_0S3_2_INTS_M
#    Modification time : Mon Mar 24 18:20:35 2014

@<TRIPOS>MOLECULE
4eo8_0S3_2_INTS_M
   67     0     6     0     0
SMALL
NO_CHARGES


@<TRIPOS>ATOM
      1 CA        -10.3955   32.9830  -34.7135 C.3       2 GLC5        0.0000 
      2 CA         -8.9060   32.7520  -33.5950 C.3       6 GLL5        0.0000 
      3 CA        -11.8850   33.2140  -35.8320 C.3       4 GLP5        0.0000 
      4 CA         -7.8600   34.0495  -31.4050 C.3       2 GLC5        0.0000 
      5 CA         -6.7110   32.7730  -32.8160 C.3       6 GLL5        0.0000 
      6 CA         -9.0090   35.3260  -29.9940 C.3       4 GLP5        0.0000 
      7 CA         -8.3325   32.6895  -29.9645 C.3       2 GLC5        0.0000 
      8 CA         -7.5570   31.9850  -31.5640 C.3       6 GLL5        0.0000 
      9 CA         -9.1080   33.3940  -28.3650 C.3       4 GLP5        0.0000 
     10 CA         -6.6140   30.6470  -30.6175 C.3       2 GLC5        0.0000 
     11 CA         -5.6710   29.3090  -29.6710 C.3       4 GLP5        0.0000 
     12 CA         -9.9045   29.7925  -30.1575 C.3       2 GLC5        0.0000 
     13 CA        -11.2350   31.1780  -31.2860 C.3       6 GLL5        0.0000 
     14 CA         -8.5740   28.4070  -29.0290 C.3       4 GLP5        0.0000 
     15 CA        -10.7030   32.1325  -28.7285 C.3       2 GLC5        0.0000 
     16 CA        -12.2980   30.8710  -29.0920 C.3       6 GLL5        0.0000 
     17 CA        -10.4360   29.6390  -29.0605 C.3       2 GLC5        0.0000 
     18 CA        -12.5760   31.8325  -27.5355 C.3       2 GLC5        0.0000 
     19 CA        -12.8540   32.7940  -25.9790 C.3       4 GLP5        0.0000 
     20 CA        -13.2100   29.5810  -27.8220 C.3       2 GLC5        0.0000 
     21 CA        -14.1220   28.2910  -26.5520 C.3       4 GLP5        0.0000 
     22 CA        -14.2475   33.2055  -30.4860 C.3       2 GLC5        0.0000 
     23 CA        -13.6730   31.3620  -31.1290 C.3       6 GLL5        0.0000 
     24 CA        -14.8220   35.0490  -29.8430 C.3       4 GLP5        0.0000 
     25 CA        -15.1130   31.8050  -29.7720 C.3       2 GLC5        0.0000 
     26 CA        -16.5530   32.2480  -28.4150 C.3       4 GLP5        0.0000 
     27 CA        -13.9325   32.2290  -32.9725 C.3       2 GLC5        0.0000 
     28 CA        -14.1920   33.0960  -34.8160 C.3       4 GLP5        0.0000 
     29 CA        -10.5595   28.7640  -29.9480 C.3       2 GLC5        0.0000 
     30 CA        -12.5450   29.1210  -30.8670 C.3       6 GLL5        0.0000 
     31 CA        -12.9465   28.1640  -29.0755 C.3       2 GLC5        0.0000 
     32 CA        -13.3480   27.2070  -27.2840 C.3       4 GLP5        0.0000 
     33 CA         -4.5610   36.9220  -33.7270 C.3       2 GLC5        0.0000 
     34 CA         -6.7300   37.2540  -33.6370 C.3       6 GLL5        0.0000 
     35 CA         -2.3920   36.5900  -33.8170 C.3       4 GLP5        0.0000 
     36 CA         -9.6550   40.6375  -30.5620 C.3       2 GLC5        0.0000 
     37 CA         -9.4200   39.3860  -31.8160 C.3       6 GLL5        0.0000 
     38 CA         -9.8900   41.8890  -29.3080 C.3       4 GLP5        0.0000 
     39 CA        -11.3975   39.4695  -31.1715 C.3       2 GLC5        0.0000 
     40 CA        -13.3750   39.5530  -30.5270 C.3       4 GLP5        0.0000 
     41 CA         -9.9110   40.2210  -33.2430 C.3       2 GLC5        0.0000 
     42 CA        -10.4020   41.0560  -34.6700 C.3       4 GLP5        0.0000 
     43 CA         -9.7755   32.9235  -36.4625 C.3       2 GLC5        0.0000 
     44 CA         -7.6660   32.6330  -37.0930 C.3       6 GLL5        0.0000 
     45 N          -3.6435   32.5290  -30.7995 N.am      1 SEC2        0.0000 
     46 N          -4.6230   32.3050  -31.7490 N.am      5 SEL2        0.0000 
     47 N          -2.6640   32.7530  -29.8500 N.am      3 SEP2        0.0000 
     48 N          -3.4005   33.9665  -32.8415 N.am      1 SEC2        0.0000 
     49 N          -4.7540   33.9000  -33.3310 N.am      5 SEL2        0.0000 
     50 N          -2.0470   34.0330  -32.3520 N.am      3 SEP2        0.0000 
     51 CA         -8.9913   33.8822  -31.4895 C.3       2 GLC5        0.0000 
     52 CA         -9.9245   32.3967  -29.9557 C.3       2 GLC5        0.0000 
     53 CA        -10.2470   31.6210  -31.8070 C.3       6 GLL5        0.0000 
     54 CA         -6.1565   37.0682  -31.3175 C.3       2 GLC5        0.0000 
     55 CA         -7.3520   38.0730  -32.4950 C.3       6 GLL5        0.0000 
     56 CA         -5.2720   36.4730  -29.5690 C.3       4 GLP5        0.0000 
     57 CA         -7.4210   39.5122  -34.0940 C.3       2 GLC5        0.0000 
     58 CA         -7.8010   41.3610  -35.1220 C.3       4 GLP5        0.0000 
     59 CA         -8.9830   36.0333  -31.7981 C.3       2 GLC5        0.0000 
     60 CA         -9.6340   37.3130  -33.1720 C.3       6 GLL5        0.0000 
     61 CA        -11.1292   36.0495  -34.2583 C.3       2 GLC5        0.0000 
     62 CA        -12.9370   35.2620  -34.8370 C.3       4 GLP5        0.0000 
     63 CA         -9.9507   38.5159  -34.4771 C.3       2 GLC5        0.0000 
     64 CA         -9.0090   36.3610  -34.1870 C.3       6 GLL5        0.0000 
     65 CA        -10.7990   39.8880  -35.3400 C.3       4 GLP5        0.0000 
     66 CA         -8.8733   37.0861  -31.1268 C.3       2 GLC5        0.0000 
     67 CA         -8.7580   38.5400  -32.9110 C.3       6 GLL5        0.0000 
@<TRIPOS>BOND
@<TRIPOS>SUBSTRUCTURE
     1 SEC2       45 GROUP        1 X    SEC  0     ROOT SEC X 2
     2 GLC5        1 GROUP        1 X    GLC  0     **** GLC X 6
     3 SEP2       47 GROUP        1 Y    SEP  0     ROOT SEP Y 9
     4 GLP5        3 GROUP        1 Y    GLP  0     **** GLP Y 13
     5 SEL2       46 GROUP        1 Z    SEL  0     ROOT SEL Z 16
     6 GLL5        2 GROUP        1 Z    GLL  0     **** GLL Z 20
@<TRIPOS>SET

