#    Name: 4eo8_0S3_2_ligand
#    Modification time : Mon Mar 24 18:20:36 2014

@<TRIPOS>MOLECULE
4eo8_0S3_2_ligand
   56    57     1     0     0
SMALL
NO_CHARGES


@<TRIPOS>ATOM
      1 C01        -8.9060   32.7520  -33.5950 C.2       1 0S3600      0.0000 
      2 C02        -7.5440   33.1380  -33.8800 C.2       1 0S3600      0.0000 
      3 C03        -6.7110   32.7730  -32.8160 C.2       1 0S3600      0.0000 
      4 S04        -7.5570   31.9850  -31.5640 S.3       1 0S3600      0.0000 
      5 C05        -9.0410   32.1250  -32.3750 C.2       1 0S3600      0.0000 
      6 C06       -10.2470   31.6210  -31.8070 C.1       1 0S3600      0.0000 
      7 C07       -11.2350   31.1780  -31.2860 C.1       1 0S3600      0.0000 
      8 C08       -12.4290   30.6310  -30.6050 C.3       1 0S3600      0.0000 
      9 C09       -12.2980   30.8710  -29.0920 C.3       1 0S3600      0.0000 
     10 C10       -13.6730   31.3620  -31.1290 C.3       1 0S3600      0.0000 
     11 C11       -12.5450   29.1210  -30.8670 C.3       1 0S3600      0.0000 
     12 N12        -7.0840   33.7980  -35.0460 N.am      1 0S3600      0.0000 
     13 C13        -7.0390   35.2000  -35.1110 C.2       1 0S3600      0.0000 
     14 N14        -6.6220   33.0890  -36.1820 N.3       1 0S3600      0.0000 
     15 C15        -7.5510   35.9750  -33.8780 C.3       1 0S3600      0.0000 
     16 O16        -6.6290   35.8100  -36.0990 O.2       1 0S3600      0.0000 
     17 C17        -6.7300   37.2540  -33.6370 C.3       1 0S3600      0.0000 
     18 C18        -7.3520   38.0730  -32.4950 C.3       1 0S3600      0.0000 
     19 C19        -8.7580   38.5400  -32.9110 C.3       1 0S3600      0.0000 
     20 C20        -9.6340   37.3130  -33.1720 C.3       1 0S3600      0.0000 
     21 C21        -9.0090   36.3610  -34.1870 C.3       1 0S3600      0.0000 
     22 C22        -9.4200   39.3860  -31.8160 C.3       1 0S3600      0.0000 
     23 C23        -5.5300   32.1500  -35.9770 C.3       1 0S3600      0.0000 
     24 C24        -7.6660   32.6330  -37.0930 C.3       1 0S3600      0.0000 
     25 C25        -5.2900   32.9240  -32.5660 C.2       1 0S3600      0.0000 
     26 O26        -4.6230   32.3050  -31.7490 O.co2     1 0S3600      0.0000 
     27 O27        -4.7540   33.9000  -33.3310 O.co2     1 0S3600      0.0000 
     28 H          -9.6282   32.9310  -34.2206 H         1 0S3600      0.0000 
     29 H          -7.5291   35.3515  -33.0313 H         1 0S3600      0.0000 
     30 H          -6.7235   37.8494  -34.5421 H         1 0S3600      0.0000 
     31 H          -5.7157   36.9818  -33.3710 H         1 0S3600      0.0000 
     32 H          -6.7340   38.9361  -32.2954 H         1 0S3600      0.0000 
     33 H          -7.4279   37.4559  -31.6118 H         1 0S3600      0.0000 
     34 H          -8.6906   39.1122  -33.8097 H         1 0S3600      0.0000 
     35 H         -10.6102   37.6436  -33.5420 H         1 0S3600      0.0000 
     36 H          -9.7922   36.7802  -32.2285 H         1 0S3600      0.0000 
     37 H          -9.6130   35.4398  -34.2379 H         1 0S3600      0.0000 
     38 H          -9.0453   36.8244  -35.1869 H         1 0S3600      0.0000 
     39 H         -11.4879   30.4231  -28.7137 H         1 0S3600      0.0000 
     40 H         -12.2227   31.8444  -28.8755 H         1 0S3600      0.0000 
     41 H         -13.0884   30.5195  -28.5904 H         1 0S3600      0.0000 
     42 H         -13.6277   32.3453  -30.9528 H         1 0S3600      0.0000 
     43 H         -13.7838   31.2459  -32.1160 H         1 0S3600      0.0000 
     44 H         -14.5105   31.0254  -30.6985 H         1 0S3600      0.0000 
     45 H         -11.7431   28.6239  -30.5356 H         1 0S3600      0.0000 
     46 H         -13.3434   28.7255  -30.4129 H         1 0S3600      0.0000 
     47 H         -12.6326   28.9190  -31.8425 H         1 0S3600      0.0000 
     48 H          -9.5217   38.8750  -30.9624 H         1 0S3600      0.0000 
     49 H          -8.8860   40.2049  -31.6056 H         1 0S3600      0.0000 
     50 H         -10.3331   39.6926  -32.0847 H         1 0S3600      0.0000 
     51 H          -4.7126   32.6029  -35.6209 H         1 0S3600      0.0000 
     52 H          -5.7748   31.4322  -35.3252 H         1 0S3600      0.0000 
     53 H          -5.2662   31.6957  -36.8279 H         1 0S3600      0.0000 
     54 H          -7.2865   32.1387  -37.8751 H         1 0S3600      0.0000 
     55 H          -8.3101   32.0160  -36.6408 H         1 0S3600      0.0000 
     56 H          -8.1988   33.3960  -37.4590 H         1 0S3600      0.0000 
@<TRIPOS>BOND
     1    2    1 1    
     2    5    1 2    
     3   28    1 1    
     4    3    2 2    
     5   12    2 1    
     6    4    3 1    
     7   25    3 1    
     8    5    4 1    
     9    6    5 1    
    10    7    6 3    
    11    8    7 1    
    12    9    8 1    
    13   10    8 1    
    14   11    8 1    
    15   39    9 1    
    16   40    9 1    
    17   41    9 1    
    18   42   10 1    
    19   43   10 1    
    20   44   10 1    
    21   45   11 1    
    22   46   11 1    
    23   47   11 1    
    24   13   12 am   
    25   14   12 1    
    26   15   13 1    
    27   16   13 2    
    28   23   14 1    
    29   24   14 1    
    30   17   15 1    
    31   21   15 1    
    32   29   15 1    
    33   18   17 1    
    34   30   17 1    
    35   31   17 1    
    36   19   18 1    
    37   32   18 1    
    38   33   18 1    
    39   20   19 1    
    40   22   19 1    
    41   34   19 1    
    42   21   20 1    
    43   35   20 1    
    44   36   20 1    
    45   37   21 1    
    46   38   21 1    
    47   48   22 1    
    48   49   22 1    
    49   50   22 1    
    50   51   23 1    
    51   52   23 1    
    52   53   23 1    
    53   54   24 1    
    54   55   24 1    
    55   56   24 1    
    56   26   25 ar   
    57   27   25 ar   
@<TRIPOS>SUBSTRUCTURE
     1 0S3600      1 GROUP   
@<TRIPOS>SET

