#    Name: 4eoc_BLA_1_INTS_M
#    Modification time : Mon Mar 24 18:20:53 2014

@<TRIPOS>MOLECULE
4eoc_BLA_1_INTS_M
  134     0    12     0     0
SMALL
NO_CHARGES


@<TRIPOS>ATOM
      1 O          -0.8225   27.6920  -21.1220 O.2       1 ALC1        0.0000 
      2 O           0.7280   28.0960  -21.1530 O.2       9 ALL1        0.0000 
      3 O          -2.3730   27.2880  -21.0910 O.2       5 ALP1        0.0000 
      4 CA          2.2430   28.7080  -25.0520 C.3       4 GLC5        0.0000 
      5 CA          3.2030   29.6070  -23.5100 C.3      12 GLL5        0.0000 
      6 CA          1.2830   27.8090  -26.5940 C.3       8 GLP5        0.0000 
      7 CA          3.8360   29.0085  -21.4955 C.3       4 GLC5        0.0000 
      8 CA          4.4690   28.4100  -19.4810 C.3       8 GLP5        0.0000 
      9 CA          3.6165   31.5215  -23.3930 C.3       4 GLC5        0.0000 
     10 CA          4.0300   33.4360  -23.2760 C.3       8 GLP5        0.0000 
     11 CA          4.1165   27.4850  -21.0865 C.3       4 GLC5        0.0000 
     12 CA          3.7640   26.5600  -22.6920 C.3      12 GLL5        0.0000 
     13 CA          1.7670   26.3000  -24.9685 C.3       4 GLC5        0.0000 
     14 CA          3.3430   25.7370  -23.8930 C.3      12 GLL5        0.0000 
     15 CA          0.1910   26.8630  -26.0440 C.3       8 GLP5        0.0000 
     16 CA          2.0275   24.3670  -24.2135 C.3       4 GLC5        0.0000 
     17 CA          0.7120   22.9970  -24.5340 C.3       8 GLP5        0.0000 
     18 NZ          5.1730   22.7805  -23.1230 N.4       3 LYC4        0.0000 
     19 NZ          5.0710   24.2220  -23.3840 N.4      11 LYL4        0.0000 
     20 NZ          4.4220   20.5790  -23.5430 N.4       7 LYP4        0.0000 
     21 N           5.1730   22.7805  -23.1230 N.am      2 SEC2        0.0000 
     22 N           5.0710   24.2220  -23.3840 N.am     10 SEL2        0.0000 
     23 N           5.2750   21.3390  -22.8620 N.am      6 SEP2        0.0000 
     24 NZ          3.9170   22.5310  -24.9350 N.4       3 LYC4        0.0000 
     25 NZ          4.0990   23.9570  -25.3170 N.4      11 LYL4        0.0000 
     26 N           3.4925   24.2605  -26.5300 N.am      2 SEC2        0.0000 
     27 N           4.0990   23.9570  -25.3170 N.am     10 SEL2        0.0000 
     28 N           2.8860   24.5640  -27.7430 N.am      6 SEP2        0.0000 
     29 N           3.9170   22.5310  -24.9350 N.am      2 SEC2        0.0000 
     30 N           3.7350   21.1050  -24.5530 N.am      6 SEP2        0.0000 
     31 CA          0.0610   31.5165  -23.6285 C.3       4 GLC5        0.0000 
     32 CA          0.6820   30.4840  -22.0000 C.3      12 GLL5        0.0000 
     33 CA         -0.5600   32.5490  -25.2570 C.3       8 GLP5        0.0000 
     34 O          -1.9740   28.7015  -21.0885 O.2       1 ALC1        0.0000 
     35 O          -1.5750   30.1150  -21.0860 O.2       9 ALL1        0.0000 
     36 CA         -1.8850   30.9340  -22.9600 C.3       4 GLC5        0.0000 
     37 CA         -0.5480   30.9060  -21.5300 C.3      12 GLL5        0.0000 
     38 CA         -3.2220   30.9620  -24.3900 C.3       8 GLP5        0.0000 
     39 CA         -0.1175   33.3135  -19.8840 C.3       4 GLC5        0.0000 
     40 CA         -0.0820   33.5360  -21.8970 C.3      12 GLL5        0.0000 
     41 CA         -0.1530   33.0910  -17.8710 C.3       8 GLP5        0.0000 
     42 CA          1.1895   34.4720  -22.7440 C.3       4 GLC5        0.0000 
     43 CA          2.4610   35.4080  -23.5910 C.3       8 GLP5        0.0000 
     44 CA         -0.1735   35.4355  -21.0160 C.3       4 GLC5        0.0000 
     45 CA         -0.2650   37.3350  -20.1350 C.3       8 GLP5        0.0000 
     46 N          -5.0320   30.5810  -19.4705 N.am      2 SEC2        0.0000 
     47 N          -3.7050   30.5490  -20.2690 N.am     10 SEL2        0.0000 
     48 N          -6.3590   30.6130  -18.6720 N.am      6 SEP2        0.0000 
     49 N          -4.0510   29.3690  -20.5825 N.am      2 SEC2        0.0000 
     50 N          -4.3970   28.1890  -20.8960 N.am      6 SEP2        0.0000 
     51 CA         -1.6340   33.3330  -19.3005 C.3       4 GLC5        0.0000 
     52 CA         -3.1150   33.5750  -20.7300 C.3      12 GLL5        0.0000 
     53 CA         -4.3185   35.5945  -19.3205 C.3       4 GLC5        0.0000 
     54 CA         -4.3550   33.5290  -20.1690 C.3      12 GLL5        0.0000 
     55 CA         -4.2820   37.6600  -18.4720 C.3       8 GLP5        0.0000 
     56 CA         -8.0320   27.9865  -16.2785 C.3       4 GLC5        0.0000 
     57 CA         -6.6420   27.1850  -16.9120 C.3      12 GLL5        0.0000 
     58 CA         -9.4220   28.7880  -15.6450 C.3       8 GLP5        0.0000 
     59 CA         -5.7445   28.7500  -15.6590 C.3       4 GLC5        0.0000 
     60 CA         -4.8470   30.3150  -14.4060 C.3       8 GLP5        0.0000 
     61 N          -5.3160   29.7665  -18.2030 N.am      2 SEC2        0.0000 
     62 N          -4.2730   28.9200  -17.7340 N.am     10 SEL2        0.0000 
     63 CA         -4.7265   25.0065  -18.9590 C.3       4 GLC5        0.0000 
     64 CA         -5.2270   24.1540  -16.9760 C.3      12 GLL5        0.0000 
     65 CA         -4.2260   25.8590  -20.9420 C.3       8 GLP5        0.0000 
     66 CA         -8.3975   24.1960  -17.0250 C.3       4 GLC5        0.0000 
     67 CA         -6.5730   23.9820  -16.9240 C.3      12 GLL5        0.0000 
     68 CA        -10.2220   24.4100  -17.1260 C.3       8 GLP5        0.0000 
     69 CA         -7.4460   24.0820  -18.6370 C.3       4 GLC5        0.0000 
     70 CA         -8.3190   24.1820  -20.3500 C.3       8 GLP5        0.0000 
     71 CA         -5.8085   23.1110  -15.4595 C.3       4 GLC5        0.0000 
     72 CA         -5.0440   22.2400  -13.9950 C.3       8 GLP5        0.0000 
     73 CA         -3.2285   22.9100  -18.3590 C.3       4 GLC5        0.0000 
     74 CA         -2.3690   24.6990  -17.8010 C.3      12 GLL5        0.0000 
     75 CA         -4.0880   21.1210  -18.9170 C.3       8 GLP5        0.0000 
     76 CA         -3.0430   23.6675  -15.9770 C.3       4 GLC5        0.0000 
     77 CA         -3.7170   22.6360  -14.1530 C.3       8 GLP5        0.0000 
     78 CA         -1.1560   22.0125  -18.8630 C.3       4 GLC5        0.0000 
     79 CA         -0.0890   22.5120  -17.2530 C.3      12 GLL5        0.0000 
     80 CA         -2.2230   21.5130  -20.4730 C.3       8 GLP5        0.0000 
     81 CA         -0.3465   20.7245  -16.7090 C.3       4 GLC5        0.0000 
     82 CA         -0.6040   18.9370  -16.1650 C.3       8 GLP5        0.0000 
     83 CA          1.4940   21.6675  -16.2860 C.3       4 GLC5        0.0000 
     84 CA          3.0770   20.8230  -15.3190 C.3       8 GLP5        0.0000 
     85 CA         -0.2315   23.7465  -15.8025 C.3       4 GLC5        0.0000 
     86 CA         -0.3740   24.9810  -14.3520 C.3       8 GLP5        0.0000 
     87 CA         -1.3825   22.1065  -15.6070 C.3       4 GLC5        0.0000 
     88 CA         -2.6760   21.7010  -13.9610 C.3       8 GLP5        0.0000 
     89 CA          2.3775   21.7145  -19.8305 C.3       4 GLC5        0.0000 
     90 CA          2.4090   23.2970  -19.1350 C.3      12 GLL5        0.0000 
     91 CA          2.3460   20.1320  -20.5260 C.3       8 GLP5        0.0000 
     92 CA          3.4690   23.0500  -16.4275 C.3       4 GLC5        0.0000 
     93 CA          3.3890   24.0230  -18.2420 C.3      12 GLL5        0.0000 
     94 CA          3.5490   22.0770  -14.6130 C.3       8 GLP5        0.0000 
     95 CA          4.3850   25.6130  -18.7420 C.3       4 GLC5        0.0000 
     96 CA          5.3810   27.2030  -19.2420 C.3       8 GLP5        0.0000 
     97 NZ          6.4675   24.1945  -19.0715 N.4       3 LYC4        0.0000 
     98 NZ          5.1280   22.8590  -19.3160 N.4      11 LYL4        0.0000 
     99 NZ          7.8070   25.5300  -18.8270 N.4       7 LYP4        0.0000 
    100 NZ          6.7110   24.7330  -18.1330 N.4       3 LYC4        0.0000 
    101 NZ          5.6150   23.9360  -17.4390 N.4      11 LYL4        0.0000 
    102 N           6.7110   24.7330  -18.1330 N.am      2 SEC2        0.0000 
    103 N           5.6150   23.9360  -17.4390 N.am     10 SEL2        0.0000 
    104 N           7.8070   25.5300  -18.8270 N.am      6 SEP2        0.0000 
    105 CA          3.0485   27.4065  -20.2555 C.3       4 GLC5        0.0000 
    106 CA          1.6010   25.7330  -20.7040 C.3      12 GLL5        0.0000 
    107 CA          0.9548   27.2935  -23.2310 C.3       4 GLC5        0.0000 
    108 CA          1.6550   27.0730  -21.3560 C.3      12 GLL5        0.0000 
    109 CA         -0.2440   27.3200  -24.6740 C.3       8 GLP5        0.0000 
    110 CA          3.1829   28.5096  -20.8246 C.3       4 GLC5        0.0000 
    111 CA          1.2610   29.1200  -21.9410 C.3      12 GLL5        0.0000 
    112 CA          0.5077   28.5130  -23.4010 C.3       4 GLC5        0.0000 
    113 CA          1.1174   31.2065  -20.2246 C.3       4 GLC5        0.0000 
    114 CA          2.0230   32.0590  -18.6990 C.3       8 GLP5        0.0000 
    115 CA         -0.5218   32.7482  -23.4795 C.3       4 GLC5        0.0000 
    116 CA         -0.8850   32.3590  -21.5070 C.3      12 GLL5        0.0000 
    117 CA         -0.8742   32.7248  -19.5478 C.3       4 GLC5        0.0000 
    118 CA         -2.9663   31.9642  -22.6130 C.3       4 GLC5        0.0000 
    119 CA         -2.3060   32.3580  -20.9420 C.3      12 GLL5        0.0000 
    120 CA         -5.2640   32.2880  -20.7948 C.3       4 GLC5        0.0000 
    121 CA         -6.7930   31.0240  -21.1400 C.3       8 GLP5        0.0000 
    122 CA         -4.0550   34.0165  -18.5678 C.3       4 GLC5        0.0000 
    123 CA         -4.3750   34.4810  -16.6860 C.3       8 GLP5        0.0000 
    124 CA         -4.5812   25.9950  -19.1047 C.3       4 GLC5        0.0000 
    125 CA         -5.2560   26.8190  -17.2570 C.3      12 GLL5        0.0000 
    126 CA         -4.3195   23.7172  -15.6400 C.3       4 GLC5        0.0000 
    127 CA         -4.6170   25.4430  -17.2780 C.3      12 GLL5        0.0000 
    128 CA         -3.5120   25.5410  -19.3460 C.3       4 GLC5        0.0000 
    129 CA         -1.5860   25.1020  -16.0510 C.3       4 GLC5        0.0000 
    130 CA         -3.2270   25.7470  -17.6990 C.3      12 GLL5        0.0000 
    131 CA         -4.9940   22.5945  -17.9335 C.3       4 GLC5        0.0000 
    132 CA         -0.4882   23.5135  -20.2986 C.3       4 GLC5        0.0000 
    133 CA          0.0140   23.6540  -18.1890 C.3      12 GLL5        0.0000 
    134 CA         -1.6280   22.5150  -21.4110 C.3       8 GLP5        0.0000 
@<TRIPOS>BOND
@<TRIPOS>SUBSTRUCTURE
     1 ALC1        1 GROUP        1 X    ALC  0     ROOT ALC X 1
     2 SEC2       21 GROUP        1 X    SEC  0     **** SEC X 2
     3 LYC4       18 GROUP        1 X    LYC  0     **** LYC X 4
     4 GLC5        4 GROUP        1 X    GLC  0     **** GLC X 6
     5 ALP1        3 GROUP        1 Y    ALP  0     ROOT ALP Y 8
     6 SEP2       23 GROUP        1 Y    SEP  0     **** SEP Y 9
     7 LYP4       20 GROUP        1 Y    LYP  0     **** LYP Y 11
     8 GLP5        6 GROUP        1 Y    GLP  0     **** GLP Y 13
     9 ALL1        2 GROUP        1 Z    ALL  0     ROOT ALL Z 15
    10 SEL2       22 GROUP        1 Z    SEL  0     **** SEL Z 16
    11 LYL4       19 GROUP        1 Z    LYL  0     **** LYL Z 18
    12 GLL5        5 GROUP        1 Z    GLL  0     **** GLL Z 20
@<TRIPOS>SET

