#    Name: 4eoc_BLA_1_ligand
#    Modification time : Mon Mar 24 18:20:53 2014

@<TRIPOS>MOLECULE
4eoc_BLA_1_ligand
   71    74     1     0     0
SMALL
NO_CHARGES


@<TRIPOS>ATOM
      1 CHA         1.6010   25.7330  -20.7040 C.2       1 BLA1001     0.0000 
      2 NA          0.7280   28.0960  -21.1530 N.pl3     1 BLA1001     0.0000 
      3 C1A         1.6550   27.0730  -21.3560 C.2       1 BLA1001     0.0000 
      4 C2A         2.6520   27.4610  -22.2200 C.2       1 BLA1001     0.0000 
      5 C3A         2.4130   28.7360  -22.5710 C.2       1 BLA1001     0.0000 
      6 C4A         1.2610   29.1200  -21.9410 C.2       1 BLA1001     0.0000 
      7 CMA         3.2030   29.6070  -23.5100 C.3       1 BLA1001     0.0000 
      8 CAA         3.7640   26.5600  -22.6920 C.3       1 BLA1001     0.0000 
      9 CBA         3.3430   25.7370  -23.8930 C.3       1 BLA1001     0.0000 
     10 CGA         4.2160   24.5500  -24.2280 C.2       1 BLA1001     0.0000 
     11 O1A         5.0710   24.2220  -23.3840 O.co2     1 BLA1001     0.0000 
     12 O2A         4.0990   23.9570  -25.3170 O.co2     1 BLA1001     0.0000 
     13 CHB         0.6820   30.4840  -22.0000 C.2       1 BLA1001     0.0000 
     14 NB         -1.5750   30.1150  -21.0860 N.am      1 BLA1001     0.0000 
     15 C1B        -0.5480   30.9060  -21.5300 C.2       1 BLA1001     0.0000 
     16 C2B        -0.8850   32.3590  -21.5070 C.2       1 BLA1001     0.0000 
     17 C3B        -2.3060   32.3580  -20.9420 C.2       1 BLA1001     0.0000 
     18 C4B        -2.6140   30.9280  -20.7230 C.2       1 BLA1001     0.0000 
     19 CMB        -0.0820   33.5360  -21.8970 C.3       1 BLA1001     0.0000 
     20 OB         -3.7050   30.5490  -20.2690 O.2       1 BLA1001     0.0000 
     21 CAB        -3.1150   33.5750  -20.7300 C.2       1 BLA1001     0.0000 
     22 CBB        -4.3550   33.5290  -20.1690 C.2       1 BLA1001     0.0000 
     23 NC         -2.9640   27.0590  -17.9050 N.am      1 BLA1001     0.0000 
     24 C1C        -4.1370   27.6970  -17.6530 C.2       1 BLA1001     0.0000 
     25 C2C        -5.2560   26.8190  -17.2570 C.2       1 BLA1001     0.0000 
     26 C3C        -4.6170   25.4430  -17.2780 C.2       1 BLA1001     0.0000 
     27 C4C        -3.2270   25.7470  -17.6990 C.2       1 BLA1001     0.0000 
     28 CMC        -6.6420   27.1850  -16.9120 C.3       1 BLA1001     0.0000 
     29 OC         -4.2730   28.9200  -17.7340 O.2       1 BLA1001     0.0000 
     30 CAC        -5.2270   24.1540  -16.9760 C.2       1 BLA1001     0.0000 
     31 CBC        -6.5730   23.9820  -16.9240 C.2       1 BLA1001     0.0000 
     32 CHD        -2.3690   24.6990  -17.8010 C.2       1 BLA1001     0.0000 
     33 ND         -0.5400   25.6530  -19.4180 N.2       1 BLA1001     0.0000 
     34 C1D        -1.0440   24.7110  -18.4340 C.2       1 BLA1001     0.0000 
     35 C2D         0.0140   23.6540  -18.1890 C.2       1 BLA1001     0.0000 
     36 C3D         1.1100   24.0100  -19.0640 C.2       1 BLA1001     0.0000 
     37 C4D         0.7410   25.1920  -19.7460 C.2       1 BLA1001     0.0000 
     38 CMD        -0.0890   22.5120  -17.2530 C.3       1 BLA1001     0.0000 
     39 CAD         2.4090   23.2970  -19.1350 C.3       1 BLA1001     0.0000 
     40 CBD         3.3890   24.0230  -18.2420 C.3       1 BLA1001     0.0000 
     41 CGD         4.8200   23.5610  -18.3230 C.2       1 BLA1001     0.0000 
     42 O1D         5.1280   22.8590  -19.3160 O.co2     1 BLA1001     0.0000 
     43 O2D         5.6150   23.9360  -17.4390 O.co2     1 BLA1001     0.0000 
     44 H           2.4014   25.0681  -21.0661 H         1 BLA1001     0.0000 
     45 H          -0.0201   28.0976  -20.6461 H         1 BLA1001     0.0000 
     46 H           4.0578   25.8860  -21.8798 H         1 BLA1001     0.0000 
     47 H           4.6366   27.1660  -22.9598 H         1 BLA1001     0.0000 
     48 H           3.2897   26.4070  -24.7834 H         1 BLA1001     0.0000 
     49 H           2.2979   25.3811  -23.7327 H         1 BLA1001     0.0000 
     50 H           1.3230   31.2045  -22.4711 H         1 BLA1001     0.0000 
     51 H          -1.5661   29.1598  -21.0385 H         1 BLA1001     0.0000 
     52 H          -2.6841   34.4653  -21.0329 H         1 BLA1001     0.0000 
     53 H          -2.1473   27.4478  -18.1660 H         1 BLA1001     0.0000 
     54 H          -4.5729   23.3646  -16.8006 H         1 BLA1001     0.0000 
     55 H          -2.6482   23.7512  -17.3919 H         1 BLA1001     0.0000 
     56 H           2.7845   23.2979  -20.1516 H         1 BLA1001     0.0000 
     57 H           2.2983   22.2765  -18.7877 H         1 BLA1001     0.0000 
     58 H           3.0410   23.9377  -17.1859 H         1 BLA1001     0.0000 
     59 H           3.3471   25.1124  -18.4769 H         1 BLA1001     0.0000 
     60 H           4.1454   29.7295  -23.1987 H         1 BLA1001     0.0000 
     61 H           3.2466   29.2174  -24.4299 H         1 BLA1001     0.0000 
     62 H           2.8020   30.5190  -23.5966 H         1 BLA1001     0.0000 
     63 H           0.7583   33.6069  -21.3595 H         1 BLA1001     0.0000 
     64 H           0.1877   33.4993  -22.8592 H         1 BLA1001     0.0000 
     65 H          -0.5864   34.3895  -21.7664 H         1 BLA1001     0.0000 
     66 H          -6.6785   27.8021  -16.1260 H         1 BLA1001     0.0000 
     67 H          -7.1035   27.6472  -17.6692 H         1 BLA1001     0.0000 
     68 H          -7.1914   26.3822  -16.6801 H         1 BLA1001     0.0000 
     69 H           0.7380   21.9498  -17.2606 H         1 BLA1001     0.0000 
     70 H          -0.2283   22.8157  -16.3105 H         1 BLA1001     0.0000 
     71 H          -0.8542   21.9108  -17.4834 H         1 BLA1001     0.0000 
@<TRIPOS>BOND
     1    3    1 1    
     2   37    1 2    
     3   44    1 1    
     4    3    2 1    
     5    6    2 1    
     6   45    2 1    
     7    4    3 2    
     8    5    4 1    
     9    8    4 1    
    10    6    5 2    
    11    7    5 1    
    12   13    6 1    
    13   60    7 1    
    14   61    7 1    
    15   62    7 1    
    16    9    8 1    
    17   46    8 1    
    18   47    8 1    
    19   10    9 1    
    20   48    9 1    
    21   49    9 1    
    22   11   10 ar   
    23   12   10 ar   
    24   15   13 2    
    25   50   13 1    
    26   15   14 1    
    27   18   14 am   
    28   51   14 1    
    29   16   15 1    
    30   17   16 2    
    31   19   16 1    
    32   18   17 1    
    33   21   17 1    
    34   20   18 2    
    35   63   19 1    
    36   64   19 1    
    37   65   19 1    
    38   22   21 2    
    39   52   21 1    
    40   24   23 am   
    41   27   23 1    
    42   53   23 1    
    43   25   24 1    
    44   29   24 2    
    45   26   25 2    
    46   28   25 1    
    47   27   26 1    
    48   30   26 1    
    49   32   27 2    
    50   66   28 1    
    51   67   28 1    
    52   68   28 1    
    53   31   30 2    
    54   54   30 1    
    55   34   32 1    
    56   55   32 1    
    57   34   33 2    
    58   37   33 1    
    59   35   34 1    
    60   36   35 2    
    61   38   35 1    
    62   37   36 1    
    63   39   36 1    
    64   69   38 1    
    65   70   38 1    
    66   71   38 1    
    67   40   39 1    
    68   56   39 1    
    69   57   39 1    
    70   41   40 1    
    71   58   40 1    
    72   59   40 1    
    73   42   41 ar   
    74   43   41 ar   
@<TRIPOS>SUBSTRUCTURE
     1 BLA1001     1 GROUP   
@<TRIPOS>SET

