#    Name: 4ejn_0R4_1_INTS_M
#    Modification time : Mon Mar 24 18:06:13 2014

@<TRIPOS>MOLECULE
4ejn_0R4_1_INTS_M
   90     0     9     0     0
SMALL
NO_CHARGES


@<TRIPOS>ATOM
      1 N          36.4875   46.5535   23.8075 N.am      2 SEC2        0.0000 
      2 N          37.4060   46.1000   24.7550 N.am      8 SEL2        0.0000 
      3 N          35.5690   47.0070   22.8600 N.am      5 SEP2        0.0000 
      4 CA         35.5485   43.6460   23.4790 C.3       3 GLC5        0.0000 
      5 CA         37.3860   43.3700   23.8850 C.3       9 GLL5        0.0000 
      6 CA         33.7110   43.9220   23.0730 C.3       6 GLP5        0.0000 
      7 CA         35.0435   42.5025   23.9365 C.3       3 GLC5        0.0000 
      8 CA         36.7520   42.1290   23.7160 C.3       9 GLL5        0.0000 
      9 CA         33.3350   42.8760   24.1570 C.3       6 GLP5        0.0000 
     10 CA         35.9355   44.6910   23.2105 C.3       3 GLC5        0.0000 
     11 CA         37.8090   44.0840   22.7580 C.3       9 GLL5        0.0000 
     12 CA         34.0620   45.2980   23.6630 C.3       6 GLP5        0.0000 
     13 CA         37.9750   43.0635   17.9330 C.3       3 GLC5        0.0000 
     14 CA         37.6280   45.0110   18.0490 C.3       9 GLL5        0.0000 
     15 CA         38.3220   41.1160   17.8170 C.3       6 GLP5        0.0000 
     16 CA         39.3325   47.6695   12.7950 C.3       3 GLC5        0.0000 
     17 CA         37.7940   47.6850   14.0980 C.3       9 GLL5        0.0000 
     18 CA         40.8710   47.6540   11.4920 C.3       6 GLP5        0.0000 
     19 CA         38.0455   49.4995   12.8340 C.3       3 GLC5        0.0000 
     20 CA         38.2970   51.3140   11.5700 C.3       6 GLP5        0.0000 
     21 CA         35.8355   48.7200   14.1145 C.3       3 GLC5        0.0000 
     22 CA         33.8770   49.7550   14.1310 C.3       6 GLP5        0.0000 
     23 O          38.5990   49.9915   14.4125 O.2       1 ALC1        0.0000 
     24 O          38.4030   48.6180   14.8950 O.2       7 ALL1        0.0000 
     25 O          38.7950   51.3650   13.9300 O.2       4 ALP1        0.0000 
     26 N          38.1160   48.9725   12.0370 N.am      2 SEC2        0.0000 
     27 N          37.4590   47.9820   12.8310 N.am      8 SEL2        0.0000 
     28 N          38.7730   49.9630   11.2430 N.am      5 SEP2        0.0000 
     29 CA         36.8025   49.2255   11.8910 C.3       3 GLC5        0.0000 
     30 CA         36.8450   47.0960   12.0140 C.3       9 GLL5        0.0000 
     31 CA         36.7600   51.3550   11.7680 C.3       6 GLP5        0.0000 
     32 CA         33.0435   42.9735   14.4485 C.3       3 GLC5        0.0000 
     33 CA         31.8080   43.1450   16.0250 C.3       9 GLL5        0.0000 
     34 CA         34.2790   42.8020   12.8720 C.3       6 GLP5        0.0000 
     35 CA         30.9005   42.5295   14.2430 C.3       3 GLC5        0.0000 
     36 CA         29.9930   41.9140   12.4610 C.3       6 GLP5        0.0000 
     37 CA         29.2995   39.1620   21.2850 C.3       3 GLC5        0.0000 
     38 CA         29.6780   38.0520   19.4450 C.3       9 GLL5        0.0000 
     39 CA         28.9210   40.2720   23.1250 C.3       6 GLP5        0.0000 
     40 CA         33.4015   37.6165   20.5835 C.3       3 GLC5        0.0000 
     41 CA         31.9860   37.6690   19.6790 C.3       9 GLL5        0.0000 
     42 CA         34.8170   37.5640   21.4880 C.3       6 GLP5        0.0000 
     43 CA         32.0160   35.7635   20.8400 C.3       3 GLC5        0.0000 
     44 CA         32.0460   33.8580   22.0010 C.3       6 GLP5        0.0000 
     45 CA         33.5835   36.9635   18.4910 C.3       3 GLC5        0.0000 
     46 CA         35.1810   36.2580   17.3030 C.3       6 GLP5        0.0000 
     47 CA         35.9165   40.0078   22.9620 C.3       3 GLC5        0.0000 
     48 CA         35.1850   38.1350   22.8540 C.3       6 GLP5        0.0000 
     49 CA         38.1468   40.8934   23.5576 C.3       3 GLC5        0.0000 
     50 CA         36.5440   41.6320   22.4240 C.3       9 GLL5        0.0000 
     51 CA         39.4870   39.5960   24.0030 C.3       6 GLP5        0.0000 
     52 CA         38.2810   41.5752   20.8670 C.3       3 GLC5        0.0000 
     53 CA         39.8070   41.1580   19.8700 C.3       6 GLP5        0.0000 
     54 CA         37.0940   45.6827   21.3498 C.3       3 GLC5        0.0000 
     55 CA         37.6110   43.5850   21.4670 C.3       9 GLL5        0.0000 
     56 CA         36.4780   47.5310   20.5870 C.3       6 GLP5        0.0000 
     57 CA         35.4470   43.3554   22.3693 C.3       3 GLC5        0.0000 
     58 CA         37.5770   46.1208   20.4218 C.3       3 GLC5        0.0000 
     59 CA         38.0690   44.3530   20.2650 C.3       9 GLL5        0.0000 
     60 CA         39.1843   42.8383   20.2135 C.3       3 GLC5        0.0000 
     61 CA         39.2830   45.0680   20.2480 C.3       9 GLL5        0.0000 
     62 CA         37.4675   46.4636   19.4404 C.3       3 GLC5        0.0000 
     63 CA         39.6940   45.7840   19.1070 C.3       9 GLL5        0.0000 
     64 CA         39.3695   44.2095   16.8047 C.3       3 GLC5        0.0000 
     65 CA         40.4860   43.0240   15.6000 C.3       6 GLP5        0.0000 
     66 CA         38.5880   45.5575   12.7508 C.3       3 GLC5        0.0000 
     67 CA         37.4720   46.3210   14.6110 C.3       9 GLL5        0.0000 
     68 CA         40.0180   45.2500   11.3220 C.3       6 GLP5        0.0000 
     69 CA         38.0090   44.0185   14.0158 C.3       3 GLC5        0.0000 
     70 CA         36.8440   45.4090   13.7480 C.3       9 GLL5        0.0000 
     71 CA         38.8600   42.1720   13.8520 C.3       6 GLP5        0.0000 
     72 CA         38.3515   45.8495   11.7780 C.3       3 GLC5        0.0000 
     73 CA         36.5250   45.8020   12.4540 C.3       9 GLL5        0.0000 
     74 CA         36.0790   45.8305   10.5570 C.3       3 GLC5        0.0000 
     75 CA         35.4730   45.2120    8.8800 C.3       6 GLP5        0.0000 
     76 CA         37.0093   42.5337   17.2918 C.3       3 GLC5        0.0000 
     77 CA         35.8780   44.6160   16.6130 C.3       9 GLL5        0.0000 
     78 CA         34.9745   41.5957   15.4530 C.3       3 GLC5        0.0000 
     79 CA         35.5150   43.2870   16.9200 C.3       9 GLL5        0.0000 
     80 CA         35.0790   40.1450   14.0780 C.3       6 GLP5        0.0000 
     81 CA         29.0315   40.7618   19.6965 C.3       3 GLC5        0.0000 
     82 CA         28.8870   39.8870   18.1060 C.3       9 GLL5        0.0000 
     83 CA         29.3070   42.1820   20.8750 C.3       6 GLP5        0.0000 
     84 CA         30.6691   38.8873   16.5957 C.3       3 GLC5        0.0000 
     85 CA         31.5260   37.8900   15.1020 C.3       6 GLP5        0.0000 
     86 CA         30.0849   40.6635   19.7432 C.3       3 GLC5        0.0000 
     87 CA         31.2700   39.5110   18.3300 C.3       9 GLL5        0.0000 
     88 CA         31.4920   37.2632   17.5168 C.3       3 GLC5        0.0000 
     89 CA         30.9880   38.4080   19.1500 C.3       9 GLL5        0.0000 
     90 CA         31.4970   36.4880   15.6190 C.3       6 GLP5        0.0000 
@<TRIPOS>BOND
@<TRIPOS>SUBSTRUCTURE
     1 ALC1       23 GROUP        1 X    ALC  0     ROOT ALC X 1
     2 SEC2        1 GROUP        1 X    SEC  0     **** SEC X 2
     3 GLC5        4 GROUP        1 X    GLC  0     **** GLC X 6
     4 ALP1       25 GROUP        1 Y    ALP  0     ROOT ALP Y 8
     5 SEP2        3 GROUP        1 Y    SEP  0     **** SEP Y 9
     6 GLP5        6 GROUP        1 Y    GLP  0     **** GLP Y 13
     7 ALL1       24 GROUP        1 Z    ALL  0     ROOT ALL Z 15
     8 SEL2        2 GROUP        1 Z    SEL  0     **** SEL Z 16
     9 GLL5        5 GROUP        1 Z    GLL  0     **** GLL Z 20
@<TRIPOS>SET

