#    Name: 4ejn_0R4_1_ligand
#    Modification time : Mon Mar 24 18:06:13 2014

@<TRIPOS>MOLECULE
4ejn_0R4_1_ligand
   69    74     1     0     0
SMALL
NO_CHARGES


@<TRIPOS>ATOM
      1 O1         37.4060   46.1000   24.7550 O.2       1 0R4501      0.0000 
      2 C21        37.6080   45.1470   25.5140 C.2       1 0R4501      0.0000 
      3 C22        37.9110   45.3590   26.9720 C.3       1 0R4501      0.0000 
      4 N5         37.5780   43.8520   25.1510 N.am      1 0R4501      0.0000 
      5 C17        37.3860   43.3700   23.8850 C.ar      1 0R4501      0.0000 
      6 C18        36.7520   42.1290   23.7160 C.ar      1 0R4501      0.0000 
      7 C19        36.5440   41.6320   22.4240 C.ar      1 0R4501      0.0000 
      8 C20        36.9660   42.3530   21.3040 C.ar      1 0R4501      0.0000 
      9 C16        37.8090   44.0840   22.7580 C.ar      1 0R4501      0.0000 
     10 C15        37.6110   43.5850   21.4670 C.ar      1 0R4501      0.0000 
     11 C3         38.0690   44.3530   20.2650 C.ar      1 0R4501      0.0000 
     12 C2         39.2830   45.0680   20.2480 C.ar      1 0R4501      0.0000 
     13 C1         39.6940   45.7840   19.1070 C.ar      1 0R4501      0.0000 
     14 N1         37.2830   44.3380   19.1740 N.ar      1 0R4501      0.0000 
     15 C5         37.6280   45.0110   18.0490 C.ar      1 0R4501      0.0000 
     16 C4         38.8780   45.7790   17.9700 C.ar      1 0R4501      0.0000 
     17 N2         38.9270   46.3140   16.7150 N.2       1 0R4501      0.0000 
     18 C6         37.8160   45.9400   16.0130 C.2       1 0R4501      0.0000 
     19 C23        37.4720   46.3210   14.6110 C.ar      1 0R4501      0.0000 
     20 C24        37.7940   47.6850   14.0980 C.ar      1 0R4501      0.0000 
     21 N7         38.4030   48.6180   14.8950 N.pl3     1 0R4501      0.0000 
     22 N6         37.4590   47.9820   12.8310 N.ar      1 0R4501      0.0000 
     23 C25        36.8450   47.0960   12.0140 C.ar      1 0R4501      0.0000 
     24 C26        36.5250   45.8020   12.4540 C.ar      1 0R4501      0.0000 
     25 C27        36.8440   45.4090   13.7480 C.ar      1 0R4501      0.0000 
     26 N3         37.1010   45.1460   16.8410 N.pl3     1 0R4501      0.0000 
     27 C7         35.8780   44.6160   16.6130 C.ar      1 0R4501      0.0000 
     28 C8         34.8280   45.4280   16.1360 C.ar      1 0R4501      0.0000 
     29 C9         33.5310   44.9580   15.9290 C.ar      1 0R4501      0.0000 
     30 C12        35.5150   43.2870   16.9200 C.ar      1 0R4501      0.0000 
     31 C11        34.2250   42.8060   16.7360 C.ar      1 0R4501      0.0000 
     32 C10        33.2210   43.6480   16.2480 C.ar      1 0R4501      0.0000 
     33 C13        31.8080   43.1450   16.0250 C.3       1 0R4501      0.0000 
     34 N4         31.4140   42.2840   17.1250 N.am      1 0R4501      0.0000 
     35 C14        30.4250   41.4270   16.9210 C.2       1 0R4501      0.0000 
     36 O2         29.6700   41.5770   15.9770 O.2       1 0R4501      0.0000 
     37 C28        30.2050   40.2530   17.8160 C.ar      1 0R4501      0.0000 
     38 C33        31.2700   39.5110   18.3300 C.ar      1 0R4501      0.0000 
     39 C29        28.8870   39.8870   18.1060 C.ar      1 0R4501      0.0000 
     40 C30        28.6250   38.7960   18.9300 C.ar      1 0R4501      0.0000 
     41 C31        29.6780   38.0520   19.4450 C.ar      1 0R4501      0.0000 
     42 C32        30.9880   38.4080   19.1500 C.ar      1 0R4501      0.0000 
     43 F1         31.9860   37.6690   19.6790 F         1 0R4501      0.0000 
     44 H          37.7186   43.1124   25.9300 H         1 0R4501      0.0000 
     45 H          36.4457   41.5945   24.5300 H         1 0R4501      0.0000 
     46 H          36.0737   40.7230   22.2985 H         1 0R4501      0.0000 
     47 H          36.8039   41.9810   20.3622 H         1 0R4501      0.0000 
     48 H          38.2768   44.9979   22.8831 H         1 0R4501      0.0000 
     49 H          39.8821   45.0668   21.0875 H         1 0R4501      0.0000 
     50 H          40.5728   46.2966   19.1132 H         1 0R4501      0.0000 
     51 H          39.0008   48.2608   15.6127 H         1 0R4501      0.0000 
     52 H          38.1964   49.5745   14.6893 H         1 0R4501      0.0000 
     53 H          36.5960   47.3569   11.0375 H         1 0R4501      0.0000 
     54 H          36.0552   45.1506   11.8148 H         1 0R4501      0.0000 
     55 H          36.6260   44.4653   14.0750 H         1 0R4501      0.0000 
     56 H          35.0390   46.4328   15.9288 H         1 0R4501      0.0000 
     57 H          32.8158   45.5834   15.5427 H         1 0R4501      0.0000 
     58 H          36.2487   42.6506   17.2982 H         1 0R4501      0.0000 
     59 H          34.0029   41.8258   16.9587 H         1 0R4501      0.0000 
     60 H          31.7795   42.6046   15.0737 H         1 0R4501      0.0000 
     61 H          31.1419   44.0097   15.9450 H         1 0R4501      0.0000 
     62 H          31.9189   42.3814   18.0025 H         1 0R4501      0.0000 
     63 H          32.2310   39.7620   18.1165 H         1 0R4501      0.0000 
     64 H          28.1083   40.4288   17.7068 H         1 0R4501      0.0000 
     65 H          27.6554   38.5436   19.1552 H         1 0R4501      0.0000 
     66 H          29.4888   37.2380   20.0444 H         1 0R4501      0.0000 
     67 H          38.0494   44.4929   27.4523 H         1 0R4501      0.0000 
     68 H          38.7397   45.9030   27.1038 H         1 0R4501      0.0000 
     69 H          37.1683   45.8382   27.4398 H         1 0R4501      0.0000 
@<TRIPOS>BOND
     1    2    1 2    
     2    3    2 1    
     3    4    2 am   
     4   67    3 1    
     5   68    3 1    
     6   69    3 1    
     7    5    4 1    
     8   44    4 1    
     9    6    5 ar   
    10    9    5 ar   
    11    7    6 ar   
    12   45    6 1    
    13    8    7 ar   
    14   46    7 1    
    15   10    8 ar   
    16   47    8 1    
    17   10    9 ar   
    18   48    9 1    
    19   11   10 1    
    20   12   11 ar   
    21   14   11 ar   
    22   13   12 ar   
    23   49   12 1    
    24   16   13 ar   
    25   50   13 1    
    26   15   14 ar   
    27   16   15 ar   
    28   26   15 1    
    29   17   16 1    
    30   18   17 2    
    31   19   18 1    
    32   26   18 1    
    33   20   19 ar   
    34   25   19 ar   
    35   21   20 1    
    36   22   20 ar   
    37   51   21 1    
    38   52   21 1    
    39   23   22 ar   
    40   24   23 ar   
    41   53   23 1    
    42   25   24 ar   
    43   54   24 1    
    44   55   25 1    
    45   27   26 1    
    46   28   27 ar   
    47   30   27 ar   
    48   29   28 ar   
    49   56   28 1    
    50   32   29 ar   
    51   57   29 1    
    52   31   30 ar   
    53   58   30 1    
    54   32   31 ar   
    55   59   31 1    
    56   33   32 1    
    57   34   33 1    
    58   60   33 1    
    59   61   33 1    
    60   35   34 am   
    61   62   34 1    
    62   36   35 2    
    63   37   35 1    
    64   38   37 ar   
    65   39   37 ar   
    66   42   38 ar   
    67   63   38 1    
    68   40   39 ar   
    69   64   39 1    
    70   41   40 ar   
    71   65   40 1    
    72   42   41 ar   
    73   66   41 1    
    74   43   42 1    
@<TRIPOS>SUBSTRUCTURE
     1 0R4501      1 GROUP   
@<TRIPOS>SET

