#    Name: 2fie_A74_1_INTS_M
#    Modification time : Tue Mar 25 12:40:03 2014

@<TRIPOS>MOLECULE
2fie_A74_1_INTS_M
   68     0     6     0     0
SMALL
NO_CHARGES


@<TRIPOS>ATOM
      1 CA         -1.6465   37.1675   36.2060 C.3       2 GLC5        0.0000 
      2 CA         -0.5350   38.6560   35.8050 C.3       6 GLL5        0.0000 
      3 CA         -2.7580   35.6790   36.6070 C.3       4 GLP5        0.0000 
      4 N          -0.2240   35.9480   38.0505 N.am      1 SEC2        0.0000 
      5 N          -0.3080   37.4780   38.1790 N.am      5 SEL2        0.0000 
      6 N          -0.1400   34.4180   37.9220 N.am      3 SEP2        0.0000 
      7 N           0.9285   36.7555   37.8075 N.am      1 SEC2        0.0000 
      8 N           2.1650   36.0330   37.4360 N.am      3 SEP2        0.0000 
      9 CA          2.9565   36.9195   38.5575 C.3       2 GLC5        0.0000 
     10 CA          3.6660   39.0140   38.9070 C.3       6 GLL5        0.0000 
     11 CA          2.2470   34.8250   38.2080 C.3       4 GLP5        0.0000 
     12 CA          4.2350   36.2665   38.5175 C.3       2 GLC5        0.0000 
     13 CA          4.8460   38.3000   38.9870 C.3       6 GLL5        0.0000 
     14 CA          3.6240   34.2330   38.0480 C.3       4 GLP5        0.0000 
     15 CA          2.0805   34.5825   33.7835 C.3       2 GLC5        0.0000 
     16 CA          0.9520   35.9010   33.2150 C.3       6 GLL5        0.0000 
     17 CA          3.2090   33.2640   34.3520 C.3       4 GLP5        0.0000 
     18 CA          2.1840   36.8785   32.1235 C.3       2 GLC5        0.0000 
     19 CA          3.4160   37.8560   31.0320 C.3       4 GLP5        0.0000 
     20 CA         -1.0105   36.0585   33.7110 C.3       2 GLC5        0.0000 
     21 CA         -2.9730   36.2160   34.2070 C.3       4 GLP5        0.0000 
     22 CA          0.2490   34.1900   33.2235 C.3       2 GLC5        0.0000 
     23 CA         -0.4540   32.4790   33.2320 C.3       4 GLP5        0.0000 
     24 CA         -0.2535   35.9605   31.8765 C.3       2 GLC5        0.0000 
     25 CA         -1.4590   36.0200   30.5380 C.3       4 GLP5        0.0000 
     26 CA         -0.4960   42.1310   34.5430 C.3       2 GLC5        0.0000 
     27 CA         -1.6390   41.2170   35.4730 C.3       6 GLL5        0.0000 
     28 CA          0.6470   43.0450   33.6130 C.3       4 GLP5        0.0000 
     29 CA         -1.2565   41.8275   37.1230 C.3       2 GLC5        0.0000 
     30 CA         -0.8740   42.4380   38.7730 C.3       4 GLP5        0.0000 
     31 CA          7.7020   35.9655   37.5195 C.3       2 GLC5        0.0000 
     32 CA          7.2520   36.8280   39.1060 C.3       6 GLL5        0.0000 
     33 CA          8.1520   35.1030   35.9330 C.3       4 GLP5        0.0000 
     34 CA          7.6500   38.5675   38.1275 C.3       2 GLC5        0.0000 
     35 CA          8.0480   40.3070   37.1490 C.3       4 GLP5        0.0000 
     36 CA          8.5195   35.8180   40.2325 C.3       2 GLC5        0.0000 
     37 CA          9.7870   34.8080   41.3590 C.3       4 GLP5        0.0000 
     38 CA          4.2375   45.7530   39.4725 C.3       2 GLC5        0.0000 
     39 CA          4.5790   45.1260   41.3810 C.3       6 GLL5        0.0000 
     40 CA          3.8960   46.3800   37.5640 C.3       4 GLP5        0.0000 
     41 CA          4.7285   46.8250   39.4705 C.3       2 GLC5        0.0000 
     42 CA          5.5610   47.2700   41.3770 C.3       6 GLL5        0.0000 
     43 CA          1.4378   39.0810   34.2557 C.3       2 GLC5        0.0000 
     44 CA         -0.7080   39.5920   33.5070 C.3       6 GLL5        0.0000 
     45 CA          3.2930   39.1670   35.2650 C.3       4 GLP5        0.0000 
     46 CA         -0.0820   41.3522   33.9115 C.3       2 GLC5        0.0000 
     47 CA          1.7375   37.8645   32.2290 C.3       2 GLC5        0.0000 
     48 CA         -0.1270   38.3980   32.9860 C.3       6 GLL5        0.0000 
     49 CA         -0.7000   36.9465   31.9820 C.3       2 GLC5        0.0000 
     50 CA          1.7193   38.2870   34.9153 C.3       2 GLC5        0.0000 
     51 CA          0.2450   37.3480   33.8660 C.3       6 GLL5        0.0000 
     52 CA         -1.4137   36.8115   34.3863 C.3       2 GLC5        0.0000 
     53 CA          0.0460   37.4660   35.2650 C.3       6 GLL5        0.0000 
     54 CA          1.2843   39.1793   35.3120 C.3       2 GLC5        0.0000 
     55 CA         -1.8194   37.7885   34.1434 C.3       2 GLC5        0.0000 
     56 CA         -0.9140   39.7270   34.9130 C.3       6 GLL5        0.0000 
     57 CA          2.0675   38.7043   40.1485 C.3       2 GLC5        0.0000 
     58 CA          3.5260   40.3430   39.3330 C.3       6 GLL5        0.0000 
     59 CA          0.5390   37.7300   41.1770 C.3       4 GLP5        0.0000 
     60 CA          6.8629   39.8765   38.3886 C.3       2 GLC5        0.0000 
     61 CA          5.9250   40.2800   39.9920 C.3       6 GLL5        0.0000 
     62 CA          5.1102   40.9686   37.8498 C.3       2 GLC5        0.0000 
     63 CA          4.7190   41.0200   39.9170 C.3       6 GLL5        0.0000 
     64 CA          6.0630   41.5880   36.1810 C.3       4 GLP5        0.0000 
     65 CA          3.5920   39.3335   37.2025 C.3       2 GLC5        0.0000 
     66 CA          3.1181   43.8121   39.0961 C.3       2 GLC5        0.0000 
     67 CA          3.4670   43.2250   40.3890 C.3       6 GLL5        0.0000 
     68 CA          2.1860   44.4470   37.6680 C.3       4 GLP5        0.0000 
@<TRIPOS>BOND
@<TRIPOS>SUBSTRUCTURE
     1 SEC2        4 GROUP        1 X    SEC  0     ROOT SEC X 2
     2 GLC5        1 GROUP        1 X    GLC  0     **** GLC X 6
     3 SEP2        6 GROUP        1 Y    SEP  0     ROOT SEP Y 9
     4 GLP5        3 GROUP        1 Y    GLP  0     **** GLP Y 13
     5 SEL2        5 GROUP        1 Z    SEL  0     ROOT SEL Z 16
     6 GLL5        2 GROUP        1 Z    GLL  0     **** GLL Z 20
@<TRIPOS>SET

