#    Name: 2fie_A74_1_ligand
#    Modification time : Tue Mar 25 12:40:03 2014

@<TRIPOS>MOLECULE
2fie_A74_1_ligand
   46    49     1     0     0
SMALL
NO_CHARGES


@<TRIPOS>ATOM
      1 C          -0.7080   39.5920   33.5070 C.ar      1 A74701      0.0000 
      2 C1         -0.1270   38.3980   32.9860 C.ar      1 A74701      0.0000 
      3 C2          0.2450   37.3480   33.8660 C.ar      1 A74701      0.0000 
      4 C3          0.0460   37.4660   35.2650 C.ar      1 A74701      0.0000 
      5 C4         -0.5350   38.6560   35.8050 C.ar      1 A74701      0.0000 
      6 C5         -0.9140   39.7270   34.9130 C.ar      1 A74701      0.0000 
      7 S          -0.7500   38.7150   37.5870 S.o2      1 A74701      0.0000 
      8 O1         -0.3080   37.4780   38.1790 O.2       1 A74701      0.0000 
      9 O2         -2.1280   39.1030   37.8160 O.2       1 A74701      0.0000 
     10 N           0.1660   39.8660   38.2300 N.pl3     1 A74701      0.0000 
     11 C6          1.6050   39.7210   38.5770 C.2       1 A74701      0.0000 
     12 N1          2.4290   38.6100   38.4170 N.2       1 A74701      0.0000 
     13 C7          3.6660   39.0140   38.9070 C.ar      1 A74701      0.0000 
     14 C8          4.8460   38.3000   38.9870 C.ar      1 A74701      0.0000 
     15 C9          6.0150   38.9240   39.5420 C.ar      1 A74701      0.0000 
     16 C10         5.9250   40.2800   39.9920 C.ar      1 A74701      0.0000 
     17 C11         4.7190   41.0200   39.9170 C.ar      1 A74701      0.0000 
     18 C12         3.5260   40.3430   39.3330 C.ar      1 A74701      0.0000 
     19 O3          2.2720   40.7830   39.1380 O.3       1 A74701      0.0000 
     20 CL2         0.9520   35.9010   33.2150 Cl        1 A74701      0.0000 
     21 CL1        -1.6390   41.2170   35.4730 Cl        1 A74701      0.0000 
     22 O4          7.2180   38.1610   39.6270 O.3       1 A74701      0.0000 
     23 C13         7.2520   36.8280   39.1060 C.3       1 A74701      0.0000 
     24 C14         3.4120   44.5560   40.8660 C.ar      1 A74701      0.0000 
     25 C15         4.5790   45.1260   41.3810 C.ar      1 A74701      0.0000 
     26 N2          5.7450   44.4170   41.4250 N.ar      1 A74701      0.0000 
     27 C16         5.7940   43.1270   40.9650 C.ar      1 A74701      0.0000 
     28 C17         4.6610   42.4640   40.4210 C.ar      1 A74701      0.0000 
     29 C18         3.4670   43.2250   40.3890 C.ar      1 A74701      0.0000 
     30 O5          4.5010   46.4310   41.8410 O.3       1 A74701      0.0000 
     31 C19         5.5610   47.2700   41.3770 C.3       1 A74701      0.0000 
     32 H          -0.9745   40.3442   32.8797 H         1 A74701      0.0000 
     33 H           0.0195   38.3018   31.9840 H         1 A74701      0.0000 
     34 H           0.3142   36.7087   35.8878 H         1 A74701      0.0000 
     35 H          -0.3170   40.7468   38.3960 H         1 A74701      0.0000 
     36 H           4.9121   37.3366   38.6615 H         1 A74701      0.0000 
     37 H           6.7692   40.7276   40.3827 H         1 A74701      0.0000 
     38 H           2.5444   45.0756   40.8314 H         1 A74701      0.0000 
     39 H           6.6908   42.5913   41.0067 H         1 A74701      0.0000 
     40 H           2.6086   42.7938   40.0048 H         1 A74701      0.0000 
     41 H           8.1505   36.4055   39.2252 H         1 A74701      0.0000 
     42 H           6.5867   36.2349   39.5595 H         1 A74701      0.0000 
     43 H           7.0452   36.8062   38.1279 H         1 A74701      0.0000 
     44 H           6.4567   46.9287   41.6620 H         1 A74701      0.0000 
     45 H           5.5752   47.3328   40.3791 H         1 A74701      0.0000 
     46 H           5.4774   48.2025   41.7282 H         1 A74701      0.0000 
@<TRIPOS>BOND
     1    2    1 ar   
     2    6    1 ar   
     3   32    1 1    
     4    3    2 ar   
     5   33    2 1    
     6    4    3 ar   
     7   20    3 1    
     8    5    4 ar   
     9   34    4 1    
    10    6    5 ar   
    11    7    5 1    
    12   21    6 1    
    13    8    7 2    
    14    9    7 2    
    15   10    7 1    
    16   11   10 1    
    17   35   10 1    
    18   12   11 2    
    19   19   11 1    
    20   13   12 1    
    21   14   13 ar   
    22   18   13 ar   
    23   15   14 ar   
    24   36   14 1    
    25   16   15 ar   
    26   22   15 1    
    27   17   16 ar   
    28   37   16 1    
    29   18   17 ar   
    30   28   17 1    
    31   19   18 1    
    32   23   22 1    
    33   41   23 1    
    34   42   23 1    
    35   43   23 1    
    36   25   24 ar   
    37   29   24 ar   
    38   38   24 1    
    39   26   25 ar   
    40   30   25 1    
    41   27   26 ar   
    42   28   27 ar   
    43   39   27 1    
    44   29   28 ar   
    45   40   29 1    
    46   31   30 1    
    47   44   31 1    
    48   45   31 1    
    49   46   31 1    
@<TRIPOS>SUBSTRUCTURE
     1 A74701      1 GROUP   
@<TRIPOS>SET

