#    Name: 2Q95_1_CAVITY_N1_6.mol2
#    Modification time : Tue Mar 11 07:08:05 2014

@<TRIPOS>MOLECULE
2Q95_1_CAVITY_N1_6.mol2
   89     0     6     0     0
SMALL
NO_CHARGES


@<TRIPOS>ATOM
      1 CA         -9.3706   -3.1541    5.6044 C.3       5 GLY6        0.0000 
      2 CA         -9.8432   -3.6719    6.9305 C.3       5 GLY6        0.0000 
      3 CA         -8.2824   -1.6230    6.5900 C.3       5 GLY6        0.0000 
      4 CZ         -8.7550   -2.1408    7.9161 C.ar      4 PHE5        0.0000 
      5 CA         -7.9796   -3.0249    6.1506 C.3       5 GLY6        0.0000 
      6 CZ         -8.4522   -3.5426    7.4767 C.ar      4 PHE5        0.0000 
      7 CZ         -7.6668   -0.6097    8.9018 C.ar      4 PHE5        0.0000 
      8 CZ         -6.8914   -1.4937    7.1362 C.ar      4 PHE5        0.0000 
      9 CZ         -7.3640   -2.0115    8.4623 C.ar      4 PHE5        0.0000 
     10 CZ         -6.1160   -2.3778    5.3707 C.ar      4 PHE5        0.0000 
     11 CZ         -6.5886   -2.8956    6.6968 C.ar      4 PHE5        0.0000 
     12 CZ         -7.0611   -3.4134    8.0229 C.ar      4 PHE5        0.0000 
     13 CZ         -7.5337   -3.9311    9.3490 C.ar      4 PHE5        0.0000 
     14 DU         -6.2857   -4.2974    6.2573 H         6 CUB7        0.0000 
     15 O          -6.7583   -4.8152    7.5835 O.2       2 ALA2        0.0000 
     16 CZ         -6.5786    0.9215    9.8874 C.ar      4 PHE5        0.0000 
     17 CZ         -7.0512    0.4037   11.2135 C.ar      4 PHE5        0.0000 
     18 CZ         -6.2758   -0.4804    9.4480 C.ar      4 PHE5        0.0000 
     19 CZ         -6.7484   -0.9982   10.7741 C.ar      4 PHE5        0.0000 
     20 CZ         -5.5004   -1.3644    7.6824 C.ar      4 PHE5        0.0000 
     21 N          -5.9729   -1.8822    9.0085 N.2       2 ALA2        0.0000 
     22 O          -6.4455   -2.4000   10.3346 O.2       2 ALA2        0.0000 
     23 OG         -4.2524   -1.7307    4.5908 O.2       1 SER1        0.0000 
     24 CZ         -4.7249   -2.2485    5.9169 C.ar      4 PHE5        0.0000 
     25 N          -5.1975   -2.7663    7.2430 N.2       2 ALA2        0.0000 
     26 DU         -4.4221   -3.6504    5.4774 H         6 CUB7        0.0000 
     27 N          -4.8947   -4.1681    6.8035 N.2       2 ALA2        0.0000 
     28 CZ         -4.7150    1.5685    9.1075 C.ar      4 PHE5        0.0000 
     29 CA         -5.1876    1.0508   10.4336 C.3       5 GLY6        0.0000 
     30 CA         -5.6602    0.5330   11.7597 C.3       5 GLY6        0.0000 
     31 CZ         -3.9396    0.6845    7.3419 C.ar      4 PHE5        0.0000 
     32 CZ         -4.4122    0.1667    8.6680 C.ar      4 PHE5        0.0000 
     33 N          -4.8847   -0.3511    9.9942 N.2       2 ALA2        0.0000 
     34 CA         -5.3573   -0.8689   11.3203 C.3       5 GLY6        0.0000 
     35 N          -3.6368   -0.7174    6.9025 N.2       2 ALA2        0.0000 
     36 N          -4.1093   -1.2352    8.2286 N.2       2 ALA2        0.0000 
     37 N          -4.5819   -1.7530    9.5547 N.2       2 ALA2        0.0000 
     38 N          -3.3339   -2.1192    6.4631 N.2       2 ALA2        0.0000 
     39 N          -3.8065   -2.6370    7.7892 N.2       2 ALA2        0.0000 
     40 N          -2.5585   -3.0033    4.6975 N.2       2 ALA2        0.0000 
     41 DU         -3.0311   -3.5211    6.0236 H         6 CUB7        0.0000 
     42 N          -3.5037   -4.0389    7.3497 N.2       2 ALA2        0.0000 
     43 DU         -1.7831   -3.8874    2.9320 H         6 CUB7        0.0000 
     44 DU         -2.2557   -4.4052    4.2581 H         6 CUB7        0.0000 
     45 CZ         -2.7283   -4.9229    5.5842 C.ar      4 PHE5        0.0000 
     46 DU         -1.9528   -5.8070    3.8186 H         6 CUB7        0.0000 
     47 CZ         -2.4254   -6.3248    5.1447 C.ar      4 PHE5        0.0000 
     48 CZ         -3.3240    1.6978    9.6537 C.ar      4 PHE5        0.0000 
     49 CA         -3.7966    1.1800   10.9798 C.3       5 GLY6        0.0000 
     50 CZ         -2.5486    0.8137    7.8881 C.ar      4 PHE5        0.0000 
     51 CZ         -3.0211    0.2960    9.2142 C.ar      4 PHE5        0.0000 
     52 CA         -3.4937   -0.2218   10.5404 C.3       5 GLY6        0.0000 
     53 N          -2.2457   -0.5881    7.4487 N.2       2 ALA2        0.0000 
     54 N          -2.7183   -1.1059    8.7748 N.2       2 ALA2        0.0000 
     55 N          -1.9429   -1.9900    7.0093 N.2       2 ALA2        0.0000 
     56 N          -2.4155   -2.5077    8.3354 N.2       2 ALA2        0.0000 
     57 N          -1.1675   -2.8740    5.2437 N.2       2 ALA2        0.0000 
     58 N          -1.6401   -3.3918    6.5698 N.2       2 ALA2        0.0000 
     59 N          -2.1126   -3.9096    7.8959 N.2       2 ALA2        0.0000 
     60 CA         -0.3921   -3.7581    3.4782 C.3       5 GLY6        0.0000 
     61 N          -0.8646   -4.2759    4.8043 N.2       2 ALA2        0.0000 
     62 CZ         -1.3372   -4.7937    6.1304 C.ar      4 PHE5        0.0000 
     63 CZ         -1.0344   -6.1955    5.6909 C.ar      4 PHE5        0.0000 
     64 CZ         -1.9329    1.8271   10.1999 C.ar      4 PHE5        0.0000 
     65 CA         -2.4055    1.3093   11.5260 C.3       5 GLY6        0.0000 
     66 CZ         -1.1575    0.9430    8.4343 C.ar      4 PHE5        0.0000 
     67 CZ         -1.6301    0.4252    9.7604 C.ar      4 PHE5        0.0000 
     68 NZ         -2.1027   -0.0925   11.0865 N.2       3 LYS4        0.0000 
     69 N          -0.8547   -0.4588    7.9949 N.2       2 ALA2        0.0000 
     70 DU         -1.3273   -0.9766    9.3210 H         6 CUB7        0.0000 
     71 N          -1.7999   -1.4944   10.6471 N.2       2 ALA2        0.0000 
     72 N          -0.5519   -1.8607    7.5555 N.2       2 ALA2        0.0000 
     73 N          -1.0244   -2.3785    8.8816 N.2       2 ALA2        0.0000 
     74 N          -1.4970   -2.8962   10.2077 N.2       2 ALA2        0.0000 
     75 N           0.2236   -2.7447    5.7899 N.2       2 ALA2        0.0000 
     76 N          -0.2490   -3.2625    7.1160 N.2       2 ALA2        0.0000 
     77 CZ         -0.7216   -3.7803    8.4421 C.ar      4 PHE5        0.0000 
     78 N          -1.1942   -4.2981    9.7682 N.2       2 ALA2        0.0000 
     79 N           0.5264   -4.1466    5.3505 N.2       2 ALA2        0.0000 
     80 N           0.0538   -4.6644    6.6766 N.2       2 ALA2        0.0000 
     81 NZ          0.0638   -0.8473    9.8672 N.2       3 LYS4        0.0000 
     82 NZ          0.8392   -1.7314    8.1016 N.2       3 LYS4        0.0000 
     83 NZ          0.3666   -2.2492    9.4278 N.2       3 LYS4        0.0000 
     84 NZ         -0.1060   -2.7670   10.7539 N.2       3 LYS4        0.0000 
     85 N           1.6146   -2.6155    6.3361 N.2       2 ALA2        0.0000 
     86 NZ          1.1420   -3.1332    7.6622 N.2       3 LYS4        0.0000 
     87 NZ          0.6694   -3.6510    8.9883 N.2       3 LYS4        0.0000 
     88 N           1.4448   -4.5351    7.2228 N.2       2 ALA2        0.0000 
     89 CA          0.9722   -5.0529    8.5489 C.3       5 GLY6        0.0000 
@<TRIPOS>BOND
@<TRIPOS>SUBSTRUCTURE
     1 SER1       23 GROUP   
     2 ALA2       15 GROUP   
     3 LYS4       68 GROUP   
     4 PHE5        4 GROUP   
     5 GLY6        1 GROUP   
     6 CUB7       14 GROUP   
@<TRIPOS>SET

