#    Name: 2q95_A05_1_INTS_M
#    Modification time : Mon Mar 24 21:38:20 2014

@<TRIPOS>MOLECULE
2q95_A05_1_INTS_M
   30     0     9     0     0
SMALL
NO_CHARGES


@<TRIPOS>ATOM
      1 Zn          1.5080    0.9115   10.0930 Zn        2 ZIC7        0.0000 
      2 Zn          1.1550    0.2660    9.3500 Zn        8 ZIL7        0.0000 
      3 Zn          1.8610    1.5570   10.8360 Zn        5 ZIP7        0.0000 
      4 Zn          1.9020    0.3765    8.4505 Zn        2 ZIC7        0.0000 
      5 Zn          2.6490    0.4870    7.5510 Zn        5 ZIP7        0.0000 
      6 Zn          1.5335    0.1060    7.4455 Zn        2 ZIC7        0.0000 
      7 Zn          0.4180   -0.2750    7.3400 Zn        8 ZIL7        0.0000 
      8 N          -0.4770   -0.0095    6.2585 N.am      1 SEC2        0.0000 
      9 N           0.4180   -0.2750    7.3400 N.am      7 SEL2        0.0000 
     10 N          -1.3720    0.2560    5.1770 N.am      4 SEP2        0.0000 
     11 N          -1.7895   -0.2245    6.7530 N.am      1 SEC2        0.0000 
     12 N          -2.2070   -0.7050    8.3290 N.am      7 SEL2        0.0000 
     13 CA         -7.8645   -1.3000    5.7635 C.3       3 GLC5        0.0000 
     14 CA         -6.7730   -2.3570    7.0460 C.3       9 GLL5        0.0000 
     15 CA         -8.9560   -0.2430    4.4810 C.3       6 GLP5        0.0000 
     16 CA         -6.4525    0.9025    8.5185 C.3       3 GLC5        0.0000 
     17 CA         -6.0210    0.0690   10.2960 C.3       9 GLL5        0.0000 
     18 CA         -6.8840    1.7360    6.7410 C.3       6 GLP5        0.0000 
     19 CA         -7.4655    0.7400   11.5350 C.3       3 GLC5        0.0000 
     20 CA         -8.9100    1.4110   12.7740 C.3       6 GLP5        0.0000 
     21 CA         -5.0865    0.1415   12.1925 C.3       3 GLC5        0.0000 
     22 CA         -4.1520    0.2140   14.0890 C.3       6 GLP5        0.0000 
     23 CA         -7.7430   -1.2365   10.3780 C.3       3 GLC5        0.0000 
     24 CA         -9.4650   -2.5420   10.4600 C.3       6 GLP5        0.0000 
     25 CA         -3.2462   -0.0213   12.3153 C.3       3 GLC5        0.0000 
     26 CA         -3.0620   -0.5110   10.5420 C.3       9 GLL5        0.0000 
     27 CA         -3.5520   -2.2160   10.8232 C.3       3 GLC5        0.0000 
     28 CA         -3.8980   -3.7750   11.8410 C.3       6 GLP5        0.0000 
     29 CA         -4.5280   -2.4420   10.2677 C.3       3 GLC5        0.0000 
     30 CA         -4.5210   -1.2330    8.4460 C.3       9 GLL5        0.0000 
@<TRIPOS>BOND
@<TRIPOS>SUBSTRUCTURE
     1 SEC2        8 GROUP        1 X    SEC  0     ROOT SEC X 2
     2 ZIC7        1 GROUP        1 X    ZIC  0     **** ZIC X 5
     3 GLC5       13 GROUP        1 X    GLC  0     **** GLC X 6
     4 SEP2       10 GROUP        1 Y    SEP  0     ROOT SEP Y 9
     5 ZIP7        3 GROUP        1 Y    ZIP  0     **** ZIP Y 12
     6 GLP5       15 GROUP        1 Y    GLP  0     **** GLP Y 13
     7 SEL2        9 GROUP        1 Z    SEL  0     ROOT SEL Z 16
     8 ZIL7        2 GROUP        1 Z    ZIL  0     **** ZIL Z 19
     9 GLL5       14 GROUP        1 Z    GLL  0     **** GLL Z 20
@<TRIPOS>SET

