#    Name: 2q95_A05_1_ligand
#    Modification time : Mon Mar 24 21:38:21 2014

@<TRIPOS>MOLECULE
2q95_A05_1_ligand
   23    24     1     0     0
SMALL
NO_CHARGES


@<TRIPOS>ATOM
      1 OAN         1.1550    0.2660    9.3500 O.co2     1 A05400      0.0000 
      2 CAB         0.2470   -0.0820    8.5610 C.2       1 A05400      0.0000 
      3 OAO         0.4180   -0.2750    7.3400 O.co2     1 A05400      0.0000 
      4 CAA        -1.1670   -0.2800    9.1060 C.2       1 A05400      0.0000 
      5 OAM        -2.2070   -0.7050    8.3290 O.3       1 A05400      0.0000 
      6 CAD        -1.6190   -0.0020   10.5410 C.2       1 A05400      0.0000 
      7 CAE        -3.0620   -0.5110   10.5420 C.2       1 A05400      0.0000 
      8 CAC        -3.3500   -0.8030    9.0690 C.2       1 A05400      0.0000 
      9 CAG        -4.5210   -1.2330    8.4460 C.ar      1 A05400      0.0000 
     10 CAK        -4.3760   -1.9640    7.2750 C.ar      1 A05400      0.0000 
     11 CAH        -5.3660   -2.5070    6.4620 C.ar      1 A05400      0.0000 
     12 CAF        -6.7730   -2.3570    7.0460 C.ar      1 A05400      0.0000 
     13 NAL        -7.7940   -2.8960    6.3880 N.pl3     1 A05400      0.0000 
     14 OAQ        -7.5650   -3.5850    5.1670 O.2       1 A05400      0.0000 
     15 OAP        -9.1120   -2.7740    6.9040 O.2       1 A05400      0.0000 
     16 CAI        -7.0600   -1.6090    8.3500 C.ar      1 A05400      0.0000 
     17 CAJ        -5.7950   -0.9850    8.9430 C.ar      1 A05400      0.0000 
     18 CLAR       -6.0210    0.0690   10.2960 Cl        1 A05400      0.0000 
     19 H          -1.1765    0.3495   11.1816 H         1 A05400      0.0000 
     20 H          -3.5903   -0.6101   11.2177 H         1 A05400      0.0000 
     21 H          -3.3505   -2.1363    6.9477 H         1 A05400      0.0000 
     22 H          -5.2528   -2.9420    5.6168 H         1 A05400      0.0000 
     23 H          -7.8955   -1.5424    8.7325 H         1 A05400      0.0000 
@<TRIPOS>BOND
     1    2    1 ar   
     2    3    2 ar   
     3    4    2 1    
     4    5    4 1    
     5    6    4 2    
     6    8    5 1    
     7    7    6 1    
     8   19    6 1    
     9    8    7 2    
    10   20    7 1    
    11    9    8 1    
    12   10    9 ar   
    13   17    9 ar   
    14   11   10 ar   
    15   21   10 1    
    16   12   11 ar   
    17   22   11 1    
    18   13   12 1    
    19   16   12 ar   
    20   14   13 2    
    21   15   13 2    
    22   17   16 ar   
    23   23   16 1    
    24   18   17 1    
@<TRIPOS>SUBSTRUCTURE
     1 A05400      1 GROUP   
@<TRIPOS>SET

