#    Name: 3ns9_NS9_1_INTS_M
#    Modification time : Tue Mar 25 02:04:32 2014

@<TRIPOS>MOLECULE
3ns9_NS9_1_INTS_M
   68     0     9     0     0
SMALL
NO_CHARGES


@<TRIPOS>ATOM
      1 N           2.6770   -3.7560  -30.0190 N.am      2 SEC2        0.0000 
      2 N           1.6430   -4.8010  -29.2550 N.am      8 SEL2        0.0000 
      3 N           3.7110   -2.7110  -30.7830 N.am      5 SEP2        0.0000 
      4 CA          2.3330   -5.6080  -27.2220 C.3       3 GLC5        0.0000 
      5 CA          2.4420   -6.9660  -28.5960 C.3       9 GLL5        0.0000 
      6 CA          2.2240   -4.2500  -25.8480 C.3       6 GLP5        0.0000 
      7 CA          2.8205   -7.1155  -26.3870 C.3       3 GLC5        0.0000 
      8 CA          2.0800   -8.0990  -27.8330 C.3       9 GLL5        0.0000 
      9 CA          3.5610   -6.1320  -24.9410 C.3       6 GLP5        0.0000 
     10 CA         -1.3645   -7.2475  -29.0530 C.3       3 GLC5        0.0000 
     11 CA          0.2530   -6.0650  -28.0560 C.3       9 GLL5        0.0000 
     12 CA         -2.9820   -8.4300  -30.0500 C.3       6 GLP5        0.0000 
     13 O           4.3360   -5.9360  -29.9565 O.2       1 ALC1        0.0000 
     14 O           3.6520   -6.8040  -29.1880 O.2       7 ALL1        0.0000 
     15 O           5.0200   -5.0680  -30.7250 O.2       4 ALP1        0.0000 
     16 CA          6.1660   -6.8610  -31.4935 C.3       3 GLC5        0.0000 
     17 CA          4.7350   -8.4860  -31.3650 C.3       9 GLL5        0.0000 
     18 CA          7.5970   -5.2360  -31.6220 C.3       6 GLP5        0.0000 
     19 O           1.5785  -10.0225  -25.6700 O.2       1 ALC1        0.0000 
     20 O           0.4920   -9.3120  -26.5190 O.2       7 ALL1        0.0000 
     21 O           2.6650  -10.7330  -24.8210 O.2       4 ALP1        0.0000 
     22 CA         -0.2710   -7.2845  -22.2855 C.3       3 GLC5        0.0000 
     23 CA         -0.7310   -7.7240  -24.1800 C.3       9 GLL5        0.0000 
     24 CA          0.1890   -6.8450  -20.3910 C.3       6 GLP5        0.0000 
     25 CA         -0.5680   -5.7725  -23.6130 C.3       3 GLC5        0.0000 
     26 CA         -0.4050   -3.8210  -23.0460 C.3       6 GLP5        0.0000 
     27 CA         -0.9950  -12.6265  -27.5965 C.3       3 GLC5        0.0000 
     28 CA         -1.1950  -11.0980  -26.1930 C.3       9 GLL5        0.0000 
     29 CA         -0.7950  -14.1550  -29.0000 C.3       6 GLP5        0.0000 
     30 CA         -2.9295  -11.6930  -25.2630 C.3       3 GLC5        0.0000 
     31 CA         -4.6640  -12.2880  -24.3330 C.3       6 GLP5        0.0000 
     32 O           1.3280  -11.3100  -25.3710 O.2       1 ALC1        0.0000 
     33 O          -0.0090  -11.8870  -25.9210 O.2       7 ALL1        0.0000 
     34 CA         -2.5610   -2.8960  -28.6775 C.3       3 GLC5        0.0000 
     35 CA         -1.7460   -4.4110  -27.9630 C.3       9 GLL5        0.0000 
     36 CA         -3.3760   -1.3810  -29.3920 C.3       6 GLP5        0.0000 
     37 CA         -1.0205   -2.1925  -26.5990 C.3       3 GLC5        0.0000 
     38 CA         -1.7530   -4.0710  -26.4490 C.3       9 GLL5        0.0000 
     39 CA         -0.2880   -0.3140  -26.7490 C.3       6 GLP5        0.0000 
     40 CA         -2.9955   -2.7950  -27.3100 C.3       3 GLC5        0.0000 
     41 CA         -4.2380   -1.5190  -28.1710 C.3       6 GLP5        0.0000 
     42 CA          0.2355   -4.1605  -26.1485 C.3       3 GLC5        0.0000 
     43 CA         -1.0790   -3.9460  -24.7475 C.3       3 GLC5        0.0000 
     44 CA         -2.9245   -6.9585  -29.1245 C.3       3 GLC5        0.0000 
     45 CA         -2.8670   -5.4870  -28.1990 C.3       9 GLL5        0.0000 
     46 CA         -4.3065   -6.4325  -26.9860 C.3       3 GLC5        0.0000 
     47 CA         -5.7460   -7.3780  -25.7730 C.3       6 GLP5        0.0000 
     48 CA         -3.9830   -4.0370  -28.1310 C.3       3 GLC5        0.0000 
     49 CA         -5.0990   -2.5870  -28.0630 C.3       6 GLP5        0.0000 
     50 CA          1.6170   -8.8613  -29.1388 C.3       3 GLC5        0.0000 
     51 CA          0.9730  -10.1900  -30.0630 C.3       6 GLP5        0.0000 
     52 CA         -0.8068   -5.0875  -29.9635 C.3       3 GLC5        0.0000 
     53 CA         -1.5580   -4.7170  -31.7090 C.3       6 GLP5        0.0000 
     54 CA          1.0843   -4.8540  -27.0330 C.3       3 GLC5        0.0000 
     55 CA         -0.3640   -4.8510  -28.3800 C.3       9 GLL5        0.0000 
     56 CA          6.6435   -7.7118  -28.9645 C.3       3 GLC5        0.0000 
     57 CA          4.7830   -7.7640  -28.9660 C.3       9 GLL5        0.0000 
     58 CA          8.5340   -7.1140  -28.4390 C.3       6 GLP5        0.0000 
     59 CA          2.7098   -9.6887  -32.1943 C.3       3 GLC5        0.0000 
     60 CA          0.7580   -9.4870  -32.4520 C.3       6 GLP5        0.0000 
     61 CA          2.8155  -10.2609  -30.1575 C.3       3 GLC5        0.0000 
     62 CA          4.6220  -11.1410  -30.6740 C.3       9 GLL5        0.0000 
     63 CA          5.6303  -12.1357  -29.0880 C.3       3 GLC5        0.0000 
     64 CA          4.6650  -10.1900  -29.6460 C.3       9 GLL5        0.0000 
     65 CA          6.6170  -13.6060  -28.0160 C.3       6 GLP5        0.0000 
     66 CA         -2.6147  -10.0240  -27.1433 C.3       3 GLC5        0.0000 
     67 CA         -4.1810   -9.7130  -28.1850 C.3       6 GLP5        0.0000 
     68 CA         -1.9323   -4.8330  -29.8950 C.3       3 GLC5        0.0000 
@<TRIPOS>BOND
@<TRIPOS>SUBSTRUCTURE
     1 ALC1       13 GROUP        1 X    ALC  0     ROOT ALC X 1
     2 SEC2        1 GROUP        1 X    SEC  0     **** SEC X 2
     3 GLC5        4 GROUP        1 X    GLC  0     **** GLC X 6
     4 ALP1       15 GROUP        1 Y    ALP  0     ROOT ALP Y 8
     5 SEP2        3 GROUP        1 Y    SEP  0     **** SEP Y 9
     6 GLP5        6 GROUP        1 Y    GLP  0     **** GLP Y 13
     7 ALL1       14 GROUP        1 Z    ALL  0     ROOT ALL Z 15
     8 SEL2        2 GROUP        1 Z    SEL  0     **** SEL Z 16
     9 GLL5        5 GROUP        1 Z    GLL  0     **** GLL Z 20
@<TRIPOS>SET

