#    Name: 3ns9_NS9_1_ligand
#    Modification time : Tue Mar 25 02:04:32 2014

@<TRIPOS>MOLECULE
3ns9_NS9_1_ligand
   55    57     1     0     0
SMALL
NO_CHARGES


@<TRIPOS>ATOM
      1 N1          1.6430   -4.8010  -29.2550 N.2       1 NS90        0.0000 
      2 N2          1.5250   -5.9400  -28.7130 N.pl3     1 NS90        0.0000 
      3 C3          2.4420   -6.9660  -28.5960 C.2       1 NS90        0.0000 
      4 C4          2.0800   -8.0990  -27.8330 C.2       1 NS90        0.0000 
      5 C5          0.7660   -8.2020  -27.2370 C.2       1 NS90        0.0000 
      6 N6         -0.1350   -7.1610  -27.3200 N.2       1 NS90        0.0000 
      7 C7          0.2530   -6.0650  -28.0560 C.2       1 NS90        0.0000 
      8 C8         -0.3640   -4.8510  -28.3800 C.2       1 NS90        0.0000 
      9 C9          0.5030   -4.1160  -29.1010 C.2       1 NS90        0.0000 
     10 N10         3.6520   -6.8040  -29.1880 N.pl3     1 NS90        0.0000 
     11 C11         4.7830   -7.7640  -28.9660 C.3       1 NS90        0.0000 
     12 C12         4.7230   -8.8550  -30.0140 C.ar      1 NS90        0.0000 
     13 C13         4.7350   -8.4860  -31.3650 C.ar      1 NS90        0.0000 
     14 C14         4.6810   -9.4500  -32.3650 C.ar      1 NS90        0.0000 
     15 C15         4.6150  -10.8130  -32.0080 C.ar      1 NS90        0.0000 
     16 C16         4.6220  -11.1410  -30.6740 C.ar      1 NS90        0.0000 
     17 C17         4.6650  -10.1900  -29.6460 C.ar      1 NS90        0.0000 
     18 N18         0.4920   -9.3120  -26.5190 N.pl3     1 NS90        0.0000 
     19 C19        -0.9020   -9.5720  -26.0100 C.3       1 NS90        0.0000 
     20 C20        -1.0830   -9.2120  -24.5500 C.3       1 NS90        0.0000 
     21 C21        -0.7310   -7.7240  -24.1800 C.3       1 NS90        0.0000 
     22 O22        -1.5920   -6.9460  -24.9620 O.3       1 NS90        0.0000 
     23 C23        -1.1950  -11.0980  -26.1930 C.3       1 NS90        0.0000 
     24 O24        -0.0090  -11.8870  -25.9210 O.3       1 NS90        0.0000 
     25 O25        -2.4850   -9.5190  -24.2100 O.3       1 NS90        0.0000 
     26 C26        -1.7460   -4.4110  -27.9630 C.3       1 NS90        0.0000 
     27 C27        -1.7530   -4.0710  -26.4490 C.3       1 NS90        0.0000 
     28 C28        -2.8670   -5.4870  -28.1990 C.3       1 NS90        0.0000 
     29 H           2.7438   -8.8621  -27.6922 H         1 NS90        0.0000 
     30 H           0.3250   -3.2256  -29.4536 H         1 NS90        0.0000 
     31 H           3.8610   -6.0152  -29.8210 H         1 NS90        0.0000 
     32 H           4.7008   -8.2096  -27.9784 H         1 NS90        0.0000 
     33 H           5.7322   -7.2413  -29.0455 H         1 NS90        0.0000 
     34 H           4.7846   -7.4864  -31.6161 H         1 NS90        0.0000 
     35 H           4.6885   -9.1838  -33.3500 H         1 NS90        0.0000 
     36 H           4.5639  -11.5235  -32.7339 H         1 NS90        0.0000 
     37 H           4.5938  -12.1572  -30.3981 H         1 NS90        0.0000 
     38 H           4.6539  -10.4733  -28.6774 H         1 NS90        0.0000 
     39 H           1.1881  -10.0227  -26.2826 H         1 NS90        0.0000 
     40 H          -1.6162   -9.0424  -26.6110 H         1 NS90        0.0000 
     41 H          -0.4360   -9.8622  -23.9543 H         1 NS90        0.0000 
     42 H           0.3103   -7.5870  -24.4165 H         1 NS90        0.0000 
     43 H          -0.8986   -7.6230  -23.1213 H         1 NS90        0.0000 
     44 H          -1.5473  -11.2377  -27.2196 H         1 NS90        0.0000 
     45 H          -2.0148  -11.3524  -25.5142 H         1 NS90        0.0000 
     46 H          -2.0334   -3.5149  -28.4911 H         1 NS90        0.0000 
     47 H          -1.4981   -4.8600  -25.8900 H         1 NS90        0.0000 
     48 H          -1.1102   -3.3369  -26.2303 H         1 NS90        0.0000 
     49 H          -2.6557   -3.7720  -26.1397 H         1 NS90        0.0000 
     50 H          -2.9458   -5.7356  -29.1644 H         1 NS90        0.0000 
     51 H          -2.6849   -6.3302  -27.6931 H         1 NS90        0.0000 
     52 H          -3.7650   -5.1580  -27.9068 H         1 NS90        0.0000 
     53 H          -1.2140   -6.9917  -25.8867 H         1 NS90        0.0000 
     54 H           0.6422  -11.2444  -25.5173 H         1 NS90        0.0000 
     55 H          -2.9915   -8.6832  -24.4219 H         1 NS90        0.0000 
@<TRIPOS>BOND
     1    2    1 1    
     2    9    1 2    
     3    3    2 1    
     4    7    2 1    
     5    4    3 2    
     6   10    3 1    
     7    5    4 1    
     8   29    4 1    
     9    6    5 2    
    10   18    5 1    
    11    7    6 1    
    12    8    7 2    
    13    9    8 1    
    14   26    8 1    
    15   30    9 1    
    16   11   10 1    
    17   31   10 1    
    18   12   11 1    
    19   32   11 1    
    20   33   11 1    
    21   13   12 ar   
    22   17   12 ar   
    23   14   13 ar   
    24   34   13 1    
    25   15   14 ar   
    26   35   14 1    
    27   16   15 ar   
    28   36   15 1    
    29   17   16 ar   
    30   37   16 1    
    31   38   17 1    
    32   19   18 1    
    33   39   18 1    
    34   20   19 1    
    35   23   19 1    
    36   40   19 1    
    37   21   20 1    
    38   25   20 1    
    39   41   20 1    
    40   22   21 1    
    41   42   21 1    
    42   43   21 1    
    43   53   22 1    
    44   24   23 1    
    45   44   23 1    
    46   45   23 1    
    47   54   24 1    
    48   55   25 1    
    49   27   26 1    
    50   28   26 1    
    51   46   26 1    
    52   47   27 1    
    53   48   27 1    
    54   49   27 1    
    55   50   28 1    
    56   51   28 1    
    57   52   28 1    
@<TRIPOS>SUBSTRUCTURE
     1 NS90        1 GROUP   
@<TRIPOS>SET

