#    Name: 1KRM_1_CAVITY_N1_ALL.mol2
#    Modification time : Mon Mar 10 12:52:26 2014

@<TRIPOS>MOLECULE
1KRM_1_CAVITY_N1_ALL.mol2
   66     0     6     0     0
SMALL
NO_CHARGES


@<TRIPOS>ATOM
      1 O          49.2136   64.2064   15.5649 O.2       1 ALA2        0.0000 
      2 DU         48.4517   63.9117   16.8229 H         6 CUB7        0.0000 
      3 O          48.9359   62.8174   15.0713 O.2       1 ALA2        0.0000 
      4 DU         48.1740   62.5227   16.3293 H         6 CUB7        0.0000 
      5 NZ         47.4121   62.2280   17.5873 N.2       3 LYS4        0.0000 
      6 CA         47.1344   60.8390   17.0937 C.3       5 GLY6        0.0000 
      7 NZ         48.3805   60.0395   14.0841 N.2       3 LYS4        0.0000 
      8 DU         49.7136   63.4280   17.4739 H         6 CUB7        0.0000 
      9 NZ         48.9516   63.1333   18.7319 N.2       3 LYS4        0.0000 
     10 O          50.1978   62.3338   15.7223 O.2       1 ALA2        0.0000 
     11 DU         49.4359   62.0391   16.9803 H         6 CUB7        0.0000 
     12 N          48.6739   61.7443   18.2383 N.2       1 ALA2        0.0000 
     13 O          50.6821   61.2395   13.9707 O.2       1 ALA2        0.0000 
     14 NZ         49.9201   60.9448   15.2287 N.2       3 LYS4        0.0000 
     15 N          49.1582   60.6501   16.4867 N.2       1 ALA2        0.0000 
     16 CA         48.8805   59.2611   15.9931 C.3       5 GLY6        0.0000 
     17 CA         54.4834   60.1046   19.5842 C.3       5 GLY6        0.0000 
     18 CZ         53.7214   59.8098   20.8422 C.ar      4 PHE5        0.0000 
     19 CA         53.4437   58.4209   20.3486 C.3       5 GLY6        0.0000 
     20 CA         56.0230   61.0099   20.7288 C.3       5 GLY6        0.0000 
     21 CA         56.5072   59.9157   18.9772 C.3       5 GLY6        0.0000 
     22 CA         55.7453   59.6209   20.2352 C.3       5 GLY6        0.0000 
     23 NZ         54.9833   59.3262   21.4932 N.2       3 LYS4        0.0000 
     24 O          56.2295   58.5267   18.4836 O.2       1 ALA2        0.0000 
     25 CA         55.4676   58.2320   19.7416 C.3       5 GLY6        0.0000 
     26 CZ         54.7056   57.9372   20.9996 C.ar      4 PHE5        0.0000 
     27 CA         55.1899   56.8430   19.2480 C.3       5 GLY6        0.0000 
     28 O          55.6741   55.7487   17.4964 O.2       1 ALA2        0.0000 
     29 CA         54.9122   55.4540   18.7544 C.3       5 GLY6        0.0000 
     30 CZ         54.6345   54.0650   18.2608 C.ar      4 PHE5        0.0000 
     31 CA         58.0468   60.8210   20.1217 C.3       5 GLY6        0.0000 
     32 NZ         57.2848   60.5263   21.3797 N.2       3 LYS4        0.0000 
     33 CA         57.7691   59.4320   19.6281 C.3       5 GLY6        0.0000 
     34 O          57.0071   59.1373   20.8861 O.2       1 ALA2        0.0000 
     35 NZ         56.2452   58.8426   22.1442 N.2       3 LYS4        0.0000 
     36 CA         57.4914   58.0431   19.1345 C.3       5 GLY6        0.0000 
     37 O          56.7294   57.7483   20.3925 O.2       1 ALA2        0.0000 
     38 O          55.9675   57.4536   21.6506 O.2       1 ALA2        0.0000 
     39 CA         57.2137   56.6541   18.6409 C.3       5 GLY6        0.0000 
     40 O          56.4517   56.3594   19.8989 O.2       1 ALA2        0.0000 
     41 CZ         55.6898   56.0646   21.1570 C.ar      4 PHE5        0.0000 
     42 N          56.9360   55.2651   18.1473 N.2       1 ALA2        0.0000 
     43 OD1        56.1740   54.9704   19.4053 O.3       2 ASP3        0.0000 
     44 CZ         55.4121   54.6757   20.6634 C.ar      4 PHE5        0.0000 
     45 OD1        55.8963   53.5814   18.9117 O.3       2 ASP3        0.0000 
     46 CZ         55.1344   53.2867   20.1698 C.ar      4 PHE5        0.0000 
     47 O          58.5467   60.0427   22.0307 O.2       1 ALA2        0.0000 
     48 O          59.0309   58.9484   20.2791 O.2       1 ALA2        0.0000 
     49 CA         51.2531   64.3334   18.6184 C.3       5 GLY6        0.0000 
     50 DU         50.9754   62.9444   18.1248 H         6 CUB7        0.0000 
     51 CZ         50.2135   62.6497   19.3829 C.ar      4 PHE5        0.0000 
     52 O          51.4597   61.8502   16.3732 O.2       1 ALA2        0.0000 
     53 N          50.6977   61.5554   17.6312 N.2       1 ALA2        0.0000 
     54 O          51.9439   60.7559   14.6216 O.2       1 ALA2        0.0000 
     55 O          51.1820   60.4612   15.8796 O.2       1 ALA2        0.0000 
     56 N          50.4201   60.1665   17.1376 N.2       1 ALA2        0.0000 
     57 NZ         50.9043   59.0722   15.3860 N.2       3 LYS4        0.0000 
     58 CA         52.2373   62.4608   18.7758 C.3       5 GLY6        0.0000 
     59 CZ         51.4754   62.1661   20.0338 C.ar      4 PHE5        0.0000 
     60 CA         52.7216   61.3665   17.0242 C.3       5 GLY6        0.0000 
     61 CA         51.9596   61.0718   18.2822 C.3       5 GLY6        0.0000 
     62 N          51.1977   60.7771   19.5402 N.2       1 ALA2        0.0000 
     63 CA         52.4439   59.9776   16.5306 C.3       5 GLY6        0.0000 
     64 CA         52.7373   61.6824   20.6848 C.3       5 GLY6        0.0000 
     65 CA         53.2215   60.5882   18.9332 C.3       5 GLY6        0.0000 
     66 CA         52.4596   60.2935   20.1912 C.3       5 GLY6        0.0000 
@<TRIPOS>BOND
@<TRIPOS>SUBSTRUCTURE
     1 ALA2        1 GROUP   
     2 ASP3       43 GROUP   
     3 LYS4        5 GROUP   
     4 PHE5       18 GROUP   
     5 GLY6        6 GROUP   
     6 CUB7        2 GROUP   
@<TRIPOS>SET

