#    Name: 1KRM_1_CAVITY_N1_6.mol2
#    Modification time : Mon Mar 10 12:52:26 2014

@<TRIPOS>MOLECULE
1KRM_1_CAVITY_N1_6.mol2
   49     0     6     0     0
SMALL
NO_CHARGES


@<TRIPOS>ATOM
      1 CA         54.4834   60.1046   19.5842 C.3       5 GLY6        0.0000 
      2 CZ         53.7214   59.8098   20.8422 C.ar      4 PHE5        0.0000 
      3 CA         53.4437   58.4209   20.3486 C.3       5 GLY6        0.0000 
      4 CA         56.0230   61.0099   20.7288 C.3       5 GLY6        0.0000 
      5 CA         56.5072   59.9157   18.9772 C.3       5 GLY6        0.0000 
      6 CA         55.7453   59.6209   20.2352 C.3       5 GLY6        0.0000 
      7 NZ         54.9833   59.3262   21.4932 N.2       3 LYS4        0.0000 
      8 O          56.2295   58.5267   18.4836 O.2       1 ALA2        0.0000 
      9 CA         55.4676   58.2320   19.7416 C.3       5 GLY6        0.0000 
     10 CZ         54.7056   57.9372   20.9996 C.ar      4 PHE5        0.0000 
     11 CA         55.1899   56.8430   19.2480 C.3       5 GLY6        0.0000 
     12 O          55.6741   55.7487   17.4964 O.2       1 ALA2        0.0000 
     13 CA         54.9122   55.4540   18.7544 C.3       5 GLY6        0.0000 
     14 CZ         54.6345   54.0650   18.2608 C.ar      4 PHE5        0.0000 
     15 CA         58.0468   60.8210   20.1217 C.3       5 GLY6        0.0000 
     16 NZ         57.2848   60.5263   21.3797 N.2       3 LYS4        0.0000 
     17 CA         57.7691   59.4320   19.6281 C.3       5 GLY6        0.0000 
     18 O          57.0071   59.1373   20.8861 O.2       1 ALA2        0.0000 
     19 NZ         56.2452   58.8426   22.1442 N.2       3 LYS4        0.0000 
     20 CA         57.4914   58.0431   19.1345 C.3       5 GLY6        0.0000 
     21 O          56.7294   57.7483   20.3925 O.2       1 ALA2        0.0000 
     22 O          55.9675   57.4536   21.6506 O.2       1 ALA2        0.0000 
     23 CA         57.2137   56.6541   18.6409 C.3       5 GLY6        0.0000 
     24 O          56.4517   56.3594   19.8989 O.2       1 ALA2        0.0000 
     25 CZ         55.6898   56.0646   21.1570 C.ar      4 PHE5        0.0000 
     26 N          56.9360   55.2651   18.1473 N.2       1 ALA2        0.0000 
     27 OD1        56.1740   54.9704   19.4053 O.3       2 ASP3        0.0000 
     28 CZ         55.4121   54.6757   20.6634 C.ar      4 PHE5        0.0000 
     29 OD1        55.8963   53.5814   18.9117 O.3       2 ASP3        0.0000 
     30 CZ         55.1344   53.2867   20.1698 C.ar      4 PHE5        0.0000 
     31 O          58.5467   60.0427   22.0307 O.2       1 ALA2        0.0000 
     32 O          59.0309   58.9484   20.2791 O.2       1 ALA2        0.0000 
     33 DU         50.9754   62.9444   18.1248 H         6 CUB7        0.0000 
     34 CZ         50.2135   62.6497   19.3829 C.ar      4 PHE5        0.0000 
     35 O          51.4597   61.8502   16.3732 O.2       1 ALA2        0.0000 
     36 N          50.6977   61.5554   17.6312 N.2       1 ALA2        0.0000 
     37 O          51.9439   60.7559   14.6216 O.2       1 ALA2        0.0000 
     38 O          51.1820   60.4612   15.8796 O.2       1 ALA2        0.0000 
     39 N          50.4201   60.1665   17.1376 N.2       1 ALA2        0.0000 
     40 NZ         50.9043   59.0722   15.3860 N.2       3 LYS4        0.0000 
     41 CA         52.2373   62.4608   18.7758 C.3       5 GLY6        0.0000 
     42 CZ         51.4754   62.1661   20.0338 C.ar      4 PHE5        0.0000 
     43 CA         52.7216   61.3665   17.0242 C.3       5 GLY6        0.0000 
     44 CA         51.9596   61.0718   18.2822 C.3       5 GLY6        0.0000 
     45 N          51.1977   60.7771   19.5402 N.2       1 ALA2        0.0000 
     46 CA         52.4439   59.9776   16.5306 C.3       5 GLY6        0.0000 
     47 CA         52.7373   61.6824   20.6848 C.3       5 GLY6        0.0000 
     48 CA         53.2215   60.5882   18.9332 C.3       5 GLY6        0.0000 
     49 CA         52.4596   60.2935   20.1912 C.3       5 GLY6        0.0000 
@<TRIPOS>BOND
@<TRIPOS>SUBSTRUCTURE
     1 ALA2        8 GROUP   
     2 ASP3       27 GROUP   
     3 LYS4        7 GROUP   
     4 PHE5        2 GROUP   
     5 GLY6        1 GROUP   
     6 CUB7       33 GROUP   
@<TRIPOS>SET

