#    Name: 1krm_PRH_1_INTS_M
#    Modification time : Mon Apr  7 13:47:33 2014

@<TRIPOS>MOLECULE
1krm_PRH_1_INTS_M
   50     0    12     0     0
SMALL
NO_CHARGES


@<TRIPOS>ATOM
      1 O          56.7085   52.0110   16.4630 O.2       1 ALC1        0.0000 
      2 O          56.6320   52.8150   17.6970 O.2       9 ALL1        0.0000 
      3 O          56.7850   51.2070   15.2290 O.2       5 ALP1        0.0000 
      4 CA         58.0650   54.2465   21.2270 C.3       4 GLC5        0.0000 
      5 CA         56.4840   53.7240   19.7550 C.3      12 GLL5        0.0000 
      6 CA         59.6460   54.7690   22.6990 C.3       8 GLP5        0.0000 
      7 Zn         58.3080   52.4450   19.7865 Zn        3 ZIC7        0.0000 
      8 Zn         57.7720   51.8330   19.3370 Zn       11 ZIL7        0.0000 
      9 Zn         58.8440   53.0570   20.2360 Zn        7 ZIP7        0.0000 
     10 N          58.2190   50.6005   18.7625 N.am      2 SEC2        0.0000 
     11 N          57.7720   51.8330   19.3370 N.am     10 SEL2        0.0000 
     12 N          58.6660   49.3680   18.1880 N.am      6 SEP2        0.0000 
     13 N          57.4855   50.9500   20.4175 N.am      2 SEC2        0.0000 
     14 N          57.1990   50.0670   21.4980 N.am      6 SEP2        0.0000 
     15 CA         57.9325   55.6495   22.1415 C.3       4 GLC5        0.0000 
     16 CA         56.5650   55.2280   21.1990 C.3      12 GLL5        0.0000 
     17 CA         59.3000   56.0710   23.0840 C.3       8 GLP5        0.0000 
     18 CA         57.6725   57.7570   18.4635 C.3       4 GLC5        0.0000 
     19 CA         56.0540   57.3260   19.8390 C.3      12 GLL5        0.0000 
     20 CA         59.2910   58.1880   17.0880 C.3       8 GLP5        0.0000 
     21 CA         54.0510   57.7365   22.1645 C.3       4 GLC5        0.0000 
     22 CA         55.0190   58.2730   20.4600 C.3      12 GLL5        0.0000 
     23 CA         53.0830   57.2000   23.8690 C.3       8 GLP5        0.0000 
     24 CA         56.2650   59.5330   23.3230 C.3       4 GLC5        0.0000 
     25 CA         55.8920   59.3320   21.1550 C.3      12 GLL5        0.0000 
     26 CA         56.6380   59.7340   25.4910 C.3       8 GLP5        0.0000 
     27 CA         54.5575   58.9515   22.6565 C.3       4 GLC5        0.0000 
     28 CA         53.2230   58.5710   24.1580 C.3       8 GLP5        0.0000 
     29 CA         55.3360   61.4420   21.2715 C.3       4 GLC5        0.0000 
     30 CA         54.7800   63.5520   21.3880 C.3       8 GLP5        0.0000 
     31 O          55.5725   60.8125   22.3955 O.2       1 ALC1        0.0000 
     32 O          55.5290   60.7390   21.0320 O.2       9 ALL1        0.0000 
     33 O          55.6160   60.8860   23.7590 O.2       5 ALP1        0.0000 
     34 CA         58.6555   61.9445   20.8560 C.3       4 GLC5        0.0000 
     35 CA         58.3600   59.9240   20.8840 C.3      12 GLL5        0.0000 
     36 CA         58.9510   63.9650   20.8280 C.3       8 GLP5        0.0000 
     37 CA         60.2845   59.8325   19.9625 C.3       4 GLC5        0.0000 
     38 CA         62.2090   59.7410   19.0410 C.3       8 GLP5        0.0000 
     39 N          58.8165   58.0830   22.1215 N.am      2 SEC2        0.0000 
     40 N          58.4830   59.4140   22.3020 N.am     10 SEL2        0.0000 
     41 N          59.1500   56.7520   21.9410 N.am      6 SEP2        0.0000 
     42 CA         57.9601   53.3060   18.2602 C.3       4 GLC5        0.0000 
     43 CA         56.4820   52.4470   19.0630 C.3      12 GLL5        0.0000 
     44 CA         59.5450   53.2300   17.2490 C.3       8 GLP5        0.0000 
     45 CA         53.9472   57.5817   19.1702 C.3       4 GLC5        0.0000 
     46 CA         52.3580   57.3640   18.1910 C.3       8 GLP5        0.0000 
     47 CA         57.4280   60.9922   19.0738 C.3       4 GLC5        0.0000 
     48 CA         57.1340   59.2410   20.3290 C.3      12 GLL5        0.0000 
     49 CA         57.1090   62.4020   17.5410 C.3       8 GLP5        0.0000 
     50 CA         58.5190   58.8852   18.8473 C.3       4 GLC5        0.0000 
@<TRIPOS>BOND
@<TRIPOS>SUBSTRUCTURE
     1 ALC1        1 GROUP        1 X    ALC  0     ROOT ALC X 1
     2 SEC2       10 GROUP        1 X    SEC  0     **** SEC X 2
     3 ZIC7        7 GROUP        1 X    ZIC  0     **** ZIC X 5
     4 GLC5        4 GROUP        1 X    GLC  0     **** GLC X 6
     5 ALP1        3 GROUP        1 Y    ALP  0     ROOT ALP Y 8
     6 SEP2       12 GROUP        1 Y    SEP  0     **** SEP Y 9
     7 ZIP7        9 GROUP        1 Y    ZIP  0     **** ZIP Y 12
     8 GLP5        6 GROUP        1 Y    GLP  0     **** GLP Y 13
     9 ALL1        2 GROUP        1 Z    ALL  0     ROOT ALL Z 15
    10 SEL2       11 GROUP        1 Z    SEL  0     **** SEL Z 16
    11 ZIL7        8 GROUP        1 Z    ZIL  0     **** ZIL Z 19
    12 GLL5        5 GROUP        1 Z    GLL  0     **** GLL Z 20
@<TRIPOS>SET

