#    Name: 1krm_PRH_1_ligand
#    Modification time : Mon Apr  7 13:47:33 2014

@<TRIPOS>MOLECULE
1krm_PRH_1_ligand
   32    34     1     0     0
SMALL
NO_CHARGES


@<TRIPOS>ATOM
      1 N1         56.6320   52.8150   17.6970 N.pl3     1 PRH401      0.0000 
      2 C2         55.8440   53.8670   17.1720 C.2       1 PRH401      0.0000 
      3 N3         55.6240   54.9970   17.8540 N.2       1 PRH401      0.0000 
      4 C4         56.0530   54.9100   19.2050 C.2       1 PRH401      0.0000 
      5 C5         56.4840   53.7240   19.7550 C.2       1 PRH401      0.0000 
      6 C6         56.4820   52.4470   19.0630 C.3       1 PRH401      0.0000 
      7 O6         57.7720   51.8330   19.3370 O.3       1 PRH401      0.0000 
      8 N7         56.8360   53.9120   21.0020 N.pl3     1 PRH401      0.0000 
      9 C8         56.5650   55.2280   21.1990 C.2       1 PRH401      0.0000 
     10 N9         56.1270   55.8710   20.0980 N.pl3     1 PRH401      0.0000 
     11 C1'        56.0540   57.3260   19.8390 C.3       1 PRH401      0.0000 
     12 C2'        55.0190   58.2730   20.4600 C.3       1 PRH401      0.0000 
     13 O2'        54.4310   59.1110   19.3730 O.3       1 PRH401      0.0000 
     14 C3'        55.8920   59.3320   21.1550 C.3       1 PRH401      0.0000 
     15 O3'        55.5290   60.7390   21.0320 O.3       1 PRH401      0.0000 
     16 C4'        57.1340   59.2410   20.3290 C.3       1 PRH401      0.0000 
     17 O4'        57.2620   57.8640   20.3240 O.3       1 PRH401      0.0000 
     18 C5'        58.3600   59.9240   20.8840 C.3       1 PRH401      0.0000 
     19 O5'        58.4830   59.4140   22.3020 O.3       1 PRH401      0.0000 
     20 H          57.2975   52.3266   17.1082 H         1 PRH401      0.0000 
     21 H          55.4352   53.7248   16.2181 H         1 PRH401      0.0000 
     22 H          55.7013   51.8652   19.2544 H         1 PRH401      0.0000 
     23 H          56.6819   55.6768   22.0864 H         1 PRH401      0.0000 
     24 H          56.0517   57.5144   18.7466 H         1 PRH401      0.0000 
     25 H          54.3860   57.8590   21.0671 H         1 PRH401      0.0000 
     26 H          56.1321   59.0329   22.1235 H         1 PRH401      0.0000 
     27 H          56.9032   59.5978   19.3435 H         1 PRH401      0.0000 
     28 H          58.2164   60.9830   20.8904 H         1 PRH401      0.0000 
     29 H          59.2225   59.6404   20.3202 H         1 PRH401      0.0000 
     30 H          54.4534   60.0462   19.7265 H         1 PRH401      0.0000 
     31 H          55.4646   61.0727   21.9725 H         1 PRH401      0.0000 
     32 H          57.7162   59.8275   22.7930 H         1 PRH401      0.0000 
@<TRIPOS>BOND
     1    2    1 1    
     2    6    1 1    
     3   20    1 1    
     4    3    2 2    
     5   21    2 1    
     6    4    3 1    
     7    5    4 2    
     8   10    4 1    
     9    6    5 1    
    10    8    5 1    
    11    7    6 1    
    12   22    6 1    
    13    9    8 1    
    14   10    9 2    
    15   23    9 1    
    16   11   10 1    
    17   12   11 1    
    18   17   11 1    
    19   24   11 1    
    20   13   12 1    
    21   14   12 1    
    22   25   12 1    
    23   30   13 1    
    24   15   14 1    
    25   16   14 1    
    26   26   14 1    
    27   31   15 1    
    28   17   16 1    
    29   18   16 1    
    30   27   16 1    
    31   19   18 1    
    32   28   18 1    
    33   29   18 1    
    34   32   19 1    
@<TRIPOS>SUBSTRUCTURE
     1 PRH401      1 GROUP   
@<TRIPOS>SET

