#    Name: 2p0m_RS7_1_INTS_M
#    Modification time : Mon Mar 24 18:08:20 2014

@<TRIPOS>MOLECULE
2p0m_RS7_1_INTS_M
   51     0     3     0     0
SMALL
NO_CHARGES


@<TRIPOS>ATOM
      1 CA        -54.5165  163.6365   35.4905 C.3       1 GLC5        0.0000 
      2 CA        -53.2540  164.9250   35.5630 C.3       3 GLL5        0.0000 
      3 CA        -55.7790  162.3480   35.4180 C.3       2 GLP5        0.0000 
      4 CA        -49.2200  163.0925   34.6870 C.3       1 GLC5        0.0000 
      5 CA        -49.6560  163.9670   33.3040 C.3       3 GLL5        0.0000 
      6 CA        -48.7840  162.2180   36.0700 C.3       2 GLP5        0.0000 
      7 CA        -47.8675  164.9380   30.7090 C.3       1 GLC5        0.0000 
      8 CA        -49.1860  164.8880   32.2790 C.3       3 GLL5        0.0000 
      9 CA        -46.5490  164.9880   29.1390 C.3       2 GLP5        0.0000 
     10 CA        -51.4780  167.1280   30.5800 C.3       1 GLC5        0.0000 
     11 CA        -51.7600  167.6140   32.6210 C.3       3 GLL5        0.0000 
     12 CA        -51.1960  166.6420   28.5390 C.3       2 GLP5        0.0000 
     13 CA        -49.6940  168.2365   32.2995 C.3       1 GLC5        0.0000 
     14 CA        -47.6280  168.8590   31.9780 C.3       2 GLP5        0.0000 
     15 CA        -51.4450  171.2375   32.8380 C.3       1 GLC5        0.0000 
     16 CA        -52.9600  170.0370   32.3870 C.3       3 GLL5        0.0000 
     17 CA        -49.9300  172.4380   33.2890 C.3       2 GLP5        0.0000 
     18 CA        -55.6875  168.6885   30.7925 C.3       1 GLC5        0.0000 
     19 CA        -54.5890  170.0310   32.0840 C.3       3 GLL5        0.0000 
     20 CA        -56.7860  167.3460   29.5010 C.3       2 GLP5        0.0000 
     21 CA        -54.8800  171.4370   32.4870 C.3       1 GLC5        0.0000 
     22 CA        -55.4680  169.4420   33.3260 C.3       3 GLL5        0.0000 
     23 CA        -54.2920  173.4320   31.6480 C.3       2 GLP5        0.0000 
     24 CA        -53.3335  169.2075   35.9435 C.3       1 GLC5        0.0000 
     25 CA        -55.0090  170.0020   34.7100 C.3       3 GLL5        0.0000 
     26 CA        -51.6580  168.4130   37.1770 C.3       2 GLP5        0.0000 
     27 CA        -53.6660  169.3065   37.1385 C.3       1 GLC5        0.0000 
     28 CA        -55.6740  170.2000   37.1000 C.3       3 GLL5        0.0000 
     29 CA        -52.3422  166.8818   36.1380 C.3       1 GLC5        0.0000 
     30 CA        -52.7990  165.7760   34.6350 C.3       3 GLL5        0.0000 
     31 CA        -51.5037  164.7007   36.2135 C.3       1 GLC5        0.0000 
     32 CA        -49.9810  164.0510   37.3280 C.3       2 GLP5        0.0000 
     33 CA        -50.5760  164.4330   35.6390 C.3       1 GLC5        0.0000 
     34 CA        -51.5270  165.4280   33.8720 C.3       3 GLL5        0.0000 
     35 CA        -50.5722  161.9197   33.7285 C.3       1 GLC5        0.0000 
     36 CA        -50.8150  164.2020   34.0280 C.3       3 GLL5        0.0000 
     37 CA        -50.9090  159.7550   33.7910 C.3       2 GLP5        0.0000 
     38 CA        -50.1706  167.3983   34.1804 C.3       1 GLC5        0.0000 
     39 CA        -49.9280  166.1220   32.0830 C.3       3 GLL5        0.0000 
     40 CA        -49.7140  168.7800   35.6450 C.3       2 GLP5        0.0000 
     41 CA        -50.8323  165.5443   30.7140 C.3       1 GLC5        0.0000 
     42 CA        -51.1260  166.3940   32.8250 C.3       3 GLL5        0.0000 
     43 CA        -51.3230  165.1390   28.9250 C.3       2 GLP5        0.0000 
     44 CA        -50.8895  168.4595   34.0763 C.3       1 GLC5        0.0000 
     45 CA        -54.0333  171.7330   31.9417 C.3       1 GLC5        0.0000 
     46 CA        -56.8432  170.1943   32.3515 C.3       1 GLC5        0.0000 
     47 CA        -58.6580  170.6520   31.9980 C.3       2 GLP5        0.0000 
     48 CA        -57.3377  170.4060   37.3440 C.3       1 GLC5        0.0000 
     49 CA        -58.8860  171.0050   38.2270 C.3       2 GLP5        0.0000 
     50 CA        -54.7978  171.5805   36.5375 C.3       1 GLC5        0.0000 
     51 CA        -54.0300  173.2070   36.8920 C.3       2 GLP5        0.0000 
@<TRIPOS>BOND
@<TRIPOS>SUBSTRUCTURE
     1 GLC5        1 GROUP        1 X    GLC  0     ROOT GLC X 6
     2 GLP5        3 GROUP        1 Y    GLP  0     ROOT GLP Y 13
     3 GLL5        2 GROUP        1 Z    GLL  0     ROOT GLL Z 20
@<TRIPOS>SET

