#    Name: 2p0m_RS7_1_ligand
#    Modification time : Mon Mar 24 18:08:20 2014

@<TRIPOS>MOLECULE
2p0m_RS7_1_ligand
   38    38     1     0     0
SMALL
NO_CHARGES


@<TRIPOS>ATOM
      1 C1        -54.3200  165.3130   36.5100 C.2       1 RS7841      0.0000 
      2 O19       -54.8040  166.4730   36.5330 O.co2     1 RS7841      0.0000 
      3 O18       -54.7090  164.4170   37.3440 O.co2     1 RS7841      0.0000 
      4 C2        -53.2540  164.9250   35.5630 C.2       1 RS7841      0.0000 
      5 C3        -52.7990  165.7760   34.6350 C.2       1 RS7841      0.0000 
      6 C4        -51.5270  165.4280   33.8720 C.ar      1 RS7841      0.0000 
      7 C5        -50.8150  164.2020   34.0280 C.ar      1 RS7841      0.0000 
      8 C6        -49.6560  163.9670   33.3040 C.ar      1 RS7841      0.0000 
      9 C7        -49.1860  164.8880   32.2790 C.ar      1 RS7841      0.0000 
     10 C8        -49.9280  166.1220   32.0830 C.ar      1 RS7841      0.0000 
     11 C9        -51.1260  166.3940   32.8250 C.ar      1 RS7841      0.0000 
     12 C10       -51.7600  167.6140   32.6210 C.1       1 RS7841      0.0000 
     13 C11       -52.3700  168.6640   32.3940 C.1       1 RS7841      0.0000 
     14 C12       -52.9600  170.0370   32.3870 C.3       1 RS7841      0.0000 
     15 C13       -54.5890  170.0310   32.0840 C.3       1 RS7841      0.0000 
     16 C14       -55.4680  169.4420   33.3260 C.3       1 RS7841      0.0000 
     17 C15       -55.0090  170.0020   34.7100 C.3       1 RS7841      0.0000 
     18 C16       -55.9050  169.4140   35.8220 C.3       1 RS7841      0.0000 
     19 C17       -55.6740  170.2000   37.1000 C.3       1 RS7841      0.0000 
     20 H         -52.8902  163.9619   35.6678 H         1 RS7841      0.0000 
     21 H         -53.2313  166.6550   34.3834 H         1 RS7841      0.0000 
     22 H         -51.1767  163.5011   34.6840 H         1 RS7841      0.0000 
     23 H         -49.0882  163.1211   33.4752 H         1 RS7841      0.0000 
     24 H         -48.3854  164.6789   31.7330 H         1 RS7841      0.0000 
     25 H         -49.5854  166.8012   31.4051 H         1 RS7841      0.0000 
     26 H         -52.5224  170.6630   31.6115 H         1 RS7841      0.0000 
     27 H         -52.8452  170.5332   33.3490 H         1 RS7841      0.0000 
     28 H         -54.7574  169.4143   31.2214 H         1 RS7841      0.0000 
     29 H         -54.8899  171.0453   31.9012 H         1 RS7841      0.0000 
     30 H         -55.3613  168.3648   33.3104 H         1 RS7841      0.0000 
     31 H         -56.5003  169.7119   33.1431 H         1 RS7841      0.0000 
     32 H         -55.1043  171.0746   34.7001 H         1 RS7841      0.0000 
     33 H         -53.9860  169.7119   34.8806 H         1 RS7841      0.0000 
     34 H         -55.6404  168.3788   35.9733 H         1 RS7841      0.0000 
     35 H         -56.9376  169.4975   35.5197 H         1 RS7841      0.0000 
     36 H         -54.7201  170.1544   37.3968 H         1 RS7841      0.0000 
     37 H         -55.8999  171.1676   36.9869 H         1 RS7841      0.0000 
     38 H         -56.2324  169.8549   37.8543 H         1 RS7841      0.0000 
@<TRIPOS>BOND
     1    2    1 ar   
     2    3    1 ar   
     3    4    1 1    
     4    5    4 2    
     5   20    4 1    
     6    6    5 1    
     7   21    5 1    
     8    7    6 ar   
     9   11    6 ar   
    10    8    7 ar   
    11   22    7 1    
    12    9    8 ar   
    13   23    8 1    
    14   10    9 ar   
    15   24    9 1    
    16   11   10 ar   
    17   25   10 1    
    18   12   11 1    
    19   13   12 3    
    20   14   13 1    
    21   15   14 1    
    22   26   14 1    
    23   27   14 1    
    24   16   15 1    
    25   28   15 1    
    26   29   15 1    
    27   17   16 1    
    28   30   16 1    
    29   31   16 1    
    30   18   17 1    
    31   32   17 1    
    32   33   17 1    
    33   19   18 1    
    34   34   18 1    
    35   35   18 1    
    36   36   19 1    
    37   37   19 1    
    38   38   19 1    
@<TRIPOS>SUBSTRUCTURE
     1 RS7841      1 GROUP   
@<TRIPOS>SET

