#    Name: 1qiv_DPD_2_INTS_M
#    Modification time : Mon Mar 24 23:33:32 2014

@<TRIPOS>MOLECULE
1qiv_DPD_2_INTS_M
   81     0     3     0     0
SMALL
NO_CHARGES


@<TRIPOS>ATOM
      1 CA         11.9515    7.2830   11.0650 C.3       1 GLC5        0.0000 
      2 CA         13.8490    8.0000   10.3890 C.3       3 GLL5        0.0000 
      3 CA         10.0540    6.5660   11.7410 C.3       2 GLP5        0.0000 
      4 CA         17.6415    7.0965   11.9125 C.3       1 GLC5        0.0000 
      5 CA         17.0970    5.0540   12.2480 C.3       3 GLL5        0.0000 
      6 CA         18.1860    9.1390   11.5770 C.3       2 GLP5        0.0000 
      7 CA         13.9010    3.6695    9.5570 C.3       1 GLC5        0.0000 
      8 CA         15.2120    3.8740   11.2860 C.3       3 GLL5        0.0000 
      9 CA         12.5900    3.4650    7.8280 C.3       2 GLP5        0.0000 
     10 CA         13.2085    3.9710   11.8305 C.3       1 GLC5        0.0000 
     11 CA         11.2050    4.0680   12.3750 C.3       2 GLP5        0.0000 
     12 CA         13.0400    5.1845   12.1910 C.3       1 GLC5        0.0000 
     13 CA         14.8750    6.3010   12.0070 C.3       3 GLL5        0.0000 
     14 CA         16.5305    7.7200   11.7920 C.3       1 GLC5        0.0000 
     15 CA         16.2365    8.7495   12.8525 C.3       1 GLC5        0.0000 
     16 CA         15.2530    7.1570   13.2380 C.3       3 GLL5        0.0000 
     17 CA         17.2200   10.3420   12.4670 C.3       2 GLP5        0.0000 
     18 CA         17.1655    9.1440   13.9015 C.3       1 GLC5        0.0000 
     19 CA         17.1110    7.9460   15.3360 C.3       3 GLL5        0.0000 
     20 CA         20.3095    8.4970   14.9655 C.3       1 GLC5        0.0000 
     21 CA         19.3420    8.6820   16.4020 C.3       3 GLL5        0.0000 
     22 CA         21.2770    8.3120   13.5290 C.3       2 GLP5        0.0000 
     23 CA         22.6365    4.5435   16.8440 C.3       1 GLC5        0.0000 
     24 CA         21.7700    5.9960   17.1830 C.3       3 GLL5        0.0000 
     25 CA         23.5030    3.0910   16.5050 C.3       2 GLP5        0.0000 
     26 CA         21.7140    3.6720   16.0300 C.3       1 GLC5        0.0000 
     27 CA         19.9250    4.2530   15.5550 C.3       3 GLL5        0.0000 
     28 CA         20.9590   -0.9260   14.4540 C.3       1 GLC5        0.0000 
     29 CA         19.7120    0.9200   14.2510 C.3       3 GLL5        0.0000 
     30 CA         22.2060   -2.7720   14.6570 C.3       2 GLP5        0.0000 
     31 CA         18.1210   -1.1860   12.7305 C.3       1 GLC5        0.0000 
     32 CA         19.3970    0.3140   12.8780 C.3       3 GLL5        0.0000 
     33 CA         16.8450   -2.6860   12.5830 C.3       2 GLP5        0.0000 
     34 CA         18.5845   -1.8090   11.7145 C.3       1 GLC5        0.0000 
     35 CA         20.3240   -0.9320   10.8460 C.3       3 GLL5        0.0000 
     36 CA         21.4585   -2.6795   10.3925 C.3       1 GLC5        0.0000 
     37 CA         22.5930   -4.4270    9.9390 C.3       2 GLP5        0.0000 
     38 CA         21.3530   -1.0205    9.2775 C.3       1 GLC5        0.0000 
     39 CA         22.3820   -1.1090    7.7090 C.3       2 GLP5        0.0000 
     40 CA         18.7155   -1.4790    9.8775 C.3       1 GLC5        0.0000 
     41 CA         17.1070   -2.0260    8.9090 C.3       2 GLP5        0.0000 
     42 CA         15.9550   -1.0380   13.6960 C.3       1 GLC5        0.0000 
     43 CA         15.0650    0.6100   14.8090 C.3       3 GLL5        0.0000 
     44 CA         13.4495    0.1080   11.3280 C.3       1 GLC5        0.0000 
     45 CA         13.3530    0.4540   12.8960 C.3       3 GLL5        0.0000 
     46 CA         13.5460   -0.2380    9.7600 C.3       2 GLP5        0.0000 
     47 CA         11.3650    0.2850   12.1050 C.3       1 GLC5        0.0000 
     48 CA          9.3770    0.1160   11.3140 C.3       2 GLP5        0.0000 
     49 CA         11.8015    1.6075   12.3325 C.3       1 GLC5        0.0000 
     50 CA         10.2500    2.7610   11.7690 C.3       2 GLP5        0.0000 
     51 CA         13.0615    6.6333    9.4977 C.3       1 GLC5        0.0000 
     52 CA         14.9090    7.1350   10.7160 C.3       3 GLL5        0.0000 
     53 CA         11.7440    5.6990    8.4430 C.3       2 GLP5        0.0000 
     54 CA         16.3648    8.9198    6.7383 C.3       1 GLC5        0.0000 
     55 CA         16.0240    7.8190    8.6370 C.3       3 GLL5        0.0000 
     56 CA         17.2380    9.5940    4.9920 C.3       2 GLP5        0.0000 
     57 CA         16.9624    8.2984   10.5145 C.3       1 GLC5        0.0000 
     58 CA         13.0795    7.2080    8.6070 C.3       1 GLC5        0.0000 
     59 CA         14.9590    8.6720    8.3320 C.3       3 GLL5        0.0000 
     60 CA         12.6600    9.0020    7.8520 C.3       1 GLC5        0.0000 
     61 CA         13.8710    8.7620    9.2100 C.3       3 GLL5        0.0000 
     62 CA         10.9050    9.2870    6.9330 C.3       2 GLP5        0.0000 
     63 CA         13.8900   10.4120    8.0280 C.3       1 GLC5        0.0000 
     64 CA         13.3650   12.1070    7.2850 C.3       2 GLP5        0.0000 
     65 CA         13.7930   10.2920   10.3983 C.3       1 GLC5        0.0000 
     66 CA         13.7260   12.2030   10.9970 C.3       2 GLP5        0.0000 
     67 CA         15.1834    2.2430   10.2147 C.3       1 GLC5        0.0000 
     68 CA         16.0070    2.7260   11.1310 C.3       3 GLL5        0.0000 
     69 CA         14.4220    1.1820    9.1200 C.3       2 GLP5        0.0000 
     70 CA         20.6950    5.2462   18.7873 C.3       1 GLC5        0.0000 
     71 CA         20.2900    6.3770   16.9520 C.3       3 GLL5        0.0000 
     72 CA         20.3600    4.3060   20.5070 C.3       2 GLP5        0.0000 
     73 CA         21.1535    7.2492   15.2982 C.3       1 GLC5        0.0000 
     74 CA         18.0694    1.4245   16.5794 C.3       1 GLC5        0.0000 
     75 CA         19.1750    3.1310   15.1510 C.3       3 GLL5        0.0000 
     76 CA         18.1590   -0.5560   17.0840 C.3       2 GLP5        0.0000 
     77 CA         18.8567    0.0305   15.3242 C.3       1 GLC5        0.0000 
     78 CA         21.8152   -1.6448   12.5663 C.3       1 GLC5        0.0000 
     79 CA         20.6430   -0.1650   12.1310 C.3       3 GLL5        0.0000 
     80 CA         23.1470   -2.7410   13.6440 C.3       2 GLP5        0.0000 
     81 CA         16.7680    0.3400   16.1035 C.3       1 GLC5        0.0000 
@<TRIPOS>BOND
@<TRIPOS>SUBSTRUCTURE
     1 GLC5        1 GROUP        1 X    GLC  0     ROOT GLC X 6
     2 GLP5        3 GROUP        1 Y    GLP  0     ROOT GLP Y 13
     3 GLL5        2 GROUP        1 Z    GLL  0     ROOT GLL Z 20
@<TRIPOS>SET

