#    Name: 1qiv_DPD_2_ligand
#    Modification time : Mon Mar 24 23:33:32 2014

@<TRIPOS>MOLECULE
1qiv_DPD_2_ligand
   84    86     1     0     0
SMALL
NO_CHARGES


@<TRIPOS>ATOM
      1 C11        14.9090    7.1350   10.7160 C.ar      1 DPD154      0.0000 
      2 C12        15.9980    7.0580    9.8180 C.ar      1 DPD154      0.0000 
      3 C13        16.0240    7.8190    8.6370 C.ar      1 DPD154      0.0000 
      4 C14        14.9590    8.6720    8.3320 C.ar      1 DPD154      0.0000 
      5 C15        13.8710    8.7620    9.2100 C.ar      1 DPD154      0.0000 
      6 C16        13.8490    8.0000   10.3890 C.ar      1 DPD154      0.0000 
      7 C21        15.7440    5.0570   11.8470 C.ar      1 DPD154      0.0000 
      8 C22        17.0970    5.0540   12.2480 C.ar      1 DPD154      0.0000 
      9 C23        17.8920    3.9080   12.0940 C.ar      1 DPD154      0.0000 
     10 C24        17.3480    2.7420   11.5350 C.ar      1 DPD154      0.0000 
     11 C25        16.0070    2.7260   11.1310 C.ar      1 DPD154      0.0000 
     12 C26        15.2120    3.8740   11.2860 C.ar      1 DPD154      0.0000 
     13 C1         14.8750    6.3010   12.0070 C.3       1 DPD154      0.0000 
     14 C2         15.2530    7.1570   13.2380 C.3       1 DPD154      0.0000 
     15 C3         15.1940    6.4530   14.6090 C.3       1 DPD154      0.0000 
     16 N4         16.3670    6.6720   15.4940 N.4       1 DPD154      0.0000 
     17 C5         17.1110    7.9460   15.3360 C.3       1 DPD154      0.0000 
     18 C6         17.8390    8.4130   16.6070 C.3       1 DPD154      0.0000 
     19 C7         19.3420    8.6820   16.4020 C.3       1 DPD154      0.0000 
     20 N8         20.1290    7.4940   15.9820 N.4       1 DPD154      0.0000 
     21 C9         20.2900    6.3770   16.9520 C.3       1 DPD154      0.0000 
     22 C19        21.7700    5.9960   17.1830 C.3       1 DPD154      0.0000 
     23 C31        19.4540    5.1650   16.5290 C.ar      1 DPD154      0.0000 
     24 C32        19.9250    4.2530   15.5550 C.ar      1 DPD154      0.0000 
     25 C33        19.1750    3.1310   15.1510 C.ar      1 DPD154      0.0000 
     26 C34        17.8880    2.8830   15.7320 C.ar      1 DPD154      0.0000 
     27 C35        17.4280    3.8030   16.7080 C.ar      1 DPD154      0.0000 
     28 C36        18.1860    4.9140   17.1010 C.ar      1 DPD154      0.0000 
     29 O3         19.7810    2.3430   14.1910 O.3       1 DPD154      0.0000 
     30 C41        19.7120    0.9200   14.2510 C.3       1 DPD154      0.0000 
     31 C42        19.3970    0.3140   12.8780 C.3       1 DPD154      0.0000 
     32 C43        20.6430   -0.1650   12.1310 C.3       1 DPD154      0.0000 
     33 C44        20.3240   -0.9320   10.8460 C.3       1 DPD154      0.0000 
     34 O4         17.1100    1.8020   15.3750 O.3       1 DPD154      0.0000 
     35 C51        15.6890    1.8620   15.4370 C.3       1 DPD154      0.0000 
     36 C52        15.0650    0.6100   14.8090 C.3       1 DPD154      0.0000 
     37 C53        13.6020    0.7990   14.3700 C.3       1 DPD154      0.0000 
     38 C54        13.3530    0.4540   12.8960 C.3       1 DPD154      0.0000 
     39 H          16.7862    6.4307   10.0369 H         1 DPD154      0.0000 
     40 H          16.8244    7.7466    8.0017 H         1 DPD154      0.0000 
     41 H          14.9729    9.2274    7.4736 H         1 DPD154      0.0000 
     42 H          13.0868    9.3866    8.9919 H         1 DPD154      0.0000 
     43 H          13.0421    8.0749   11.0272 H         1 DPD154      0.0000 
     44 H          17.5031    5.9059   12.6587 H         1 DPD154      0.0000 
     45 H          18.8734    3.9230   12.3910 H         1 DPD154      0.0000 
     46 H          17.9288    1.9078   11.4234 H         1 DPD154      0.0000 
     47 H          15.6038    1.8777   10.7220 H         1 DPD154      0.0000 
     48 H          14.2272    3.8568   10.9877 H         1 DPD154      0.0000 
     49 H          13.8327    5.9668   12.1438 H         1 DPD154      0.0000 
     50 H          14.5857    8.0437   13.2669 H         1 DPD154      0.0000 
     51 H          16.2791    7.5533   13.0879 H         1 DPD154      0.0000 
     52 H          15.0564    5.3642   14.4245 H         1 DPD154      0.0000 
     53 H          14.2647    6.7880   15.1215 H         1 DPD154      0.0000 
     54 H          16.4204    8.7529   15.0223 H         1 DPD154      0.0000 
     55 H          17.8625    7.8495   14.5283 H         1 DPD154      0.0000 
     56 H          17.7195    7.6479   17.3877 H         1 DPD154      0.0000 
     57 H          17.3614    9.3332   16.9736 H         1 DPD154      0.0000 
     58 H          19.7468    9.0899   17.3495 H         1 DPD154      0.0000 
     59 H          19.4435    9.4897   15.6501 H         1 DPD154      0.0000 
     60 H          19.8902    6.7107   17.9328 H         1 DPD154      0.0000 
     61 H          20.8544    4.4185   15.1254 H         1 DPD154      0.0000 
     62 H          16.4993    3.6422   17.1410 H         1 DPD154      0.0000 
     63 H          17.8198    5.5583   17.8144 H         1 DPD154      0.0000 
     64 H          18.9295    0.5785   14.9497 H         1 DPD154      0.0000 
     65 H          20.6629    0.4796   14.5957 H         1 DPD154      0.0000 
     66 H          18.8798    1.0659   12.2673 H         1 DPD154      0.0000 
     67 H          18.7114   -0.5332   13.0118 H         1 DPD154      0.0000 
     68 H          21.2321   -0.8123   12.7965 H         1 DPD154      0.0000 
     69 H          21.2672    0.7052   11.8820 H         1 DPD154      0.0000 
     70 H          15.2919    2.7347   14.8972 H         1 DPD154      0.0000 
     71 H          15.3266    1.9266   16.4739 H         1 DPD154      0.0000 
     72 H          15.1130   -0.2158   15.5337 H         1 DPD154      0.0000 
     73 H          15.6614    0.3133   13.9339 H         1 DPD154      0.0000 
     74 H          13.3114    1.8440   14.5467 H         1 DPD154      0.0000 
     75 H          12.9592    0.1672   14.9987 H         1 DPD154      0.0000 
     76 H          22.2149    5.7042   16.3363 H         1 DPD154      0.0000 
     77 H          22.2995    6.7643   17.5426 H         1 DPD154      0.0000 
     78 H          21.8625    5.2449   17.8366 H         1 DPD154      0.0000 
     79 H          21.1545   -1.2327   10.3771 H         1 DPD154      0.0000 
     80 H          19.7775   -1.7496   11.0274 H         1 DPD154      0.0000 
     81 H          19.8077   -0.3722   10.1978 H         1 DPD154      0.0000 
     82 H          13.9037    1.0213   12.2837 H         1 DPD154      0.0000 
     83 H          13.5785   -0.4992   12.6945 H         1 DPD154      0.0000 
     84 H          12.3960    0.5894   12.6394 H         1 DPD154      0.0000 
@<TRIPOS>BOND
     1    2    1 ar   
     2    6    1 ar   
     3   13    1 1    
     4    3    2 ar   
     5   39    2 1    
     6    4    3 ar   
     7   40    3 1    
     8    5    4 ar   
     9   41    4 1    
    10    6    5 ar   
    11   42    5 1    
    12   43    6 1    
    13    8    7 ar   
    14   12    7 ar   
    15   13    7 1    
    16    9    8 ar   
    17   44    8 1    
    18   10    9 ar   
    19   45    9 1    
    20   11   10 ar   
    21   46   10 1    
    22   12   11 ar   
    23   47   11 1    
    24   48   12 1    
    25   14   13 1    
    26   49   13 1    
    27   15   14 1    
    28   50   14 1    
    29   51   14 1    
    30   16   15 1    
    31   52   15 1    
    32   53   15 1    
    33   17   16 1    
    34   18   17 1    
    35   54   17 1    
    36   55   17 1    
    37   19   18 1    
    38   56   18 1    
    39   57   18 1    
    40   20   19 1    
    41   58   19 1    
    42   59   19 1    
    43   21   20 1    
    44   22   21 1    
    45   23   21 1    
    46   60   21 1    
    47   76   22 1    
    48   77   22 1    
    49   78   22 1    
    50   24   23 ar   
    51   28   23 ar   
    52   25   24 ar   
    53   61   24 1    
    54   26   25 ar   
    55   29   25 1    
    56   27   26 ar   
    57   34   26 1    
    58   28   27 ar   
    59   62   27 1    
    60   63   28 1    
    61   30   29 1    
    62   31   30 1    
    63   64   30 1    
    64   65   30 1    
    65   32   31 1    
    66   66   31 1    
    67   67   31 1    
    68   33   32 1    
    69   68   32 1    
    70   69   32 1    
    71   79   33 1    
    72   80   33 1    
    73   81   33 1    
    74   35   34 1    
    75   36   35 1    
    76   70   35 1    
    77   71   35 1    
    78   37   36 1    
    79   72   36 1    
    80   73   36 1    
    81   38   37 1    
    82   74   37 1    
    83   75   37 1    
    84   82   38 1    
    85   83   38 1    
    86   84   38 1    
@<TRIPOS>SUBSTRUCTURE
     1 DPD154      1 GROUP   
@<TRIPOS>SET

