#    Name: 3gyt_DL4_1_INTS_M
#    Modification time : Tue Mar 25 13:17:19 2014

@<TRIPOS>MOLECULE
3gyt_DL4_1_INTS_M
  101     0     9     0     0
SMALL
NO_CHARGES


@<TRIPOS>ATOM
      1 NZ        -10.6240  -32.6020    4.1335 N.4       2 LYC4        0.0000 
      2 NZ         -9.1930  -32.8430    4.1920 N.4       8 LYL4        0.0000 
      3 NZ        -12.6540  -32.6920    2.9760 N.4       5 LYP4        0.0000 
      4 N          -8.3145  -34.1030    4.5930 N.am      1 SEC2        0.0000 
      5 N          -9.1930  -32.8430    4.1920 N.am      7 SEL2        0.0000 
      6 N          -7.4360  -35.3630    4.9940 N.am      4 SEP2        0.0000 
      7 N         -10.6240  -32.6020    4.1335 N.am      1 SEC2        0.0000 
      8 N         -12.0550  -32.3610    4.0750 N.am      4 SEP2        0.0000 
      9 CA         -7.4315  -30.0785    4.2065 C.3       3 GLC5        0.0000 
     10 CA         -6.9850  -32.2230    4.6210 C.3       9 GLL5        0.0000 
     11 CA         -7.8780  -27.9340    3.7920 C.3       6 GLP5        0.0000 
     12 CA         -5.7060  -30.4150    6.7265 C.3       3 GLC5        0.0000 
     13 CA         -6.5940  -32.0490    6.0490 C.3       9 GLL5        0.0000 
     14 CA         -4.8180  -28.7810    7.4040 C.3       6 GLP5        0.0000 
     15 CA         -6.2510  -33.1235    7.5515 C.3       3 GLC5        0.0000 
     16 CA         -5.9080  -34.1980    9.0540 C.3       6 GLP5        0.0000 
     17 CA         -4.8240  -30.0280    4.4645 C.3       3 GLC5        0.0000 
     18 CA         -6.1450  -31.4090    3.6500 C.3       9 GLL5        0.0000 
     19 CA         -3.5030  -28.6470    5.2790 C.3       6 GLP5        0.0000 
     20 CA         -7.8915  -31.1040    0.5435 C.3       3 GLC5        0.0000 
     21 CA         -6.6090  -31.5510    2.1980 C.3       9 GLL5        0.0000 
     22 CA         -9.1740  -30.6570   -1.1110 C.3       6 GLP5        0.0000 
     23 CA         -4.1920  -32.5700    2.9630 C.3       3 GLC5        0.0000 
     24 CA         -5.5330  -32.1300    1.2820 C.3       9 GLL5        0.0000 
     25 CA         -2.8510  -33.0100    4.6440 C.3       6 GLP5        0.0000 
     26 CA         -5.2240  -30.9060   -0.4050 C.3       3 GLC5        0.0000 
     27 CA         -4.9150  -29.6820   -2.0920 C.3       6 GLP5        0.0000 
     28 CA         -3.8330  -31.1955    1.5510 C.3       3 GLC5        0.0000 
     29 CA         -2.1330  -30.2610    1.8200 C.3       6 GLP5        0.0000 
     30 CA         -8.7620  -34.3355    0.5545 C.3       3 GLC5        0.0000 
     31 CA         -7.0840  -33.6870    0.2010 C.3       9 GLL5        0.0000 
     32 CA        -10.4400  -34.9840    0.9080 C.3       6 GLP5        0.0000 
     33 CA         -7.8420  -34.2335   -1.3555 C.3       3 GLC5        0.0000 
     34 CA         -8.6000  -34.7800   -2.9120 C.3       6 GLP5        0.0000 
     35 CA         -8.1290  -32.1720   -0.4550 C.3       3 GLC5        0.0000 
     36 CA         -6.6060  -32.5500   -1.5820 C.3       3 GLC5        0.0000 
     37 CA         -6.1280  -31.4130   -3.3650 C.3       6 GLP5        0.0000 
     38 CA         -4.2645  -32.9120   -1.6640 C.3       3 GLC5        0.0000 
     39 CA         -4.6000  -34.1510    0.0270 C.3       9 GLL5        0.0000 
     40 CA         -3.9290  -31.6730   -3.3550 C.3       6 GLP5        0.0000 
     41 CA         -3.0370  -33.4980    2.6685 C.3       3 GLC5        0.0000 
     42 CA         -3.2230  -33.9860    0.6930 C.3       9 GLL5        0.0000 
     43 CA         -2.6780  -32.1235    1.2565 C.3       3 GLC5        0.0000 
     44 CA         -0.5025  -35.6055    0.8115 C.3       3 GLC5        0.0000 
     45 CA         -2.2830  -35.1230    0.2200 C.3       9 GLL5        0.0000 
     46 CA          1.2780  -36.0880    1.4030 C.3       6 GLP5        0.0000 
     47 CA         -2.1880  -36.5955    1.7425 C.3       3 GLC5        0.0000 
     48 CA         -2.0930  -38.0680    3.2650 C.3       6 GLP5        0.0000 
     49 CA         -2.7435  -34.6660   -2.7415 C.3       3 GLC5        0.0000 
     50 CA         -3.1150  -35.7100   -0.8970 C.3       9 GLL5        0.0000 
     51 CA         -2.3720  -33.6220   -4.5860 C.3       6 GLP5        0.0000 
     52 CA         -0.0870  -36.7250   -0.2220 C.3       3 GLC5        0.0000 
     53 CA         -1.4520  -37.3620   -1.8470 C.3       9 GLL5        0.0000 
     54 CA         -3.7170  -38.1870    1.0145 C.3       3 GLC5        0.0000 
     55 CA         -4.8350  -36.5660    0.6820 C.3       9 GLL5        0.0000 
     56 CA         -2.5990  -39.8080    1.3470 C.3       6 GLP5        0.0000 
     57 CA         -6.1345  -37.8560    1.8135 C.3       3 GLC5        0.0000 
     58 CA         -7.4340  -39.1460    2.9450 C.3       6 GLP5        0.0000 
     59 CA         -4.9690  -34.3070   -2.8965 C.3       3 GLC5        0.0000 
     60 CA         -5.4440  -35.8920   -1.6800 C.3       9 GLL5        0.0000 
     61 CA         -4.4940  -32.7220   -4.1130 C.3       6 GLP5        0.0000 
     62 CA         -6.8155  -38.4260   -2.8565 C.3       3 GLC5        0.0000 
     63 CA         -5.2230  -37.3250   -2.2010 C.3       9 GLL5        0.0000 
     64 CA         -8.4080  -39.5270   -3.5120 C.3       6 GLP5        0.0000 
     65 CA         -5.0705  -38.0170   -5.8570 C.3       3 GLC5        0.0000 
     66 CA         -4.2890  -39.1970   -4.3720 C.3       9 GLL5        0.0000 
     67 CA         -5.8520  -36.8370   -7.3420 C.3       6 GLP5        0.0000 
     68 CA         -3.2945  -39.9730   -0.3540 C.3       3 GLC5        0.0000 
     69 CA         -3.9900  -40.1380   -2.0550 C.3       9 GLL5        0.0000 
     70 CA         -4.5050  -42.2435   -1.9980 C.3       3 GLC5        0.0000 
     71 CA         -5.0200  -44.3490   -1.9410 C.3       6 GLP5        0.0000 
     72 CA         -5.7205  -40.1050   -0.7005 C.3       3 GLC5        0.0000 
     73 CA         -7.4510  -40.0720    0.6540 C.3       6 GLP5        0.0000 
     74 CA         -2.7225  -41.5140   -0.8235 C.3       3 GLC5        0.0000 
     75 CA         -1.4550  -42.8900    0.4080 C.3       6 GLP5        0.0000 
     76 CA         -1.2210  -38.2155   -5.0635 C.3       3 GLC5        0.0000 
     77 CA         -2.0390  -39.2980   -3.3390 C.3       9 GLL5        0.0000 
     78 CA         -0.4030  -37.1330   -6.7880 C.3       6 GLP5        0.0000 
     79 CA         -0.4380  -38.9165   -5.6310 C.3       3 GLC5        0.0000 
     80 CA         -1.5340  -39.8620   -4.4310 C.3       9 GLL5        0.0000 
     81 CA          0.6580  -37.9710   -6.8310 C.3       6 GLP5        0.0000 
     82 CA         -1.5255  -42.0410   -4.5925 C.3       3 GLC5        0.0000 
     83 CA         -1.5170  -44.2200   -4.7540 C.3       6 GLP5        0.0000 
     84 N          -1.5565  -41.9670   -7.1950 N.am      1 SEC2        0.0000 
     85 N          -1.9230  -40.9900   -6.4170 N.am      7 SEL2        0.0000 
     86 N          -1.1900  -42.9440   -7.9730 N.am      4 SEP2        0.0000 
     87 CA         -4.1960  -41.1845   -7.1960 C.3       3 GLC5        0.0000 
     88 CA         -3.8580  -40.3210   -5.3070 C.3       9 GLL5        0.0000 
     89 CA         -4.5340  -42.0480   -9.0850 C.3       6 GLP5        0.0000 
     90 CA         -4.6591  -32.3912    4.5683 C.3       3 GLC5        0.0000 
     91 CA         -6.3800  -29.5770    3.2000 C.3       3 GLC5        0.0000 
     92 CA         -6.3830  -27.6740    3.4760 C.3       6 GLP5        0.0000 
     93 CA         -0.1422  -36.7763   -2.8800 C.3       3 GLC5        0.0000 
     94 CA          0.9870  -35.4730   -3.6980 C.3       6 GLP5        0.0000 
     95 CA         -2.1174  -38.9147   -0.3075 C.3       3 GLC5        0.0000 
     96 CA         -1.0910  -38.7970   -2.2770 C.3       9 GLL5        0.0000 
     97 CA         -6.9668  -35.6942   -2.4262 C.3       3 GLC5        0.0000 
     98 CA         -6.0333  -39.9525   -5.3422 C.3       3 GLC5        0.0000 
     99 CA         -7.9930  -40.1460   -5.8450 C.3       6 GLP5        0.0000 
    100 CA         -0.0532  -40.4079   -4.2153 C.3       3 GLC5        0.0000 
    101 CA          1.4430  -41.3610   -4.8110 C.3       6 GLP5        0.0000 
@<TRIPOS>BOND
@<TRIPOS>SUBSTRUCTURE
     1 SEC2        4 GROUP        1 X    SEC  0     ROOT SEC X 2
     2 LYC4        1 GROUP        1 X    LYC  0     **** LYC X 4
     3 GLC5        9 GROUP        1 X    GLC  0     **** GLC X 6
     4 SEP2        6 GROUP        1 Y    SEP  0     ROOT SEP Y 9
     5 LYP4        3 GROUP        1 Y    LYP  0     **** LYP Y 11
     6 GLP5       11 GROUP        1 Y    GLP  0     **** GLP Y 13
     7 SEL2        5 GROUP        1 Z    SEL  0     ROOT SEL Z 16
     8 LYL4        2 GROUP        1 Z    LYL  0     **** LYL Z 18
     9 GLL5       10 GROUP        1 Z    GLL  0     **** GLL Z 20
@<TRIPOS>SET

