#    Name: 3gyt_DL4_1_ligand
#    Modification time : Tue Mar 25 13:17:19 2014

@<TRIPOS>MOLECULE
3gyt_DL4_1_ligand
   71    74     1     0     0
SMALL
NO_CHARGES


@<TRIPOS>ATOM
      1 O3         -8.8410  -30.7410    4.7850 O.co2     1 DL4100      0.0000 
      2 C27        -8.4420  -31.8950    4.5320 C.2       1 DL4100      0.0000 
      3 O2         -9.1930  -32.8430    4.1920 O.co2     1 DL4100      0.0000 
      4 C25        -6.9850  -32.2230    4.6210 C.3       1 DL4100      0.0000 
      5 C26        -6.5940  -32.0490    6.0490 C.3       1 DL4100      0.0000 
      6 C24        -6.1450  -31.4090    3.6500 C.3       1 DL4100      0.0000 
      7 C23        -6.6090  -31.5510    2.1980 C.3       1 DL4100      0.0000 
      8 C22        -5.5330  -32.1300    1.2820 C.3       1 DL4100      0.0000 
      9 C20        -5.7430  -33.6240    0.9250 C.3       1 DL4100      0.0000 
     10 C21        -7.0840  -33.6870    0.2010 C.3       1 DL4100      0.0000 
     11 C17        -4.6000  -34.1510    0.0270 C.3       1 DL4100      0.0000 
     12 C16        -3.2230  -33.9860    0.6930 C.3       1 DL4100      0.0000 
     13 C15        -2.2830  -35.1230    0.2200 C.3       1 DL4100      0.0000 
     14 C14        -3.1150  -35.7100   -0.8970 C.3       1 DL4100      0.0000 
     15 C8         -2.9090  -37.1300   -1.4470 C.3       1 DL4100      0.0000 
     16 C7         -1.4520  -37.3620   -1.8470 C.3       1 DL4100      0.0000 
     17 C6         -1.0910  -38.7970   -2.2770 C.3       1 DL4100      0.0000 
     18 C13        -4.5780  -35.5760   -0.4710 C.3       1 DL4100      0.0000 
     19 C18        -4.8350  -36.5660    0.6820 C.3       1 DL4100      0.0000 
     20 C12        -5.4440  -35.8920   -1.6800 C.3       1 DL4100      0.0000 
     21 C11        -5.2230  -37.3250   -2.2010 C.3       1 DL4100      0.0000 
     22 C9         -3.7720  -37.6790   -2.5720 C.3       1 DL4100      0.0000 
     23 C10        -3.5180  -39.1090   -3.0820 C.3       1 DL4100      0.0000 
     24 C1         -4.2890  -39.1970   -4.3720 C.3       1 DL4100      0.0000 
     25 C19        -3.9900  -40.1380   -2.0550 C.3       1 DL4100      0.0000 
     26 C5         -2.0390  -39.2980   -3.3390 C.2       1 DL4100      0.0000 
     27 C4         -1.5340  -39.8620   -4.4310 C.2       1 DL4100      0.0000 
     28 C3         -2.3750  -40.4150   -5.4620 C.2       1 DL4100      0.0000 
     29 O1         -1.9230  -40.9900   -6.4170 O.2       1 DL4100      0.0000 
     30 C2         -3.8580  -40.3210   -5.3070 C.3       1 DL4100      0.0000 
     31 H          -6.8739  -33.2889    4.3694 H         1 DL4100      0.0000 
     32 H          -5.0971  -31.7294    3.7205 H         1 DL4100      0.0000 
     33 H          -6.1877  -30.3492    3.9340 H         1 DL4100      0.0000 
     34 H          -6.9085  -30.5643    1.8213 H         1 DL4100      0.0000 
     35 H          -7.4935  -32.2005    2.1683 H         1 DL4100      0.0000 
     36 H          -4.5494  -32.0236    1.7641 H         1 DL4100      0.0000 
     37 H          -5.5018  -31.5510    0.3466 H         1 DL4100      0.0000 
     38 H          -5.7985  -34.1837    1.8217 H         1 DL4100      0.0000 
     39 H          -4.5359  -33.4893   -0.8804 H         1 DL4100      0.0000 
     40 H          -3.3326  -34.0428    1.7651 H         1 DL4100      0.0000 
     41 H          -2.7973  -33.0359    0.4088 H         1 DL4100      0.0000 
     42 H          -2.1635  -35.8150    0.9956 H         1 DL4100      0.0000 
     43 H          -1.4005  -34.7051   -0.1559 H         1 DL4100      0.0000 
     44 H          -3.0411  -35.0011   -1.7796 H         1 DL4100      0.0000 
     45 H          -3.0535  -37.8451   -0.5645 H         1 DL4100      0.0000 
     46 H          -0.7969  -37.0758   -0.9981 H         1 DL4100      0.0000 
     47 H          -1.1937  -36.6724   -2.6773 H         1 DL4100      0.0000 
     48 H          -1.1382  -39.4452   -1.4017 H         1 DL4100      0.0000 
     49 H          -0.0702  -38.7995   -2.6597 H         1 DL4100      0.0000 
     50 H          -5.2169  -35.1870   -2.4862 H         1 DL4100      0.0000 
     51 H          -6.4995  -35.7746   -1.4139 H         1 DL4100      0.0000 
     52 H          -5.8641  -37.4806   -3.0896 H         1 DL4100      0.0000 
     53 H          -5.5766  -38.0387   -1.4326 H         1 DL4100      0.0000 
     54 H          -3.5522  -36.9720   -3.4641 H         1 DL4100      0.0000 
     55 H          -4.2024  -38.2333   -4.9164 H         1 DL4100      0.0000 
     56 H          -5.3685  -39.3220   -4.1451 H         1 DL4100      0.0000 
     57 H          -0.5036  -39.9300   -4.5914 H         1 DL4100      0.0000 
     58 H          -4.3260  -40.1575   -6.2915 H         1 DL4100      0.0000 
     59 H          -4.2531  -41.2731   -4.9167 H         1 DL4100      0.0000 
     60 H          -5.6265  -32.2541    6.1968 H         1 DL4100      0.0000 
     61 H          -6.7466  -31.1124    6.3644 H         1 DL4100      0.0000 
     62 H          -7.1167  -32.6505    6.6531 H         1 DL4100      0.0000 
     63 H          -7.0841  -33.1303   -0.6297 H         1 DL4100      0.0000 
     64 H          -7.3152  -34.6208   -0.0719 H         1 DL4100      0.0000 
     65 H          -7.8323  -33.3559    0.7758 H         1 DL4100      0.0000 
     66 H          -4.8238  -37.5148    0.3663 H         1 DL4100      0.0000 
     67 H          -4.1432  -36.4877    1.3999 H         1 DL4100      0.0000 
     68 H          -5.7238  -36.4111    1.1133 H         1 DL4100      0.0000 
     69 H          -3.8353  -41.0746   -2.3695 H         1 DL4100      0.0000 
     70 H          -3.5111  -40.0388   -1.1828 H         1 DL4100      0.0000 
     71 H          -4.9677  -40.0507   -1.8641 H         1 DL4100      0.0000 
@<TRIPOS>BOND
     1    2    1 ar   
     2    3    2 ar   
     3    4    2 1    
     4    5    4 1    
     5    6    4 1    
     6   31    4 1    
     7   60    5 1    
     8   61    5 1    
     9   62    5 1    
    10    7    6 1    
    11   32    6 1    
    12   33    6 1    
    13    8    7 1    
    14   34    7 1    
    15   35    7 1    
    16    9    8 1    
    17   36    8 1    
    18   37    8 1    
    19   10    9 1    
    20   11    9 1    
    21   38    9 1    
    22   63   10 1    
    23   64   10 1    
    24   65   10 1    
    25   12   11 1    
    26   18   11 1    
    27   39   11 1    
    28   13   12 1    
    29   40   12 1    
    30   41   12 1    
    31   14   13 1    
    32   42   13 1    
    33   43   13 1    
    34   15   14 1    
    35   18   14 1    
    36   44   14 1    
    37   16   15 1    
    38   22   15 1    
    39   45   15 1    
    40   17   16 1    
    41   46   16 1    
    42   47   16 1    
    43   26   17 1    
    44   48   17 1    
    45   49   17 1    
    46   19   18 1    
    47   20   18 1    
    48   66   19 1    
    49   67   19 1    
    50   68   19 1    
    51   21   20 1    
    52   50   20 1    
    53   51   20 1    
    54   22   21 1    
    55   52   21 1    
    56   53   21 1    
    57   23   22 1    
    58   54   22 1    
    59   24   23 1    
    60   25   23 1    
    61   26   23 1    
    62   30   24 1    
    63   55   24 1    
    64   56   24 1    
    65   69   25 1    
    66   70   25 1    
    67   71   25 1    
    68   27   26 2    
    69   28   27 1    
    70   57   27 1    
    71   29   28 2    
    72   30   28 1    
    73   58   30 1    
    74   59   30 1    
@<TRIPOS>SUBSTRUCTURE
     1 DL4100      1 GROUP   
@<TRIPOS>SET

