#    Name: 4er7_AW3_1_INTS_M
#    Modification time : Mon Mar 24 18:34:43 2014

@<TRIPOS>MOLECULE
4er7_AW3_1_INTS_M
   91     0     9     0     0
SMALL
NO_CHARGES


@<TRIPOS>ATOM
      1 N          13.9065   59.1285   -9.5420 N.am      2 SEC2        0.0000 
      2 N          15.0940   60.1570  -10.0080 N.am      8 SEL2        0.0000 
      3 N          12.7190   58.1000   -9.0760 N.am      5 SEP2        0.0000 
      4 CA         17.5845   60.0630   -8.0220 C.3       3 GLC5        0.0000 
      5 CA         16.3400   59.5360   -9.7880 C.3       9 GLL5        0.0000 
      6 CA         18.8290   60.5900   -6.2560 C.3       6 GLP5        0.0000 
      7 CA         17.9205   58.3995   -9.6585 C.3       3 GLC5        0.0000 
      8 CA         19.5010   57.2630   -9.5290 C.3       6 GLP5        0.0000 
      9 CA         16.6540   59.3415  -11.5005 C.3       3 GLC5        0.0000 
     10 CA         16.9680   59.1470  -13.2130 C.3       6 GLP5        0.0000 
     11 CA         14.7575   58.4595  -10.5800 C.3       3 GLC5        0.0000 
     12 CA         13.1750   57.3830  -11.3720 C.3       6 GLP5        0.0000 
     13 N          18.0645   59.2700  -10.6375 N.am      2 SEC2        0.0000 
     14 N          17.4500   60.3400   -9.6390 N.am      8 SEL2        0.0000 
     15 N          18.6790   58.2000  -11.6360 N.am      5 SEP2        0.0000 
     16 CA         18.0730   61.1295   -7.9745 C.3       3 GLC5        0.0000 
     17 CA         17.3170   61.6690   -9.6930 C.3       9 GLL5        0.0000 
     18 CA         17.3595   61.1470  -11.4960 C.3       3 GLC5        0.0000 
     19 CA         17.4020   60.6250  -13.2990 C.3       6 GLP5        0.0000 
     20 CA         14.5790   63.8010   -8.5140 C.3       3 GLC5        0.0000 
     21 CA         15.0070   64.9470  -10.1130 C.3       9 GLL5        0.0000 
     22 CA         14.1510   62.6550   -6.9150 C.3       6 GLP5        0.0000 
     23 CA         13.5750   65.8055   -8.9775 C.3       3 GLC5        0.0000 
     24 CA         12.1430   66.6640   -7.8420 C.3       6 GLP5        0.0000 
     25 CA         24.7130   66.6865    5.4565 C.3       3 GLC5        0.0000 
     26 CA         22.9580   66.5350    4.5390 C.3       9 GLL5        0.0000 
     27 CA         26.4680   66.8380    6.3740 C.3       6 GLP5        0.0000 
     28 CA         22.9260   68.3130    5.8350 C.3       3 GLC5        0.0000 
     29 CA         22.8940   70.0910    7.1310 C.3       6 GLP5        0.0000 
     30 CA         19.4720   65.8325    5.5670 C.3       3 GLC5        0.0000 
     31 CA         20.5150   66.5100    3.9480 C.3       9 GLL5        0.0000 
     32 CA         18.4290   65.1550    7.1860 C.3       6 GLP5        0.0000 
     33 CA         18.7170   66.8600    3.6305 C.3       3 GLC5        0.0000 
     34 CA         16.9190   67.2100    3.3130 C.3       6 GLP5        0.0000 
     35 CA         19.7275   68.3900    3.1525 C.3       3 GLC5        0.0000 
     36 CA         18.9400   70.2700    2.3570 C.3       6 GLP5        0.0000 
     37 CA         20.5030   67.9395    5.4305 C.3       3 GLC5        0.0000 
     38 CA         20.4910   69.3690    6.9130 C.3       6 GLP5        0.0000 
     39 CA         21.8785   64.3980    7.0515 C.3       3 GLC5        0.0000 
     40 CA         21.5810   64.6400    5.2060 C.3       9 GLL5        0.0000 
     41 CA         22.1760   64.1560    8.8970 C.3       6 GLP5        0.0000 
     42 CA         21.2750   62.6510    4.9360 C.3       3 GLC5        0.0000 
     43 CA         20.9690   60.6620    4.6660 C.3       6 GLP5        0.0000 
     44 CA         20.0050   64.8975    6.1960 C.3       3 GLC5        0.0000 
     45 O          12.9645   61.0400  -10.8060 O.2       1 ALC1        0.0000 
     46 O          13.9050   62.1550  -10.2690 O.2       7 ALL1        0.0000 
     47 O          12.0240   59.9250  -11.3430 O.2       4 ALP1        0.0000 
     48 N          23.8100   65.4110   -1.5275 N.am      2 SEC2        0.0000 
     49 N          24.2420   63.9470   -1.6020 N.am      8 SEL2        0.0000 
     50 N          23.3780   66.8750   -1.4530 N.am      5 SEP2        0.0000 
     51 O          22.2490   61.0265   -9.6215 O.2       1 ALC1        0.0000 
     52 O          22.6600   62.1100   -9.8870 O.2       7 ALL1        0.0000 
     53 O          21.8380   59.9430   -9.3560 O.2       4 ALP1        0.0000 
     54 O          20.7915   61.1615  -11.4415 O.2       1 ALC1        0.0000 
     55 O          20.6670   62.4830  -11.5200 O.2       7 ALL1        0.0000 
     56 O          20.9160   59.8400  -11.3630 O.2       4 ALP1        0.0000 
     57 CA         20.3910   65.3130    0.5255 C.3       3 GLC5        0.0000 
     58 CA         21.0690   64.1710    2.3240 C.3       9 GLL5        0.0000 
     59 CA         19.7130   66.4550   -1.2730 C.3       6 GLP5        0.0000 
     60 CA         22.0170   65.1110   -3.2400 C.3       3 GLC5        0.0000 
     61 CA         22.9020   64.1210   -4.7460 C.3       9 GLL5        0.0000 
     62 CA         21.1320   66.1010   -1.7340 C.3       6 GLP5        0.0000 
     63 CA         23.1050   60.4315   -4.4320 C.3       3 GLC5        0.0000 
     64 CA         24.3140   62.1940   -3.8160 C.3       9 GLL5        0.0000 
     65 CA         21.8960   58.6690   -5.0480 C.3       6 GLP5        0.0000 
     66 CA         26.1160   61.0120   -3.6755 C.3       3 GLC5        0.0000 
     67 CA         27.9180   59.8300   -3.5350 C.3       6 GLP5        0.0000 
     68 O          22.7285   60.7250   -2.2310 O.2       1 ALC1        0.0000 
     69 O          23.4650   62.1000   -2.6250 O.2       7 ALL1        0.0000 
     70 O          21.9920   59.3500   -1.8370 O.2       4 ALP1        0.0000 
     71 O          21.4920   61.5670   -0.7400 O.2       1 ALC1        0.0000 
     72 O          22.6360   62.6740   -0.5860 O.2       7 ALL1        0.0000 
     73 O          20.3480   60.4600   -0.8940 O.2       4 ALP1        0.0000 
     74 CA         20.1320   61.8265   -7.1575 C.3       3 GLC5        0.0000 
     75 CA         21.4350   63.0630   -8.0590 C.3       9 GLL5        0.0000 
     76 CA         19.2440   61.5280   -7.7850 C.3       3 GLC5        0.0000 
     77 CA         19.6590   62.4660   -9.3140 C.3       9 GLL5        0.0000 
     78 CA         24.5407   63.3963    3.0628 C.3       3 GLC5        0.0000 
     79 CA         23.5660   64.1820    1.1000 C.3       9 GLL5        0.0000 
     80 CA         25.6240   62.2380    4.4410 C.3       6 GLP5        0.0000 
     81 CA         24.2067   62.3145    0.6028 C.3       3 GLC5        0.0000 
     82 CA         25.3660   60.8220    0.3910 C.3       6 GLP5        0.0000 
     83 CA         20.1560   62.4008    2.3495 C.3       3 GLC5        0.0000 
     84 CA         21.2890   63.4360    1.1680 C.3       9 GLL5        0.0000 
     85 CA         19.1330   60.9980    2.9530 C.3       6 GLP5        0.0000 
     86 CA         19.2550   63.7998    0.8175 C.3       3 GLC5        0.0000 
     87 CA         17.3310   63.7960   -0.1110 C.3       6 GLP5        0.0000 
     88 CA         21.6501   64.8613   -0.3714 C.3       3 GLC5        0.0000 
     89 CA         16.1043   62.1365  -11.8671 C.3       3 GLC5        0.0000 
     90 CA         16.3250   63.5670   -9.8830 C.3       9 GLL5        0.0000 
     91 CA         16.2550   61.5520  -13.8020 C.3       6 GLP5        0.0000 
@<TRIPOS>BOND
@<TRIPOS>SUBSTRUCTURE
     1 ALC1       45 GROUP        1 X    ALC  0     ROOT ALC X 1
     2 SEC2        1 GROUP        1 X    SEC  0     **** SEC X 2
     3 GLC5        4 GROUP        1 X    GLC  0     **** GLC X 6
     4 ALP1       47 GROUP        1 Y    ALP  0     ROOT ALP Y 8
     5 SEP2        3 GROUP        1 Y    SEP  0     **** SEP Y 9
     6 GLP5        6 GROUP        1 Y    GLP  0     **** GLP Y 13
     7 ALL1       46 GROUP        1 Z    ALL  0     ROOT ALL Z 15
     8 SEL2        2 GROUP        1 Z    SEL  0     **** SEL Z 16
     9 GLL5        5 GROUP        1 Z    GLL  0     **** GLL Z 20
@<TRIPOS>SET

