#    Name: 4er7_AW3_1_ligand
#    Modification time : Mon Mar 24 18:34:43 2014

@<TRIPOS>MOLECULE
4er7_AW3_1_ligand
   70    73     1     0     0
SMALL
NO_CHARGES


@<TRIPOS>ATOM
      1 N1         15.0940   60.1570  -10.0080 N.ar      1 AW3501      0.0000 
      2 C2         16.3400   59.5360   -9.7880 C.ar      1 AW3501      0.0000 
      3 N3         17.4500   60.3400   -9.6390 N.ar      1 AW3501      0.0000 
      4 C4         17.3170   61.6690   -9.6930 C.ar      1 AW3501      0.0000 
      5 C5         16.1250   62.2480   -9.8990 C.ar      1 AW3501      0.0000 
      6 C6         15.0390   61.5020  -10.0640 C.ar      1 AW3501      0.0000 
      7 BRH        15.0070   64.9470  -10.1130 Br        1 AW3501      0.0000 
      8 CAA        22.9580   66.5350    4.5390 C.3       1 AW3501      0.0000 
      9 CAB        20.5150   66.5100    3.9480 C.3       1 AW3501      0.0000 
     10 CAC        21.5810   64.6400    5.2060 C.3       1 AW3501      0.0000 
     11 NAD        13.9050   62.1550  -10.2690 N.pl3     1 AW3501      0.0000 
     12 OAE        24.2420   63.9470   -1.6020 O.2       1 AW3501      0.0000 
     13 OAF        22.6600   62.1100   -9.8870 O.3       1 AW3501      0.0000 
     14 OAG        20.6670   62.4830  -11.5200 O.3       1 AW3501      0.0000 
     15 CAJ        23.5660   64.1820    1.1000 C.ar      1 AW3501      0.0000 
     16 CAK        21.2890   63.4360    1.1680 C.ar      1 AW3501      0.0000 
     17 CAL        23.3490   64.9270    2.2690 C.ar      1 AW3501      0.0000 
     18 CAM        21.0690   64.1710    2.3240 C.ar      1 AW3501      0.0000 
     19 CAN        17.6050   63.8170   -9.6860 C.2       1 AW3501      0.0000 
     20 CAO        24.3200   63.6100   -4.4680 C.3       1 AW3501      0.0000 
     21 CAP        22.9020   64.1210   -4.7460 C.3       1 AW3501      0.0000 
     22 CAQ        24.3140   62.1940   -3.8160 C.3       1 AW3501      0.0000 
     23 CAR        21.9950   64.1140   -7.0670 C.3       1 AW3501      0.0000 
     24 NAU        22.2890   63.3610   -5.8250 N.4       1 AW3501      0.0000 
     25 NAV        23.4650   62.1000   -2.6250 N.am      1 AW3501      0.0000 
     26 NAW        22.6360   62.6740   -0.5860 N.am      1 AW3501      0.0000 
     27 OAX        19.9900   63.0910   -8.0720 O.3       1 AW3501      0.0000 
     28 CAY        23.4920   62.9630   -1.6000 C.2       1 AW3501      0.0000 
     29 CBA        22.5290   63.4320    0.5290 C.ar      1 AW3501      0.0000 
     30 CBB        16.3250   63.5670   -9.8830 C.2       1 AW3501      0.0000 
     31 CBC        22.0890   64.9340    2.8970 C.ar      1 AW3501      0.0000 
     32 CBF        21.8770   63.2560   -9.5100 C.3       1 AW3501      0.0000 
     33 CBG        20.5560   63.2270  -10.2850 C.3       1 AW3501      0.0000 
     34 CBH        21.4350   63.0630   -8.0590 C.3       1 AW3501      0.0000 
     35 CBI        19.6590   62.4660   -9.3140 C.3       1 AW3501      0.0000 
     36 NBJ        18.2200   62.6400   -9.5710 N.pl3     1 AW3501      0.0000 
     37 CBK        21.8130   65.6460    4.0990 C.3       1 AW3501      0.0000 
     38 H          16.4033   58.5247   -9.7429 H         1 AW3501      0.0000 
     39 H          13.8365   63.0602   -9.8496 H         1 AW3501      0.0000 
     40 H          13.2200   61.6836  -10.8246 H         1 AW3501      0.0000 
     41 H          24.4952   64.1868    0.6585 H         1 AW3501      0.0000 
     42 H          20.5130   62.8736    0.7657 H         1 AW3501      0.0000 
     43 H          24.1195   65.4761    2.6742 H         1 AW3501      0.0000 
     44 H          20.1360   64.1564    2.7718 H         1 AW3501      0.0000 
     45 H          18.0255   64.6855   -9.6336 H         1 AW3501      0.0000 
     46 H          24.8297   64.2986   -3.7940 H         1 AW3501      0.0000 
     47 H          24.8781   63.5575   -5.4029 H         1 AW3501      0.0000 
     48 H          22.9691   65.1842   -5.0008 H         1 AW3501      0.0000 
     49 H          22.3222   64.0310   -3.8211 H         1 AW3501      0.0000 
     50 H          25.3619   61.9407   -3.5743 H         1 AW3501      0.0000 
     51 H          23.9864   61.4783   -4.5912 H         1 AW3501      0.0000 
     52 H          22.8851   64.5333   -7.4852 H         1 AW3501      0.0000 
     53 H          21.2437   64.8563   -6.9009 H         1 AW3501      0.0000 
     54 H          22.8008   61.2754   -2.6215 H         1 AW3501      0.0000 
     55 H          22.0230   61.8121   -0.6750 H         1 AW3501      0.0000 
     56 H          22.3399   64.1612   -9.6236 H         1 AW3501      0.0000 
     57 H          20.1944   64.1973  -10.3874 H         1 AW3501      0.0000 
     58 H          21.7711   62.0772   -7.7384 H         1 AW3501      0.0000 
     59 H          19.9514   61.4514   -9.3074 H         1 AW3501      0.0000 
     60 H          23.8075   66.0191    4.6494 H         1 AW3501      0.0000 
     61 H          23.1402   67.2613    3.8762 H         1 AW3501      0.0000 
     62 H          22.7684   66.9784    5.4150 H         1 AW3501      0.0000 
     63 H          20.2592   66.9495    4.8090 H         1 AW3501      0.0000 
     64 H          20.6293   67.2367    3.2706 H         1 AW3501      0.0000 
     65 H          19.7334   65.9583    3.6570 H         1 AW3501      0.0000 
     66 H          22.3918   64.0795    5.3744 H         1 AW3501      0.0000 
     67 H          21.3483   65.0859    6.0703 H         1 AW3501      0.0000 
     68 H          20.8321   64.0141    4.9881 H         1 AW3501      0.0000 
     69 H          22.4595   61.4197   -9.1918 H         1 AW3501      0.0000 
     70 H          20.7269   61.5248  -11.2403 H         1 AW3501      0.0000 
@<TRIPOS>BOND
     1    2    1 ar   
     2    6    1 ar   
     3    3    2 ar   
     4   38    2 1    
     5    4    3 ar   
     6    5    4 ar   
     7   36    4 1    
     8    6    5 ar   
     9   30    5 1    
    10   11    6 1    
    11   30    7 1    
    12   37    8 1    
    13   60    8 1    
    14   61    8 1    
    15   62    8 1    
    16   37    9 1    
    17   63    9 1    
    18   64    9 1    
    19   65    9 1    
    20   37   10 1    
    21   66   10 1    
    22   67   10 1    
    23   68   10 1    
    24   39   11 1    
    25   40   11 1    
    26   28   12 2    
    27   32   13 1    
    28   69   13 1    
    29   33   14 1    
    30   70   14 1    
    31   17   15 ar   
    32   29   15 ar   
    33   41   15 1    
    34   18   16 ar   
    35   29   16 ar   
    36   42   16 1    
    37   31   17 ar   
    38   43   17 1    
    39   31   18 ar   
    40   44   18 1    
    41   30   19 2    
    42   36   19 1    
    43   45   19 1    
    44   21   20 1    
    45   22   20 1    
    46   46   20 1    
    47   47   20 1    
    48   24   21 1    
    49   48   21 1    
    50   49   21 1    
    51   25   22 1    
    52   50   22 1    
    53   51   22 1    
    54   24   23 1    
    55   34   23 1    
    56   52   23 1    
    57   53   23 1    
    58   28   25 am   
    59   54   25 1    
    60   28   26 am   
    61   29   26 1    
    62   55   26 1    
    63   34   27 1    
    64   35   27 1    
    65   37   31 1    
    66   33   32 1    
    67   34   32 1    
    68   56   32 1    
    69   35   33 1    
    70   57   33 1    
    71   58   34 1    
    72   36   35 1    
    73   59   35 1    
@<TRIPOS>SUBSTRUCTURE
     1 AW3501      1 GROUP   
@<TRIPOS>SET

