#    Name: 3lc4_LC4_1_INTS_M
#    Modification time : Mon Mar 24 21:25:02 2014

@<TRIPOS>MOLECULE
3lc4_LC4_1_INTS_M
   65     0     6     0     0
SMALL
NO_CHARGES


@<TRIPOS>ATOM
      1 N           7.9340  -13.7615   16.7725 N.am      1 SEC2        0.0000 
      2 N           7.3400  -13.3160   17.6490 N.am      5 SEL2        0.0000 
      3 N           8.5280  -14.2070   15.8960 N.am      3 SEP2        0.0000 
      4 CA          3.4670  -11.5450   18.9215 C.3       2 GLC5        0.0000 
      5 CA          5.6580  -11.7930   18.5240 C.3       6 GLL5        0.0000 
      6 CA          1.2760  -11.2970   19.3190 C.3       4 GLP5        0.0000 
      7 CA          4.6765  -13.1895   18.8825 C.3       2 GLC5        0.0000 
      8 CA          3.6950  -14.5860   19.2410 C.3       4 GLP5        0.0000 
      9 CA          4.5210  -11.8925   20.3815 C.3       2 GLC5        0.0000 
     10 CA          5.8340  -10.5730   19.4390 C.3       6 GLL5        0.0000 
     11 CA          3.2080  -13.2120   21.3240 C.3       4 GLP5        0.0000 
     12 CA          7.7640   -9.3065   17.8035 C.3       2 GLC5        0.0000 
     13 CA          6.0960   -9.2990   18.6350 C.3       6 GLL5        0.0000 
     14 CA          9.4320   -9.3140   16.9720 C.3       4 GLP5        0.0000 
     15 CA          3.1395   -9.1390   19.0775 C.3       2 GLC5        0.0000 
     16 CA          4.9140   -8.3290   18.5450 C.3       6 GLL5        0.0000 
     17 CA          1.3650   -9.9490   19.6100 C.3       4 GLP5        0.0000 
     18 CA          4.3035   -9.1565   16.9790 C.3       2 GLC5        0.0000 
     19 CA          3.6930   -9.9840   15.4130 C.3       4 GLP5        0.0000 
     20 CA          7.3760   -7.4495   17.4515 C.3       2 GLC5        0.0000 
     21 CA          5.3680   -6.9700   17.9960 C.3       6 GLL5        0.0000 
     22 CA          9.3840   -7.9290   16.9070 C.3       4 GLP5        0.0000 
     23 CA          6.7200   -5.5705   18.3735 C.3       2 GLC5        0.0000 
     24 CA          8.0720   -4.1710   18.7510 C.3       4 GLP5        0.0000 
     25 CA          3.9075   -4.2365   17.9155 C.3       2 GLC5        0.0000 
     26 CA          4.3600   -6.2410   17.1030 C.3       6 GLL5        0.0000 
     27 CA          3.4550   -2.2320   18.7280 C.3       4 GLP5        0.0000 
     28 CA          6.5405   -4.6420   17.5170 C.3       2 GLC5        0.0000 
     29 CA          5.0090   -5.1130   16.2830 C.3       6 GLL5        0.0000 
     30 CA          2.1245   -4.3055   16.3825 C.3       2 GLC5        0.0000 
     31 CA          4.0530   -4.3830   15.3230 C.3       6 GLL5        0.0000 
     32 CA          0.1960   -4.2280   17.4420 C.3       4 GLP5        0.0000 
     33 CA          5.2445   -1.8755   10.6655 C.3       2 GLC5        0.0000 
     34 CA          5.3360   -3.5650   11.7590 C.3       6 GLL5        0.0000 
     35 CA          5.1530   -0.1860    9.5720 C.3       4 GLP5        0.0000 
     36 CA          3.5165   -7.8720   10.0535 C.3       2 GLC5        0.0000 
     37 CA          4.6570   -6.2960    9.4500 C.3       6 GLL5        0.0000 
     38 CA          2.3760   -9.4480   10.6570 C.3       4 GLP5        0.0000 
     39 CA          7.2185  -11.7945   20.3308 C.3       2 GLC5        0.0000 
     40 CA          8.6910  -12.4060   21.6800 C.3       4 GLP5        0.0000 
     41 CA          5.3355  -10.5625   17.1461 C.3       2 GLC5        0.0000 
     42 CA          4.7500  -10.8840   15.4840 C.3       4 GLP5        0.0000 
     43 CA          5.8018   -7.0665   19.8080 C.3       2 GLC5        0.0000 
     44 CA          6.1670   -6.2410   21.3230 C.3       4 GLP5        0.0000 
     45 CA          4.3755   -7.6963   16.1382 C.3       2 GLC5        0.0000 
     46 CA          3.8870   -8.7870   14.7270 C.3       4 GLP5        0.0000 
     47 CA          4.6495   -3.0825   16.2975 C.3       2 GLC5        0.0000 
     48 CA          4.7680   -1.4170   16.7920 C.3       4 GLP5        0.0000 
     49 CA          6.3530   -4.2310   15.1910 C.3       2 GLC5        0.0000 
     50 CA          8.1750   -3.7140   14.5790 C.3       4 GLP5        0.0000 
     51 CA          4.5983   -2.4458   14.4770 C.3       2 GLC5        0.0000 
     52 CA          4.3480   -4.6950   13.8520 C.3       6 GLL5        0.0000 
     53 CA          4.8800   -0.7920   15.5840 C.3       4 GLP5        0.0000 
     54 CA          4.7717   -6.6152   14.4597 C.3       2 GLC5        0.0000 
     55 CA          5.1040   -8.5090   14.0920 C.3       4 GLP5        0.0000 
     56 CA          3.0266   -3.9581   11.8603 C.3       2 GLC5        0.0000 
     57 CA          1.2270   -4.0840   11.1560 C.3       4 GLP5        0.0000 
     58 CA          6.5006   -3.7731   13.5717 C.3       2 GLC5        0.0000 
     59 CA          4.2850   -3.5040   12.8880 C.3       6 GLL5        0.0000 
     60 CA          5.7155   -8.0608   10.2000 C.3       2 GLC5        0.0000 
     61 CA          5.1190   -5.8110   10.6460 C.3       6 GLL5        0.0000 
     62 CA          6.5430  -10.0680   10.3520 C.3       4 GLP5        0.0000 
     63 CA          3.0575   -5.0687   10.6020 C.3       2 GLC5        0.0000 
     64 CA          6.7950   -5.3562    9.3410 C.3       2 GLC5        0.0000 
     65 CA          8.7020   -4.6590    8.6340 C.3       4 GLP5        0.0000 
@<TRIPOS>BOND
@<TRIPOS>SUBSTRUCTURE
     1 SEC2        1 GROUP        1 X    SEC  0     ROOT SEC X 2
     2 GLC5        4 GROUP        1 X    GLC  0     **** GLC X 6
     3 SEP2        3 GROUP        1 Y    SEP  0     ROOT SEP Y 9
     4 GLP5        6 GROUP        1 Y    GLP  0     **** GLP Y 13
     5 SEL2        2 GROUP        1 Z    SEL  0     ROOT SEL Z 16
     6 GLL5        5 GROUP        1 Z    GLL  0     **** GLL Z 20
@<TRIPOS>SET

