#    Name: 3lc4_LC4_1_ligand
#    Modification time : Mon Mar 24 21:25:02 2014

@<TRIPOS>MOLECULE
3lc4_LC4_1_ligand
   44    44     1     0     0
SMALL
NO_CHARGES


@<TRIPOS>ATOM
      1 O1          6.8120  -13.5830   19.7110 O.co2     1 LC4501      0.0000 
      2 C2          6.6680  -12.9540   18.6430 C.2       1 LC4501      0.0000 
      3 O17         7.3400  -13.3160   17.6490 O.co2     1 LC4501      0.0000 
      4 C3          5.6580  -11.7930   18.5240 C.3       1 LC4501      0.0000 
      5 C4          5.8340  -10.5730   19.4390 C.3       1 LC4501      0.0000 
      6 C5          6.0960   -9.2990   18.6350 C.3       1 LC4501      0.0000 
      7 C6          4.9140   -8.3290   18.5450 C.3       1 LC4501      0.0000 
      8 C7          5.3680   -6.9700   17.9960 C.3       1 LC4501      0.0000 
      9 C18         4.3600   -6.2410   17.1030 C.3       1 LC4501      0.0000 
     10 C19         5.0090   -5.1130   16.2830 C.3       1 LC4501      0.0000 
     11 C8          4.0530   -4.3830   15.3230 C.3       1 LC4501      0.0000 
     12 C9          4.3480   -4.6950   13.8520 C.3       1 LC4501      0.0000 
     13 C10         4.2850   -3.5040   12.8880 C.3       1 LC4501      0.0000 
     14 C11         5.3360   -3.5650   11.7590 C.3       1 LC4501      0.0000 
     15 N12         4.9750   -4.4730   10.6510 N.pl3     1 LC4501      0.0000 
     16 C13         5.1190   -5.8110   10.6460 C.2       1 LC4501      0.0000 
     17 C14         4.6570   -6.2960    9.4500 C.2       1 LC4501      0.0000 
     18 N15         4.2430   -5.2310    8.7450 N.2       1 LC4501      0.0000 
     19 C16         4.4440   -4.1130    9.4780 C.2       1 LC4501      0.0000 
     20 H           4.6296  -12.2088   18.6826 H         1 LC4501      0.0000 
     21 H           5.6570  -11.4404   17.4604 H         1 LC4501      0.0000 
     22 H           6.6729  -10.7521   20.1134 H         1 LC4501      0.0000 
     23 H           4.9299  -10.4426   20.0359 H         1 LC4501      0.0000 
     24 H           6.4024   -9.5813   17.6089 H         1 LC4501      0.0000 
     25 H           6.9588   -8.7667   19.0809 H         1 LC4501      0.0000 
     26 H           4.4876   -8.1897   19.5352 H         1 LC4501      0.0000 
     27 H           4.1569   -8.7457   17.8855 H         1 LC4501      0.0000 
     28 H           6.3089   -7.1151   17.4259 H         1 LC4501      0.0000 
     29 H           5.6274   -6.3119   18.8509 H         1 LC4501      0.0000 
     30 H           3.5687   -5.8151   17.7275 H         1 LC4501      0.0000 
     31 H           3.9021   -6.9599   16.4167 H         1 LC4501      0.0000 
     32 H           5.8446   -5.5346   15.6985 H         1 LC4501      0.0000 
     33 H           5.4455   -4.3751   16.9776 H         1 LC4501      0.0000 
     34 H           4.1420   -3.3047   15.4862 H         1 LC4501      0.0000 
     35 H           3.0251   -4.6787   15.5537 H         1 LC4501      0.0000 
     36 H           3.6347   -5.4710   13.5035 H         1 LC4501      0.0000 
     37 H           5.3560   -5.1549   13.7817 H         1 LC4501      0.0000 
     38 H           4.4316   -2.5747   13.4553 H         1 LC4501      0.0000 
     39 H           3.2848   -3.4607   12.4356 H         1 LC4501      0.0000 
     40 H           6.2981   -3.8728   12.2107 H         1 LC4501      0.0000 
     41 H           5.4838   -2.5358   11.3804 H         1 LC4501      0.0000 
     42 H           5.4837   -6.3506   11.3560 H         1 LC4501      0.0000 
     43 H           4.6403   -7.2087    9.1879 H         1 LC4501      0.0000 
     44 H           4.2367   -3.2128    9.1950 H         1 LC4501      0.0000 
@<TRIPOS>BOND
     1    2    1 ar   
     2    3    2 ar   
     3    4    2 1    
     4    5    4 1    
     5   20    4 1    
     6   21    4 1    
     7    6    5 1    
     8   22    5 1    
     9   23    5 1    
    10    7    6 1    
    11   24    6 1    
    12   25    6 1    
    13    8    7 1    
    14   26    7 1    
    15   27    7 1    
    16    9    8 1    
    17   28    8 1    
    18   29    8 1    
    19   10    9 1    
    20   30    9 1    
    21   31    9 1    
    22   11   10 1    
    23   32   10 1    
    24   33   10 1    
    25   12   11 1    
    26   34   11 1    
    27   35   11 1    
    28   13   12 1    
    29   36   12 1    
    30   37   12 1    
    31   14   13 1    
    32   38   13 1    
    33   39   13 1    
    34   15   14 1    
    35   40   14 1    
    36   41   14 1    
    37   16   15 1    
    38   19   15 1    
    39   17   16 2    
    40   42   16 1    
    41   18   17 1    
    42   43   17 1    
    43   19   18 2    
    44   44   19 1    
@<TRIPOS>SUBSTRUCTURE
     1 LC4501      1 GROUP   
@<TRIPOS>SET

