#    Name: 2w05_FRT_1_INTS_M
#    Modification time : Tue Mar 25 03:25:46 2014

@<TRIPOS>MOLECULE
2w05_FRT_1_INTS_M
   71     0     9     0     0
SMALL
NO_CHARGES


@<TRIPOS>ATOM
      1 CA          0.7415   28.4055    5.2935 C.3       3 GLC5        0.0000 
      2 CA          1.2800   29.7190    6.7870 C.3       9 GLL5        0.0000 
      3 CA          0.2030   27.0920    3.8000 C.3       6 GLP5        0.0000 
      4 CA         -0.2455   30.2265    5.6910 C.3       3 GLC5        0.0000 
      5 CA         -1.7710   30.7340    4.5950 C.3       6 GLP5        0.0000 
      6 CA          1.8015   30.4060    8.3310 C.3       3 GLC5        0.0000 
      7 CA          2.3230   31.0930    9.8750 C.3       6 GLP5        0.0000 
      8 N           2.4100   31.8315    5.8835 N.am      2 SEC2        0.0000 
      9 N           1.2800   31.0390    6.5910 N.am      8 SEL2        0.0000 
     10 N           3.5400   32.6240    5.1760 N.am      5 SEP2        0.0000 
     11 CA          1.0385   32.6205    5.4635 C.3       3 GLC5        0.0000 
     12 CA          0.3220   31.7720    7.1860 C.3       9 GLL5        0.0000 
     13 CA          1.7550   33.4690    3.7410 C.3       6 GLP5        0.0000 
     14 CA          1.8865   33.0960    7.7280 C.3       3 GLC5        0.0000 
     15 CA          3.4510   34.4200    8.2700 C.3       6 GLP5        0.0000 
     16 CA          4.7150   26.1160    9.9105 C.3       3 GLC5        0.0000 
     17 CA          3.7200   25.9270    8.1180 C.3       9 GLL5        0.0000 
     18 CA          5.7100   26.3050   11.7030 C.3       6 GLP5        0.0000 
     19 CA          5.6735   28.5455    5.0950 C.3       3 GLC5        0.0000 
     20 CA          4.0420   27.2530    5.6210 C.3       9 GLL5        0.0000 
     21 CA          7.3050   29.8380    4.5690 C.3       6 GLP5        0.0000 
     22 O           4.9675   23.5695    9.9185 O.2       1 ALC1        0.0000 
     23 O           4.7450   23.0880    8.6240 O.2       7 ALL1        0.0000 
     24 O           5.1900   24.0510   11.2130 O.2       4 ALP1        0.0000 
     25 CA          0.3775   30.0600    9.4350 C.3       3 GLC5        0.0000 
     26 CA         -1.5680   29.0270    8.9950 C.3       9 GLL5        0.0000 
     27 CA         -3.5815   27.5860    8.4985 C.3       3 GLC5        0.0000 
     28 CA         -2.9270   29.4440    9.1830 C.3       9 GLL5        0.0000 
     29 CA         -4.2360   25.7280    7.8140 C.3       6 GLP5        0.0000 
     30 CA         -5.0635   28.8620    9.3990 C.3       3 GLC5        0.0000 
     31 CA         -7.2000   28.2800    9.6150 C.3       6 GLP5        0.0000 
     32 CA          1.0940   27.4800   13.1930 C.3       3 GLC5        0.0000 
     33 CA          0.4320   26.9880   11.3740 C.3       9 GLL5        0.0000 
     34 CA          1.7560   27.9720   15.0120 C.3       6 GLP5        0.0000 
     35 CA          0.3885   25.2470    7.5745 C.3       3 GLC5        0.0000 
     36 CA         -0.2660   25.5370    9.4020 C.3       9 GLL5        0.0000 
     37 CA          1.0430   24.9570    5.7470 C.3       6 GLP5        0.0000 
     38 CA         -0.5775   23.7400    8.4050 C.3       3 GLC5        0.0000 
     39 CA         -0.8890   21.9430    7.4080 C.3       6 GLP5        0.0000 
     40 CA         -2.2510   25.6325    8.6080 C.3       3 GLC5        0.0000 
     41 CA         -5.2140   26.9540   11.0255 C.3       3 GLC5        0.0000 
     42 CA         -3.1040   26.5640   11.2600 C.3       9 GLL5        0.0000 
     43 CA         -7.3240   27.3440   10.7910 C.3       6 GLP5        0.0000 
     44 CA         -3.2515   27.7925   12.9630 C.3       3 GLC5        0.0000 
     45 CA         -3.3990   29.0210   14.6660 C.3       6 GLP5        0.0000 
     46 N           7.1145   25.8075    9.1040 N.am      2 SEC2        0.0000 
     47 N           6.9850   24.5790    8.3040 N.am      8 SEL2        0.0000 
     48 N           7.2440   27.0360    9.9040 N.am      5 SEP2        0.0000 
     49 CA         -2.0295   28.0763    7.2520 C.3       3 GLC5        0.0000 
     50 CA         -0.6120   29.7420    8.1750 C.3       9 GLL5        0.0000 
     51 CA         -2.9690   26.7680    5.9190 C.3       6 GLP5        0.0000 
     52 CA         -0.9657   30.9252    6.1164 C.3       3 GLC5        0.0000 
     53 CA         -0.2435   33.1610    8.3850 C.3       3 GLC5        0.0000 
     54 CA         -0.3110   34.8460    9.1750 C.3       6 GLP5        0.0000 
     55 CA         -1.7785   32.6505    7.1505 C.3       3 GLC5        0.0000 
     56 CA         -3.3810   33.8250    6.7060 C.3       6 GLP5        0.0000 
     57 CA          1.0813   31.1047    8.7564 C.3       3 GLC5        0.0000 
     58 CA         -0.6740   31.1800    8.0040 C.3       9 GLL5        0.0000 
     59 CA          2.0190   26.1725    6.4642 C.3       3 GLC5        0.0000 
     60 CA          3.0700   27.7270    6.5550 C.3       9 GLL5        0.0000 
     61 CA          2.6197   25.3310    6.6967 C.3       3 GLC5        0.0000 
     62 CA          3.4882   27.8897    9.1759 C.3       3 GLC5        0.0000 
     63 CA          3.6190   29.1220   10.7020 C.3       6 GLP5        0.0000 
     64 CA          2.7438   25.8238    5.7607 C.3       3 GLC5        0.0000 
     65 CA          4.8470   26.1280    5.9280 C.3       9 GLL5        0.0000 
     66 CA          6.1710   27.1856    6.9016 C.3       3 GLC5        0.0000 
     67 CA          7.9410   27.8420    7.7170 C.3       6 GLP5        0.0000 
     68 CA         -3.5575   26.4280    9.2988 C.3       3 GLC5        0.0000 
     69 CA         -2.6540   27.6920   10.3070 C.3       9 GLL5        0.0000 
     70 CA          1.8990   28.0550   10.6740 C.3       3 GLC5        0.0000 
     71 CA         -0.0740   26.9880    9.9180 C.3       9 GLL5        0.0000 
@<TRIPOS>BOND
@<TRIPOS>SUBSTRUCTURE
     1 ALC1       22 GROUP        1 X    ALC  0     ROOT ALC X 1
     2 SEC2        8 GROUP        1 X    SEC  0     **** SEC X 2
     3 GLC5        1 GROUP        1 X    GLC  0     **** GLC X 6
     4 ALP1       24 GROUP        1 Y    ALP  0     ROOT ALP Y 8
     5 SEP2       10 GROUP        1 Y    SEP  0     **** SEP Y 9
     6 GLP5        3 GROUP        1 Y    GLP  0     **** GLP Y 13
     7 ALL1       23 GROUP        1 Z    ALL  0     ROOT ALL Z 15
     8 SEL2        9 GROUP        1 Z    SEL  0     **** SEL Z 16
     9 GLL5        2 GROUP        1 Z    GLL  0     **** GLL Z 20
@<TRIPOS>SET

