#    Name: 2w05_FRT_1_ligand
#    Modification time : Tue Mar 25 03:25:46 2014

@<TRIPOS>MOLECULE
2w05_FRT_1_ligand
   57    59     1     0     0
SMALL
NO_CHARGES


@<TRIPOS>ATOM
      1 C1         -0.6120   29.7420    8.1750 C.ar      1 FRT1299     0.0000 
      2 N2          0.3870   29.0570    7.5420 N.ar      1 FRT1299     0.0000 
      3 C3          1.2800   29.7190    6.7870 C.ar      1 FRT1299     0.0000 
      4 N4          1.2800   31.0390    6.5910 N.ar      1 FRT1299     0.0000 
      5 C5          0.3220   31.7720    7.1860 C.ar      1 FRT1299     0.0000 
      6 C6         -0.6740   31.1800    8.0040 C.ar      1 FRT1299     0.0000 
      7 N7          2.2870   28.8850    6.1710 N.pl3     1 FRT1299     0.0000 
      8 C8          3.0700   27.7270    6.5550 C.ar      1 FRT1299     0.0000 
      9 C9          2.9200   27.0490    7.8080 C.ar      1 FRT1299     0.0000 
     10 C10         3.7200   25.9270    8.1180 C.ar      1 FRT1299     0.0000 
     11 C11         4.6730   25.4830    7.1750 C.ar      1 FRT1299     0.0000 
     12 C12         4.8470   26.1280    5.9280 C.ar      1 FRT1299     0.0000 
     13 C13         4.0420   27.2530    5.6210 C.ar      1 FRT1299     0.0000 
     14 S14         5.6590   24.1120    7.5580 S.o2      1 FRT1299     0.0000 
     15 N15         4.7450   23.0880    8.6240 N.pl3     1 FRT1299     0.0000 
     16 C16         4.2800   21.8560    7.9530 C.3       1 FRT1299     0.0000 
     17 C17         3.4970   20.9690    8.9230 C.3       1 FRT1299     0.0000 
     18 O18         3.0660   19.7760    8.2400 O.3       1 FRT1299     0.0000 
     19 C19         2.3130   18.8540    9.0630 C.3       1 FRT1299     0.0000 
     20 C20        -1.5680   29.0270    8.9950 C.2       1 FRT1299     0.0000 
     21 N21        -1.3470   27.8240    9.7550 N.pl3     1 FRT1299     0.0000 
     22 C22        -2.6540   27.6920   10.3070 C.2       1 FRT1299     0.0000 
     23 N23        -3.6280   28.6070   10.0110 N.pl3     1 FRT1299     0.0000 
     24 C24        -2.9270   29.4440    9.1830 C.2       1 FRT1299     0.0000 
     25 C25        -0.0740   26.9880    9.9180 C.3       1 FRT1299     0.0000 
     26 C26         0.4320   26.9880   11.3740 C.3       1 FRT1299     0.0000 
     27 C27        -0.2660   25.5370    9.4020 C.3       1 FRT1299     0.0000 
     28 C28        -3.1040   26.5640   11.2600 C.3       1 FRT1299     0.0000 
     29 O29         6.0130   23.3090    6.2270 O.2       1 FRT1299     0.0000 
     30 O30         6.9850   24.5790    8.3040 O.2       1 FRT1299     0.0000 
     31 H           0.2834   32.8086    7.0616 H         1 FRT1299     0.0000 
     32 H          -1.3854   31.7120    8.4446 H         1 FRT1299     0.0000 
     33 H           2.5272   29.2223    5.1158 H         1 FRT1299     0.0000 
     34 H           2.2258   27.3868    8.4774 H         1 FRT1299     0.0000 
     35 H           3.6116   25.4472    9.0049 H         1 FRT1299     0.0000 
     36 H           5.5345   25.7924    5.2656 H         1 FRT1299     0.0000 
     37 H           4.1535   27.7326    4.7261 H         1 FRT1299     0.0000 
     38 H           4.6381   23.3892    9.4671 H         1 FRT1299     0.0000 
     39 H           5.1309   21.2833    7.5712 H         1 FRT1299     0.0000 
     40 H           3.6294   22.1023    7.1081 H         1 FRT1299     0.0000 
     41 H           2.6476   21.5466    9.2966 H         1 FRT1299     0.0000 
     42 H           4.1506   20.7343    9.7670 H         1 FRT1299     0.0000 
     43 H          -4.4903   28.6483   10.2840 H         1 FRT1299     0.0000 
     44 H          -3.2826   30.2429    8.7529 H         1 FRT1299     0.0000 
     45 H           0.7130   27.4472    9.2985 H         1 FRT1299     0.0000 
     46 H           2.8440   18.5399    9.8500 H         1 FRT1299     0.0000 
     47 H           1.4781   19.2723    9.4208 H         1 FRT1299     0.0000 
     48 H           2.0371   18.0400    8.5518 H         1 FRT1299     0.0000 
     49 H           1.2622   26.4404   11.4787 H         1 FRT1299     0.0000 
     50 H           0.6478   27.9111   11.6922 H         1 FRT1299     0.0000 
     51 H          -0.2482   26.6125   12.0036 H         1 FRT1299     0.0000 
     52 H           0.5657   24.9920    9.5081 H         1 FRT1299     0.0000 
     53 H          -0.9936   25.0605    9.8956 H         1 FRT1299     0.0000 
     54 H          -0.5080   25.5168    8.4319 H         1 FRT1299     0.0000 
     55 H          -3.0098   25.6621   10.8385 H         1 FRT1299     0.0000 
     56 H          -2.5646   26.5519   12.1020 H         1 FRT1299     0.0000 
     57 H          -4.0624   26.6639   11.5273 H         1 FRT1299     0.0000 
@<TRIPOS>BOND
     1    2    1 ar   
     2    6    1 ar   
     3   20    1 1    
     4    3    2 ar   
     5    4    3 ar   
     6    7    3 1    
     7    5    4 ar   
     8    6    5 ar   
     9   31    5 1    
    10   32    6 1    
    11    8    7 1    
    12   33    7 1    
    13    9    8 ar   
    14   13    8 ar   
    15   10    9 ar   
    16   34    9 1    
    17   11   10 ar   
    18   35   10 1    
    19   12   11 ar   
    20   14   11 1    
    21   13   12 ar   
    22   36   12 1    
    23   37   13 1    
    24   15   14 1    
    25   29   14 2    
    26   30   14 2    
    27   16   15 1    
    28   38   15 1    
    29   17   16 1    
    30   39   16 1    
    31   40   16 1    
    32   18   17 1    
    33   41   17 1    
    34   42   17 1    
    35   19   18 1    
    36   46   19 1    
    37   47   19 1    
    38   48   19 1    
    39   21   20 1    
    40   24   20 2    
    41   22   21 1    
    42   25   21 1    
    43   23   22 2    
    44   28   22 1    
    45   24   23 1    
    46   43   23 1    
    47   44   24 1    
    48   26   25 1    
    49   27   25 1    
    50   45   25 1    
    51   49   26 1    
    52   50   26 1    
    53   51   26 1    
    54   52   27 1    
    55   53   27 1    
    56   54   27 1    
    57   55   28 1    
    58   56   28 1    
    59   57   28 1    
@<TRIPOS>SUBSTRUCTURE
     1 FRT1299     1 GROUP   
@<TRIPOS>SET

