#    Name: 4hus_VIR_1_INTS_M
#    Modification time : Tue Mar 25 01:46:54 2014

@<TRIPOS>MOLECULE
4hus_VIR_1_INTS_M
   79     0     6     0     0
SMALL
NO_CHARGES


@<TRIPOS>ATOM
      1 CA         36.5605   20.8375   -4.3785 C.3       2 GLC5        0.0000 
      2 CA         36.3020   18.9530   -4.4830 C.3       6 GLL5        0.0000 
      3 CA         36.8190   22.7220   -4.2740 C.3       4 GLP5        0.0000 
      4 CA         35.4660   19.6005   -2.5395 C.3       2 GLC5        0.0000 
      5 CA         34.6300   20.2480   -0.5960 C.3       4 GLP5        0.0000 
      6 CA         35.5470   21.5120   -4.7785 C.3       2 GLC5        0.0000 
      7 CA         34.2750   20.3020   -5.2830 C.3       6 GLL5        0.0000 
      8 CA         34.8105   21.2255   -6.9250 C.3       2 GLC5        0.0000 
      9 CA         35.3460   22.1490   -8.5670 C.3       4 GLP5        0.0000 
     10 CA         32.4845   21.9815   -4.1275 C.3       2 GLC5        0.0000 
     11 CA         32.3330   19.7940   -3.9010 C.3       6 GLL5        0.0000 
     12 CA         32.6360   24.1690   -4.3540 C.3       4 GLP5        0.0000 
     13 CA         31.9260   21.1625   -2.2960 C.3       2 GLC5        0.0000 
     14 CA         31.5190   22.5310   -0.6910 C.3       4 GLP5        0.0000 
     15 CA         33.4815   20.0210   -2.2485 C.3       2 GLC5        0.0000 
     16 CA         33.3385   12.3020   -2.0260 C.3       2 GLC5        0.0000 
     17 CA         32.9350   13.4980   -0.4990 C.3       6 GLL5        0.0000 
     18 CA         33.7420   11.1060   -3.5530 C.3       4 GLP5        0.0000 
     19 CA         31.7365   16.9430   -6.6000 C.3       2 GLC5        0.0000 
     20 CA         30.9660   17.9260   -4.8370 C.3       6 GLL5        0.0000 
     21 CA         32.5070   15.9600   -8.3630 C.3       4 GLP5        0.0000 
     22 CA         29.7890   16.3345   -5.6595 C.3       2 GLC5        0.0000 
     23 CA         28.6120   14.7430   -6.4820 C.3       4 GLP5        0.0000 
     24 CA         31.3160   19.8745   -0.9455 C.3       2 GLC5        0.0000 
     25 CA         31.3720   18.1620   -2.2880 C.3       6 GLL5        0.0000 
     26 CA         31.2600   21.5870    0.3970 C.3       4 GLP5        0.0000 
     27 CA         33.0010   19.2050   -1.4420 C.3       2 GLC5        0.0000 
     28 CA         27.7825   18.0150   -1.1050 C.3       2 GLC5        0.0000 
     29 CA         29.7010   17.6750   -0.5140 C.3       6 GLL5        0.0000 
     30 CA         25.8640   18.3550   -1.6960 C.3       4 GLP5        0.0000 
     31 CA         30.4805   19.6310   -0.0585 C.3       2 GLC5        0.0000 
     32 CA         31.4795   13.0790   -3.0520 C.3       2 GLC5        0.0000 
     33 CA         32.9050   14.0950   -1.8960 C.3       6 GLL5        0.0000 
     34 CA         30.0540   12.0630   -4.2080 C.3       4 GLP5        0.0000 
     35 CA         32.6460   10.2670    2.0470 C.3       2 GLC5        0.0000 
     36 CA         31.3440   11.8800    2.1520 C.3       6 GLL5        0.0000 
     37 CA         33.9480    8.6540    1.9420 C.3       4 GLP5        0.0000 
     38 CA         30.7165   10.3875    0.9580 C.3       2 GLC5        0.0000 
     39 CA         30.0890    8.8950   -0.2360 C.3       4 GLP5        0.0000 
     40 CA         29.9810   10.3230    2.9845 C.3       2 GLC5        0.0000 
     41 CA         28.6180    8.7660    3.8170 C.3       4 GLP5        0.0000 
     42 CA         34.2090    9.4560    4.4640 C.3       2 GLC5        0.0000 
     43 CA         34.6570   11.3550    4.7630 C.3       6 GLL5        0.0000 
     44 CA         33.7610    7.5570    4.1650 C.3       4 GLP5        0.0000 
     45 CA         33.0240    9.5510    4.8200 C.3       2 GLC5        0.0000 
     46 CA         32.2870   11.5450    5.4750 C.3       6 GLL5        0.0000 
     47 CA         32.9595   13.3780    5.8580 C.3       2 GLC5        0.0000 
     48 CA         33.6320   15.2110    6.2410 C.3       4 GLP5        0.0000 
     49 N          31.8995   22.0225   -5.0695 N.am      1 SEC2        0.0000 
     50 N          32.0240   20.9440   -5.9550 N.am      5 SEL2        0.0000 
     51 N          31.7750   23.1010   -4.1840 N.am      3 SEP2        0.0000 
     52 N          31.3935   17.5905    2.6480 N.am      1 SEC2        0.0000 
     53 N          30.6850   16.9040    1.9030 N.am      5 SEL2        0.0000 
     54 N          32.1020   18.2770    3.3930 N.am      3 SEP2        0.0000 
     55 CA         36.2538   17.5690   -0.4665 C.3       2 GLC5        0.0000 
     56 CA         36.4150   16.4530   -1.8470 C.3       6 GLL5        0.0000 
     57 CA         35.4260   18.5970    1.0690 C.3       4 GLP5        0.0000 
     58 CA         33.5192   22.1793   -5.3487 C.3       2 GLC5        0.0000 
     59 CA         33.5000   24.1780   -5.4220 C.3       4 GLP5        0.0000 
     60 CA         29.4778   18.9465   -4.0760 C.3       2 GLC5        0.0000 
     61 CA         31.4930   18.7260   -3.6950 C.3       6 GLL5        0.0000 
     62 CA         27.7260   19.5670   -3.8860 C.3       4 GLP5        0.0000 
     63 CA         29.2372   18.7485   -3.0062 C.3       2 GLC5        0.0000 
     64 CA         30.1250   17.6980   -1.9650 C.3       6 GLL5        0.0000 
     65 CA         29.9510   15.3008    3.4642 C.3       2 GLC5        0.0000 
     66 CA         30.5610   14.5550    1.5360 C.3       6 GLL5        0.0000 
     67 CA         28.7950   16.1870    4.9780 C.3       4 GLP5        0.0000 
     68 CA         29.2410   13.7412    2.1018 C.3       2 GLC5        0.0000 
     69 CA         27.3750   13.0680    2.2530 C.3       4 GLP5        0.0000 
     70 CA         32.6612   14.4142    4.4785 C.3       2 GLC5        0.0000 
     71 CA         31.6530   14.2740    2.3650 C.3       6 GLL5        0.0000 
     72 CA         33.6290   13.4810   -3.0475 C.3       2 GLC5        0.0000 
     73 CA         33.5710   15.4050   -1.7020 C.3       6 GLL5        0.0000 
     74 CA         34.0200   12.2120   -4.2960 C.3       4 GLP5        0.0000 
     75 CA         29.4555   12.7443    2.4313 C.3       2 GLC5        0.0000 
     76 CA         33.5680   10.3987    2.9085 C.3       2 GLC5        0.0000 
     77 CA         33.1420   12.7640    3.4550 C.3       6 GLL5        0.0000 
     78 CA         33.7772   13.4801    5.2800 C.3       2 GLC5        0.0000 
     79 CA         33.2340   11.5230    4.2950 C.3       6 GLL5        0.0000 
@<TRIPOS>BOND
@<TRIPOS>SUBSTRUCTURE
     1 SEC2       49 GROUP        1 X    SEC  0     ROOT SEC X 2
     2 GLC5        1 GROUP        1 X    GLC  0     **** GLC X 6
     3 SEP2       51 GROUP        1 Y    SEP  0     ROOT SEP Y 9
     4 GLP5        3 GROUP        1 Y    GLP  0     **** GLP Y 13
     5 SEL2       50 GROUP        1 Z    SEL  0     ROOT SEL Z 16
     6 GLL5        2 GROUP        1 Z    GLL  0     **** GLL Z 20
@<TRIPOS>SET

