#    Name: 4hus_VIR_1_ligand
#    Modification time : Tue Mar 25 01:46:54 2014

@<TRIPOS>MOLECULE
4hus_VIR_1_ligand
   73    75     1     0     0
SMALL
NO_CHARGES


@<TRIPOS>ATOM
      1 C1         33.9820   14.0980    0.1860 C.2       1 VIR316      0.0000 
      2 C10        36.5590   17.9180   -3.4190 C.2       1 VIR316      0.0000 
      3 C12        37.7480   16.6290   -2.1570 C.2       1 VIR316      0.0000 
      4 C13        36.3020   18.9530   -4.4830 C.3       1 VIR316      0.0000 
      5 C14        34.9690   18.9540   -5.1800 C.2       1 VIR316      0.0000 
      6 C16        34.2750   20.3020   -5.2830 C.3       1 VIR316      0.0000 
      7 C17        32.8020   20.0590   -5.2680 C.3       1 VIR316      0.0000 
      8 C19        32.3330   19.7940   -3.9010 C.2       1 VIR316      0.0000 
      9 C2         32.9350   13.4980   -0.4990 C.2       1 VIR316      0.0000 
     10 C20        31.4930   18.7260   -3.6950 C.2       1 VIR316      0.0000 
     11 C21        30.9660   17.9260   -4.8370 C.3       1 VIR316      0.0000 
     12 C22        31.3720   18.1620   -2.2880 C.2       1 VIR316      0.0000 
     13 C23        30.1250   17.6980   -1.9650 C.2       1 VIR316      0.0000 
     14 C24        29.7010   17.6750   -0.5140 C.3       1 VIR316      0.0000 
     15 C26        30.3870   16.0030    1.1530 C.2       1 VIR316      0.0000 
     16 C28        30.5610   14.5550    1.5360 C.2       1 VIR316      0.0000 
     17 C29        31.6530   14.2740    2.3650 C.2       1 VIR316      0.0000 
     18 C3         32.9050   14.0950   -1.8960 C.3       1 VIR316      0.0000 
     19 C30        31.7280   12.9610    3.0670 C.3       1 VIR316      0.0000 
     20 C31        31.3440   11.8800    2.1520 C.3       1 VIR316      0.0000 
     21 C32        33.1420   12.7640    3.4550 C.3       1 VIR316      0.0000 
     22 C33        33.2340   11.5230    4.2950 C.3       1 VIR316      0.0000 
     23 C34        34.6570   11.3550    4.7630 C.3       1 VIR316      0.0000 
     24 C35        32.2870   11.5450    5.4750 C.3       1 VIR316      0.0000 
     25 C37        34.3800   13.8480    1.6320 C.2       1 VIR316      0.0000 
     26 C4         33.5710   15.4050   -1.7020 C.3       1 VIR316      0.0000 
     27 C6         35.9480   15.5040   -0.7910 C.2       1 VIR316      0.0000 
     28 C8         36.4150   16.4530   -1.8470 C.2       1 VIR316      0.0000 
     29 N25        29.8530   16.2880   -0.1590 N.am      1 VIR316      0.0000 
     30 N5         34.5870   15.0420   -0.7620 N.am      1 VIR316      0.0000 
     31 N9         35.6950   17.2600   -2.6530 N.2       1 VIR316      0.0000 
     32 O11        37.8010   17.5460   -3.1200 O.3       1 VIR316      0.0000 
     33 O15        34.5110   17.9310   -5.6860 O.2       1 VIR316      0.0000 
     34 O18        32.0240   20.9440   -5.9550 O.3       1 VIR316      0.0000 
     35 O27        30.6850   16.9040    1.9030 O.2       1 VIR316      0.0000 
     36 O36        33.9170   12.6920    2.3120 O.3       1 VIR316      0.0000 
     37 O38        34.8150   14.8160    2.2660 O.2       1 VIR316      0.0000 
     38 O7         36.7590   15.1390    0.0410 O.2       1 VIR316      0.0000 
     39 H          38.4718   16.1670   -1.7429 H         1 VIR316      0.0000 
     40 H          37.1131   18.8705   -5.2630 H         1 VIR316      0.0000 
     41 H          36.4715   19.9743   -4.0343 H         1 VIR316      0.0000 
     42 H          34.5660   20.7817   -6.2070 H         1 VIR316      0.0000 
     43 H          34.5620   20.9147   -4.4400 H         1 VIR316      0.0000 
     44 H          32.6966   19.0152   -5.7941 H         1 VIR316      0.0000 
     45 H          32.6441   20.4049   -3.1635 H         1 VIR316      0.0000 
     46 H          32.3331   12.8568   -0.2284 H         1 VIR316      0.0000 
     47 H          32.1626   18.1643   -1.7192 H         1 VIR316      0.0000 
     48 H          29.4530   17.3630   -2.6367 H         1 VIR316      0.0000 
     49 H          28.6833   17.9947   -0.4453 H         1 VIR316      0.0000 
     50 H          30.3567   18.3045    0.0486 H         1 VIR316      0.0000 
     51 H          29.9240   13.8947    1.1998 H         1 VIR316      0.0000 
     52 H          32.4054   14.9290    2.5131 H         1 VIR316      0.0000 
     53 H          31.8965   14.2240   -2.2028 H         1 VIR316      0.0000 
     54 H          33.4651   13.4787   -2.5550 H         1 VIR316      0.0000 
     55 H          31.1141   12.9734    3.9281 H         1 VIR316      0.0000 
     56 H          33.4295   13.6115    4.0842 H         1 VIR316      0.0000 
     57 H          32.9873   10.6622    3.6680 H         1 VIR316      0.0000 
     58 H          32.8798   16.1010   -1.2887 H         1 VIR316      0.0000 
     59 H          33.9856   15.7366   -2.6245 H         1 VIR316      0.0000 
     60 H          29.6041   15.5620   -0.7827 H         1 VIR316      0.0000 
     61 H          31.7025   17.5087   -5.3693 H         1 VIR316      0.0000 
     62 H          30.3713   17.1840   -4.5275 H         1 VIR316      0.0000 
     63 H          30.4303   18.4873   -5.4678 H         1 VIR316      0.0000 
     64 H          31.9432   11.8399    1.3524 H         1 VIR316      0.0000 
     65 H          31.3871   10.9849    2.5958 H         1 VIR316      0.0000 
     66 H          30.4102   11.9945    1.8131 H         1 VIR316      0.0000 
     67 H          35.2931   11.2730    3.9957 H         1 VIR316      0.0000 
     68 H          34.9610   12.1322    5.3139 H         1 VIR316      0.0000 
     69 H          34.7688   10.5356    5.3253 H         1 VIR316      0.0000 
     70 H          32.3565   10.7111    6.0225 H         1 VIR316      0.0000 
     71 H          32.4737   12.3137    6.0867 H         1 VIR316      0.0000 
     72 H          31.3336   11.6264    5.1846 H         1 VIR316      0.0000 
     73 H          32.0663   20.6408   -6.9070 H         1 VIR316      0.0000 
@<TRIPOS>BOND
     1    9    1 2    
     2   25    1 1    
     3   30    1 1    
     4    4    2 1    
     5   31    2 2    
     6   32    2 1    
     7   28    3 2    
     8   32    3 1    
     9   39    3 1    
    10    5    4 1    
    11   40    4 1    
    12   41    4 1    
    13    6    5 1    
    14   33    5 2    
    15    7    6 1    
    16   42    6 1    
    17   43    6 1    
    18    8    7 1    
    19   34    7 1    
    20   44    7 1    
    21   10    8 2    
    22   45    8 1    
    23   18    9 1    
    24   46    9 1    
    25   11   10 1    
    26   12   10 1    
    27   61   11 1    
    28   62   11 1    
    29   63   11 1    
    30   13   12 2    
    31   47   12 1    
    32   14   13 1    
    33   48   13 1    
    34   29   14 1    
    35   49   14 1    
    36   50   14 1    
    37   16   15 1    
    38   29   15 am   
    39   35   15 2    
    40   17   16 2    
    41   51   16 1    
    42   19   17 1    
    43   52   17 1    
    44   26   18 1    
    45   53   18 1    
    46   54   18 1    
    47   20   19 1    
    48   21   19 1    
    49   55   19 1    
    50   64   20 1    
    51   65   20 1    
    52   66   20 1    
    53   22   21 1    
    54   36   21 1    
    55   56   21 1    
    56   23   22 1    
    57   24   22 1    
    58   57   22 1    
    59   67   23 1    
    60   68   23 1    
    61   69   23 1    
    62   70   24 1    
    63   71   24 1    
    64   72   24 1    
    65   36   25 1    
    66   37   25 2    
    67   30   26 1    
    68   58   26 1    
    69   59   26 1    
    70   28   27 1    
    71   30   27 am   
    72   38   27 2    
    73   31   28 1    
    74   60   29 1    
    75   73   34 1    
@<TRIPOS>SUBSTRUCTURE
     1 VIR316      1 GROUP   
@<TRIPOS>SET

