#    Name: 3w1f_1O5_1_INTS_M
#    Modification time : Tue Mar 25 01:59:12 2014

@<TRIPOS>MOLECULE
3w1f_1O5_1_INTS_M
   75     0     9     0     0
SMALL
NO_CHARGES


@<TRIPOS>ATOM
      1 N           0.1560  -36.9510   -3.3840 N.am      2 SEC2        0.0000 
      2 N          -0.2380  -36.0670   -4.4770 N.am      8 SEL2        0.0000 
      3 N           0.5500  -37.8350   -2.2910 N.am      5 SEP2        0.0000 
      4 N          -0.2770  -33.7405   -3.5410 N.am      2 SEC2        0.0000 
      5 N          -0.8420  -33.7900   -4.8890 N.am      8 SEL2        0.0000 
      6 N           0.2880  -33.6910   -2.1930 N.am      5 SEP2        0.0000 
      7 O          -2.9805  -34.1975   -5.5490 O.2       1 ALC1        0.0000 
      8 O          -2.6600  -35.3950   -4.6320 O.2       7 ALL1        0.0000 
      9 O          -3.3010  -33.0000   -6.4660 O.2       4 ALP1        0.0000 
     10 CA         -0.2215  -32.7855   -6.7620 C.3       3 GLC5        0.0000 
     11 CA         -0.6020  -34.6240   -7.5930 C.3       9 GLL5        0.0000 
     12 CA          0.1590  -30.9470   -5.9310 C.3       6 GLP5        0.0000 
     13 N          -1.3815  -31.7880   -9.0045 N.am      2 SEC2        0.0000 
     14 N          -0.1880  -32.4770   -9.6510 N.am      8 SEL2        0.0000 
     15 N          -2.5750  -31.0990   -8.3580 N.am      5 SEP2        0.0000 
     16 O           0.4050  -30.4100  -10.6670 O.2       1 ALC1        0.0000 
     17 O           0.4390  -31.7530  -10.6780 O.2       7 ALL1        0.0000 
     18 O           0.3710  -29.0670  -10.6560 O.2       4 ALP1        0.0000 
     19 CA          1.9240  -34.3340   -9.2490 C.3       3 GLC5        0.0000 
     20 CA          0.8290  -33.9510  -11.0360 C.3       9 GLL5        0.0000 
     21 CA          3.0190  -34.7170   -7.4620 C.3       6 GLP5        0.0000 
     22 CA          0.6550  -36.2675  -14.0390 C.3       3 GLC5        0.0000 
     23 CA          2.3340  -37.2800  -13.1130 C.3       9 GLL5        0.0000 
     24 CA         -1.0240  -35.2550  -14.9650 C.3       6 GLP5        0.0000 
     25 CA          4.4560  -38.8170  -12.0075 C.3       3 GLC5        0.0000 
     26 CA          3.4080  -38.1290  -13.7530 C.3       9 GLL5        0.0000 
     27 CA          5.5040  -39.5050  -10.2620 C.3       6 GLP5        0.0000 
     28 CA          4.6840  -38.7510  -14.9580 C.3       3 GLC5        0.0000 
     29 CA          5.9600  -39.3730  -16.1630 C.3       6 GLP5        0.0000 
     30 CA         -0.9185  -32.3050  -11.9555 C.3       3 GLC5        0.0000 
     31 CA          1.0520  -32.5810  -11.5330 C.3       9 GLL5        0.0000 
     32 CA         -2.8890  -32.0290  -12.3780 C.3       6 GLP5        0.0000 
     33 CA          0.3750  -30.8800  -13.3040 C.3       3 GLC5        0.0000 
     34 CA          1.7870  -32.3900  -12.6940 C.3       9 GLL5        0.0000 
     35 CA         -1.0370  -29.3700  -13.9140 C.3       6 GLP5        0.0000 
     36 CA          2.9530  -30.9055  -13.8390 C.3       3 GLC5        0.0000 
     37 CA          4.1190  -29.4210  -14.9840 C.3       6 GLP5        0.0000 
     38 CA          4.2655  -31.7950  -14.4010 C.3       3 GLC5        0.0000 
     39 CA          3.0910  -33.2870  -14.6130 C.3       9 GLL5        0.0000 
     40 CA          5.4400  -30.3030  -14.1890 C.3       6 GLP5        0.0000 
     41 N           5.8745  -33.8155  -17.0530 N.am      2 SEC2        0.0000 
     42 N           4.5440  -33.5840  -16.2600 N.am      8 SEL2        0.0000 
     43 N           7.2050  -34.0470  -17.8460 N.am      5 SEP2        0.0000 
     44 CA          4.0440  -29.9900  -18.5515 C.3       3 GLC5        0.0000 
     45 CA          4.0100  -31.7590  -17.7810 C.3       9 GLL5        0.0000 
     46 CA          4.0780  -28.2210  -19.3220 C.3       6 GLP5        0.0000 
     47 CA          4.0645  -30.5900  -16.3825 C.3       3 GLC5        0.0000 
     48 CA          2.4205  -33.2780  -17.4635 C.3       3 GLC5        0.0000 
     49 CA          0.8310  -34.7970  -17.1460 C.3       6 GLP5        0.0000 
     50 CA          1.3495  -30.6625  -15.3135 C.3       3 GLC5        0.0000 
     51 CA          2.8500  -32.2840  -15.5430 C.3       9 GLL5        0.0000 
     52 CA         -0.1510  -29.0410  -15.0840 C.3       6 GLP5        0.0000 
     53 CA          3.4845  -30.8525  -15.2635 C.3       3 GLC5        0.0000 
     54 CA          0.6318  -36.6055   -6.3900 C.3       3 GLC5        0.0000 
     55 CA         -1.3670  -36.9700   -7.2390 C.3       9 GLL5        0.0000 
     56 CA          2.4680  -36.9270   -5.8060 C.3       6 GLP5        0.0000 
     57 CA          1.2405  -34.7415   -7.8632 C.3       3 GLC5        0.0000 
     58 CA         -3.4411  -37.3514   -8.0296 C.3       3 GLC5        0.0000 
     59 CA         -5.4670  -37.3280   -8.3550 C.3       6 GLP5        0.0000 
     60 CA         -1.8261  -35.0864  -10.2275 C.3       3 GLC5        0.0000 
     61 CA         -0.4740  -34.9080   -8.9360 C.3       9 GLL5        0.0000 
     62 CA         -2.9150  -34.3700  -11.4810 C.3       6 GLP5        0.0000 
     63 CA         -0.9185  -34.4390  -11.4215 C.3       3 GLC5        0.0000 
     64 CA          4.5130  -36.9472  -12.7135 C.3       3 GLC5        0.0000 
     65 CA          6.1550  -36.1900  -11.9940 C.3       6 GLP5        0.0000 
     66 CA          1.6890  -39.3667  -13.2745 C.3       3 GLC5        0.0000 
     67 CA          0.5070  -41.0290  -13.1160 C.3       6 GLP5        0.0000 
     68 CA          2.3129  -31.8285  -10.6961 C.3       3 GLC5        0.0000 
     69 CA          3.2620  -30.8290   -9.4030 C.3       6 GLP5        0.0000 
     70 CA          3.7196  -34.1856  -11.7558 C.3       3 GLC5        0.0000 
     71 CA          2.3150  -33.4880  -13.3570 C.3       9 GLL5        0.0000 
     72 CA          5.4340  -34.1430  -10.6980 C.3       6 GLP5        0.0000 
     73 CA          0.4906  -34.7416  -13.8893 C.3       3 GLC5        0.0000 
     74 CA          2.0640  -34.8720  -12.8520 C.3       9 GLL5        0.0000 
     75 CA          1.9007  -33.7912  -16.1120 C.3       3 GLC5        0.0000 
@<TRIPOS>BOND
@<TRIPOS>SUBSTRUCTURE
     1 ALC1        7 GROUP        1 X    ALC  0     ROOT ALC X 1
     2 SEC2        1 GROUP        1 X    SEC  0     **** SEC X 2
     3 GLC5       10 GROUP        1 X    GLC  0     **** GLC X 6
     4 ALP1        9 GROUP        1 Y    ALP  0     ROOT ALP Y 8
     5 SEP2        3 GROUP        1 Y    SEP  0     **** SEP Y 9
     6 GLP5       12 GROUP        1 Y    GLP  0     **** GLP Y 13
     7 ALL1        8 GROUP        1 Z    ALL  0     ROOT ALL Z 15
     8 SEL2        2 GROUP        1 Z    SEL  0     **** SEL Z 16
     9 GLL5       11 GROUP        1 Z    GLL  0     **** GLL Z 20
@<TRIPOS>SET

