#    Name: 3w1f_1O5_1_ligand
#    Modification time : Tue Mar 25 01:59:12 2014

@<TRIPOS>MOLECULE
3w1f_1O5_1_ligand
   50    53     1     0     0
SMALL
NO_CHARGES


@<TRIPOS>ATOM
      1 O3         -0.2380  -36.0670   -4.4770 O.2       1 1O5901      0.0000 
      2 S          -1.1540  -35.1860   -5.1570 S.o2      1 1O5901      0.0000 
      3 O2         -0.8420  -33.7900   -4.8890 O.2       1 1O5901      0.0000 
      4 N3         -2.6600  -35.3950   -4.6320 N.pl3     1 1O5901      0.0000 
      5 C12        -1.0420  -35.5980   -6.7090 C.ar      1 1O5901      0.0000 
      6 C11        -0.6020  -34.6240   -7.5930 C.ar      1 1O5901      0.0000 
      7 C13        -1.3670  -36.9700   -7.2390 C.ar      1 1O5901      0.0000 
      8 C14        -1.8500  -38.1010   -6.3820 C.3       1 1O5901      0.0000 
      9 C15        -1.2220  -37.2140   -8.5980 C.ar      1 1O5901      0.0000 
     10 C16        -0.7790  -36.1810   -9.4260 C.ar      1 1O5901      0.0000 
     11 C10        -0.4740  -34.9080   -8.9360 C.ar      1 1O5901      0.0000 
     12 C7          0.0110  -33.8120   -9.8210 C.2       1 1O5901      0.0000 
     13 N2         -0.1880  -32.4770   -9.6510 N.2       1 1O5901      0.0000 
     14 N1          0.4390  -31.7530  -10.6780 N.pl3     1 1O5901      0.0000 
     15 C8          0.8290  -33.9510  -11.0360 C.ar      1 1O5901      0.0000 
     16 C9          1.3270  -35.0650  -11.6880 C.ar      1 1O5901      0.0000 
     17 C3          2.0640  -34.8720  -12.8520 C.ar      1 1O5901      0.0000 
     18 O1          2.5720  -35.9420  -13.5350 O.3       1 1O5901      0.0000 
     19 C2          2.3340  -37.2800  -13.1130 C.3       1 1O5901      0.0000 
     20 C1          3.4080  -38.1290  -13.7530 C.3       1 1O5901      0.0000 
     21 C6          1.0520  -32.5810  -11.5330 C.ar      1 1O5901      0.0000 
     22 C5          1.7870  -32.3900  -12.6940 C.ar      1 1O5901      0.0000 
     23 C4          2.3150  -33.4880  -13.3570 C.ar      1 1O5901      0.0000 
     24 C17         3.0910  -33.2870  -14.6130 C.2       1 1O5901      0.0000 
     25 C20         4.1290  -34.0860  -15.0820 C.2       1 1O5901      0.0000 
     26 N5          4.5440  -33.5840  -16.2600 N.2       1 1O5901      0.0000 
     27 N4          3.7270  -32.4770  -16.5160 N.pl3     1 1O5901      0.0000 
     28 C19         4.0100  -31.7590  -17.7810 C.3       1 1O5901      0.0000 
     29 C18         2.8500  -32.2840  -15.5430 C.2       1 1O5901      0.0000 
     30 H          -2.7897  -36.1026   -3.9375 H         1 1O5901      0.0000 
     31 H          -3.3543  -34.8016   -5.0394 H         1 1O5901      0.0000 
     32 H          -0.3697  -33.6811   -7.2393 H         1 1O5901      0.0000 
     33 H          -1.4348  -38.1321   -8.9887 H         1 1O5901      0.0000 
     34 H          -0.6715  -36.3650  -10.4469 H         1 1O5901      0.0000 
     35 H           0.4108  -30.7827  -10.7291 H         1 1O5901      0.0000 
     36 H           1.1606  -36.0019  -11.3286 H         1 1O5901      0.0000 
     37 H           1.3669  -37.6446  -13.4441 H         1 1O5901      0.0000 
     38 H           2.4106  -37.3860  -12.0356 H         1 1O5901      0.0000 
     39 H           1.9389  -31.4434  -13.0595 H         1 1O5901      0.0000 
     40 H           4.4701  -34.8545  -14.6260 H         1 1O5901      0.0000 
     41 H           2.1840  -31.6161  -15.4612 H         1 1O5901      0.0000 
     42 H          -1.1897  -38.3343   -5.6681 H         1 1O5901      0.0000 
     43 H          -2.7106  -37.8786   -5.9239 H         1 1O5901      0.0000 
     44 H          -2.0087  -38.9308   -6.9170 H         1 1O5901      0.0000 
     45 H           4.3240  -37.8447  -13.4699 H         1 1O5901      0.0000 
     46 H           3.3124  -39.0943  -13.5099 H         1 1O5901      0.0000 
     47 H           3.3794  -38.0739  -14.7511 H         1 1O5901      0.0000 
     48 H           4.9458  -31.4075  -17.8072 H         1 1O5901      0.0000 
     49 H           3.8974  -32.3523  -18.5780 H         1 1O5901      0.0000 
     50 H           3.3996  -30.9773  -17.9089 H         1 1O5901      0.0000 
@<TRIPOS>BOND
     1    2    1 2    
     2    3    2 2    
     3    4    2 1    
     4    5    2 1    
     5   30    4 1    
     6   31    4 1    
     7    6    5 ar   
     8    7    5 ar   
     9   11    6 ar   
    10   32    6 1    
    11    8    7 1    
    12    9    7 ar   
    13   42    8 1    
    14   43    8 1    
    15   44    8 1    
    16   10    9 ar   
    17   33    9 1    
    18   11   10 ar   
    19   34   10 1    
    20   12   11 1    
    21   13   12 2    
    22   15   12 1    
    23   14   13 1    
    24   21   14 1    
    25   35   14 1    
    26   16   15 ar   
    27   21   15 ar   
    28   17   16 ar   
    29   36   16 1    
    30   18   17 1    
    31   23   17 ar   
    32   19   18 1    
    33   20   19 1    
    34   37   19 1    
    35   38   19 1    
    36   45   20 1    
    37   46   20 1    
    38   47   20 1    
    39   22   21 ar   
    40   23   22 ar   
    41   39   22 1    
    42   24   23 1    
    43   25   24 1    
    44   29   24 2    
    45   26   25 2    
    46   40   25 1    
    47   27   26 1    
    48   28   27 1    
    49   29   27 1    
    50   48   28 1    
    51   49   28 1    
    52   50   28 1    
    53   41   29 1    
@<TRIPOS>SUBSTRUCTURE
     1 1O5901      1 GROUP   
@<TRIPOS>SET

