#    Name: 2i0k_FAD_1_INTS_M
#    Modification time : Tue Mar 25 17:17:56 2014

@<TRIPOS>MOLECULE
2i0k_FAD_1_INTS_M
  116     0     9     0     0
SMALL
NO_CHARGES


@<TRIPOS>ATOM
      1 N          47.5485   38.2590   18.2595 N.am      2 SEC2        0.0000 
      2 N          47.9840   37.3540   17.2080 N.am      8 SEL2        0.0000 
      3 N          47.1130   39.1640   19.3110 N.am      5 SEP2        0.0000 
      4 N          49.1945   36.6425   18.0365 N.am      2 SEC2        0.0000 
      5 N          50.4050   35.9310   18.8650 N.am      5 SEP2        0.0000 
      6 CA         42.3975   35.3860   14.3395 C.3       3 GLC5        0.0000 
      7 CA         44.4190   35.7770   14.1530 C.3       9 GLL5        0.0000 
      8 CA         40.3760   34.9950   14.5260 C.3       6 GLP5        0.0000 
      9 CA         44.7465   37.3505   11.1175 C.3       3 GLC5        0.0000 
     10 CA         44.5060   36.9540   13.2010 C.3       9 GLL5        0.0000 
     11 CA         44.9870   37.7470    9.0340 C.3       6 GLP5        0.0000 
     12 CA         43.3200   40.0200   14.9075 C.3       3 GLC5        0.0000 
     13 CA         44.0350   38.1160   14.0440 C.3       9 GLL5        0.0000 
     14 CA         42.6050   41.9240   15.7710 C.3       6 GLP5        0.0000 
     15 O          44.5730   40.0875   13.3880 O.2       1 ALC1        0.0000 
     16 O          43.5810   39.2260   13.2720 O.2       7 ALL1        0.0000 
     17 O          45.5650   40.9490   13.5040 O.2       4 ALP1        0.0000 
     18 CA         42.8955   36.0270   16.4410 C.3       3 GLC5        0.0000 
     19 CA         42.9470   37.4330   14.8560 C.3       9 GLL5        0.0000 
     20 CA         42.8440   34.6210   18.0260 C.3       6 GLP5        0.0000 
     21 CA         41.6615   36.2140   14.6910 C.3       3 GLC5        0.0000 
     22 CA         38.3835   39.9610   18.8735 C.3       3 GLC5        0.0000 
     23 CA         40.5030   39.8960   18.3160 C.3       9 GLL5        0.0000 
     24 CA         36.2640   40.0260   19.4310 C.3       6 GLP5        0.0000 
     25 O          39.3810   41.2180   20.1150 O.2       1 ALC1        0.0000 
     26 O          40.5300   40.4370   19.5350 O.2       7 ALL1        0.0000 
     27 O          38.2320   41.9990   20.6950 O.2       4 ALP1        0.0000 
     28 N          38.2485   41.0530   17.8395 N.am      2 SEC2        0.0000 
     29 N          39.4170   40.1270   17.5160 N.am      8 SEL2        0.0000 
     30 N          37.0800   41.9790   18.1630 N.am      5 SEP2        0.0000 
     31 CA         40.9700   40.7935   15.9985 C.3       3 GLC5        0.0000 
     32 CA         39.3350   39.6630   16.2260 C.3       9 GLL5        0.0000 
     33 CA         39.9210   39.5115   14.2955 C.3       3 GLC5        0.0000 
     34 CA         40.5070   39.3600   12.3650 C.3       6 GLP5        0.0000 
     35 CA         38.5650   41.5930   16.3245 C.3       3 GLC5        0.0000 
     36 CA         37.7950   43.5230   16.4230 C.3       6 GLP5        0.0000 
     37 CA         37.5055   39.4750   17.2275 C.3       3 GLC5        0.0000 
     38 CA         35.6760   39.2870   18.2290 C.3       6 GLP5        0.0000 
     39 CA         42.0440   40.3290   16.1085 C.3       3 GLC5        0.0000 
     40 CA         41.4830   38.7340   16.4460 C.3       9 GLL5        0.0000 
     41 CA         40.9295   36.8645   15.4860 C.3       3 GLC5        0.0000 
     42 CA         40.9950   39.0470   14.4055 C.3       3 GLC5        0.0000 
     43 N          41.6395   24.7555   16.7100 N.am      2 SEC2        0.0000 
     44 N          42.8880   25.1140   16.0970 N.am      8 SEL2        0.0000 
     45 N          40.3910   24.3970   17.3230 N.am      5 SEP2        0.0000 
     46 O          43.2500   23.0690   17.5405 O.2       1 ALC1        0.0000 
     47 O          44.3850   23.7310   17.0600 O.2       7 ALL1        0.0000 
     48 O          42.1150   22.4070   18.0210 O.2       4 ALP1        0.0000 
     49 N          45.7890   22.3615   19.6340 N.am      2 SEC2        0.0000 
     50 N          45.9180   22.5030   18.1560 N.am      8 SEL2        0.0000 
     51 N          45.6600   22.2200   21.1120 N.am      5 SEP2        0.0000 
     52 N          45.3315   21.1995   17.7470 N.am      2 SEC2        0.0000 
     53 N          44.7450   19.8960   17.3380 N.am      5 SEP2        0.0000 
     54 N          45.6960   21.6645   16.7665 N.am      2 SEC2        0.0000 
     55 N          45.4740   20.8260   15.3770 N.am      5 SEP2        0.0000 
     56 CA         50.5640   23.0095   18.4775 C.3       3 GLC5        0.0000 
     57 CA         50.2980   24.9030   17.4690 C.3       9 GLL5        0.0000 
     58 CA         50.8300   21.1160   19.4860 C.3       6 GLP5        0.0000 
     59 CA         54.0060   26.9725   17.1480 C.3       3 GLC5        0.0000 
     60 CA         52.7260   25.4830   17.2970 C.3       9 GLL5        0.0000 
     61 CA         55.2860   28.4620   16.9990 C.3       6 GLP5        0.0000 
     62 CA         52.0835   25.9775   15.3160 C.3       3 GLC5        0.0000 
     63 CA         51.4410   26.4720   13.3350 C.3       6 GLP5        0.0000 
     64 CA         52.7125   24.3180   19.0495 C.3       3 GLC5        0.0000 
     65 CA         52.6990   23.1530   20.8020 C.3       6 GLP5        0.0000 
     66 CA         54.3280   24.9210   18.3275 C.3       3 GLC5        0.0000 
     67 CA         55.9300   24.3590   19.3580 C.3       6 GLP5        0.0000 
     68 CA         53.4120   28.9535   16.4315 C.3       3 GLC5        0.0000 
     69 CA         51.8830   28.1940   16.4110 C.3       9 GLL5        0.0000 
     70 CA         54.9410   29.7130   16.4520 C.3       6 GLP5        0.0000 
     71 CA         51.2990   29.7015   17.6255 C.3       3 GLC5        0.0000 
     72 CA         50.7150   31.2090   18.8400 C.3       6 GLP5        0.0000 
     73 CA         51.6620   27.3330   14.8730 C.3       3 GLC5        0.0000 
     74 CA         48.5245   25.9570   18.5615 C.3       3 GLC5        0.0000 
     75 CA         48.5880   26.3490   16.5620 C.3       9 GLL5        0.0000 
     76 CA         48.4610   25.5650   20.5610 C.3       6 GLP5        0.0000 
     77 CA         48.5775   27.4980   14.1755 C.3       3 GLC5        0.0000 
     78 CA         46.8310   27.7530   15.3670 C.3       9 GLL5        0.0000 
     79 CA         50.3240   27.2430   12.9840 C.3       6 GLP5        0.0000 
     80 CA         45.7915   28.5940   18.0925 C.3       3 GLC5        0.0000 
     81 CA         46.2600   28.9020   16.2030 C.3       9 GLL5        0.0000 
     82 CA         45.3230   28.2860   19.9820 C.3       6 GLP5        0.0000 
     83 O          48.3975   30.6770   15.6315 O.2       1 ALC1        0.0000 
     84 O          47.3360   30.5470   14.8120 O.2       7 ALL1        0.0000 
     85 O          49.4590   30.8070   16.4510 O.2       4 ALP1        0.0000 
     86 O          43.6140   32.5260   15.9330 O.2       1 ALC1        0.0000 
     87 O          44.8410   32.2500   15.3280 O.2       7 ALL1        0.0000 
     88 O          42.3870   32.8020   16.5380 O.2       4 ALP1        0.0000 
     89 CA         47.0205   30.8685   18.4780 C.3       3 GLC5        0.0000 
     90 CA         46.5720   32.1130   16.9760 C.3       9 GLL5        0.0000 
     91 CA         47.4690   29.6240   19.9800 C.3       6 GLP5        0.0000 
     92 N          47.3365   35.3605   20.3850 N.am      2 SEC2        0.0000 
     93 N          46.1560   34.4050   19.9730 N.am      8 SEL2        0.0000 
     94 N          48.5170   36.3160   20.7970 N.am      5 SEP2        0.0000 
     95 N          45.7590   33.8950   21.2505 N.am      2 SEC2        0.0000 
     96 N          45.3620   33.3850   22.5280 N.am      5 SEP2        0.0000 
     97 N          45.1725   35.1240   20.5280 N.am      2 SEC2        0.0000 
     98 N          44.1890   35.8430   21.0830 N.am      5 SEP2        0.0000 
     99 N          49.6015   33.5630   18.2990 N.am      2 SEC2        0.0000 
    100 N          48.2810   33.6780   18.7640 N.am      8 SEL2        0.0000 
    101 N          50.9220   33.4480   17.8340 N.am      5 SEP2        0.0000 
    102 CA         43.9625   35.1060   16.2542 C.3       3 GLC5        0.0000 
    103 CA         45.7430   35.4050   14.8120 C.3       9 GLL5        0.0000 
    104 CA         41.9990   38.5673   13.4075 C.3       3 GLC5        0.0000 
    105 CA         42.0112   40.9130   17.6140 C.3       3 GLC5        0.0000 
    106 CA         41.5740   39.1760   17.7700 C.3       9 GLL5        0.0000 
    107 CA         42.9840   42.2900   17.1850 C.3       6 GLP5        0.0000 
    108 CA         40.5963   37.8955   19.1065 C.3       3 GLC5        0.0000 
    109 CA         40.1540   36.2550   20.1700 C.3       6 GLP5        0.0000 
    110 CA         49.4547   25.5046   18.9083 C.3       3 GLC5        0.0000 
    111 CA         48.9560   25.1340   17.1510 C.3       9 GLL5        0.0000 
    112 CA         44.0315   30.3455   15.0370 C.3       3 GLC5        0.0000 
    113 CA         46.0960   30.1830   15.3790 C.3       9 GLL5        0.0000 
    114 CA         42.2610   29.9280   14.2870 C.3       6 GLP5        0.0000 
    115 CA         45.7754   28.8281   13.8220 C.3       3 GLC5        0.0000 
    116 CA         45.2300   28.4010   12.0620 C.3       6 GLP5        0.0000 
@<TRIPOS>BOND
@<TRIPOS>SUBSTRUCTURE
     1 ALC1       15 GROUP        1 X    ALC  0     ROOT ALC X 1
     2 SEC2        1 GROUP        1 X    SEC  0     **** SEC X 2
     3 GLC5        6 GROUP        1 X    GLC  0     **** GLC X 6
     4 ALP1       17 GROUP        1 Y    ALP  0     ROOT ALP Y 8
     5 SEP2        3 GROUP        1 Y    SEP  0     **** SEP Y 9
     6 GLP5        8 GROUP        1 Y    GLP  0     **** GLP Y 13
     7 ALL1       16 GROUP        1 Z    ALL  0     ROOT ALL Z 15
     8 SEL2        2 GROUP        1 Z    SEL  0     **** SEL Z 16
     9 GLL5        7 GROUP        1 Z    GLL  0     **** GLL Z 20
@<TRIPOS>SET

