#    Name: 2i0k_FAD_1_ligand
#    Modification time : Tue Mar 25 17:17:56 2014

@<TRIPOS>MOLECULE
2i0k_FAD_1_ligand
   84    89     1     0     0
SMALL
NO_CHARGES


@<TRIPOS>ATOM
      1 PA         47.4310   36.1060   16.6410 P.3       1 FAD700      0.0000 
      2 O1A        47.9840   37.3540   17.2080 O.co2     1 FAD700      0.0000 
      3 O2A        48.4750   35.1970   15.9720 O.co2     1 FAD700      0.0000 
      4 O5B        46.2740   36.4710   15.5840 O.3       1 FAD700      0.0000 
      5 C5B        45.7430   35.4050   14.8120 C.3       1 FAD700      0.0000 
      6 C4B        44.4190   35.7770   14.1530 C.3       1 FAD700      0.0000 
      7 O4B        43.4240   36.1270   15.1220 O.3       1 FAD700      0.0000 
      8 C3B        44.5060   36.9540   13.2010 C.3       1 FAD700      0.0000 
      9 O3B        43.6180   36.7240   12.1120 O.3       1 FAD700      0.0000 
     10 C2B        44.0350   38.1160   14.0440 C.3       1 FAD700      0.0000 
     11 O2B        43.5810   39.2260   13.2720 O.3       1 FAD700      0.0000 
     12 C1B        42.9470   37.4330   14.8560 C.3       1 FAD700      0.0000 
     13 N9A        42.6360   38.0750   16.1420 N.pl3     1 FAD700      0.0000 
     14 C8A        43.4320   38.1050   17.2750 C.2       1 FAD700      0.0000 
     15 N7A        42.7840   38.7760   18.2510 N.2       1 FAD700      0.0000 
     16 C5A        41.5740   39.1760   17.7700 C.ar      1 FAD700      0.0000 
     17 C6A        40.5030   39.8960   18.3160 C.ar      1 FAD700      0.0000 
     18 N6A        40.5300   40.4370   19.5350 N.pl3     1 FAD700      0.0000 
     19 N1A        39.4170   40.1270   17.5160 N.ar      1 FAD700      0.0000 
     20 C2A        39.3350   39.6630   16.2260 C.ar      1 FAD700      0.0000 
     21 N3A        40.3840   38.9590   15.6830 N.ar      1 FAD700      0.0000 
     22 C4A        41.4830   38.7340   16.4460 C.ar      1 FAD700      0.0000 
     23 N1         45.0070   25.8660   16.1860 N.2       1 FAD700      0.0000 
     24 C2         44.0490   24.9100   16.4360 C.2       1 FAD700      0.0000 
     25 O2         42.8880   25.1140   16.0970 O.2       1 FAD700      0.0000 
     26 N3         44.3850   23.7310   17.0600 N.am      1 FAD700      0.0000 
     27 C4         45.6940   23.4720   17.4020 C.2       1 FAD700      0.0000 
     28 O4         45.9180   22.5030   18.1560 O.2       1 FAD700      0.0000 
     29 C4X        46.6740   24.4150   17.1190 C.2       1 FAD700      0.0000 
     30 N5         48.0050   24.1580   17.4240 N.2       1 FAD700      0.0000 
     31 C5X        48.9560   25.1340   17.1510 C.ar      1 FAD700      0.0000 
     32 C6         50.2980   24.9030   17.4690 C.ar      1 FAD700      0.0000 
     33 C7         51.2700   25.8700   17.2010 C.ar      1 FAD700      0.0000 
     34 C7M        52.7260   25.4830   17.2970 C.3       1 FAD700      0.0000 
     35 C8         50.8950   27.0840   16.6150 C.ar      1 FAD700      0.0000 
     36 C8M        51.8830   28.1940   16.4110 C.3       1 FAD700      0.0000 
     37 C9         49.5590   27.3180   16.2980 C.ar      1 FAD700      0.0000 
     38 C9A        48.5880   26.3490   16.5620 C.ar      1 FAD700      0.0000 
     39 N10        47.2570   26.5800   16.2190 N.pl3     1 FAD700      0.0000 
     40 C10        46.3170   25.6150   16.5060 C.2       1 FAD700      0.0000 
     41 C1'        46.8310   27.7530   15.3670 C.3       1 FAD700      0.0000 
     42 C2'        46.2600   28.9020   16.2030 C.3       1 FAD700      0.0000 
     43 O2'        44.9620   28.5780   16.6710 O.3       1 FAD700      0.0000 
     44 C3'        46.0960   30.1830   15.3790 C.3       1 FAD700      0.0000 
     45 O3'        47.3360   30.5470   14.8120 O.3       1 FAD700      0.0000 
     46 C4'        45.5080   31.3430   16.1950 C.3       1 FAD700      0.0000 
     47 O4'        44.8410   32.2500   15.3280 O.3       1 FAD700      0.0000 
     48 C5'        46.5720   32.1130   16.9760 C.3       1 FAD700      0.0000 
     49 O5'        45.9610   32.9050   17.9730 O.3       1 FAD700      0.0000 
     50 P          46.8170   34.0500   18.6860 P.3       1 FAD700      0.0000 
     51 O1P        46.1560   34.4050   19.9730 O.co2     1 FAD700      0.0000 
     52 O2P        48.2810   33.6780   18.7640 O.co2     1 FAD700      0.0000 
     53 O3P        46.5350   35.3130   17.7180 O.3       1 FAD700      0.0000 
     54 H          45.5643   34.5030   15.4293 H         1 FAD700      0.0000 
     55 H          46.4389   35.0971   14.0074 H         1 FAD700      0.0000 
     56 H          44.0664   34.9159   13.5727 H         1 FAD700      0.0000 
     57 H          45.5033   37.0970   12.9259 H         1 FAD700      0.0000 
     58 H          44.8329   38.3548   14.7253 H         1 FAD700      0.0000 
     59 H          42.0566   37.3745   14.2418 H         1 FAD700      0.0000 
     60 H          44.3056   37.7050   17.3367 H         1 FAD700      0.0000 
     61 H          41.3909   40.3496   20.0362 H         1 FAD700      0.0000 
     62 H          39.6869   40.8813   19.8380 H         1 FAD700      0.0000 
     63 H          38.4871   39.8421   15.6639 H         1 FAD700      0.0000 
     64 H          43.6501   23.0334   17.2743 H         1 FAD700      0.0000 
     65 H          50.5721   24.0106   17.9053 H         1 FAD700      0.0000 
     66 H          49.2831   28.2115   15.8657 H         1 FAD700      0.0000 
     67 H          46.0692   27.4274   14.6485 H         1 FAD700      0.0000 
     68 H          47.6913   28.1249   14.7977 H         1 FAD700      0.0000 
     69 H          46.9257   29.1136   17.0164 H         1 FAD700      0.0000 
     70 H          45.3702   29.9544   14.5777 H         1 FAD700      0.0000 
     71 H          44.8067   30.9234   16.9144 H         1 FAD700      0.0000 
     72 H          47.1370   32.7194   16.2539 H         1 FAD700      0.0000 
     73 H          47.2673   31.3755   17.4014 H         1 FAD700      0.0000 
     74 H          53.3294   26.2521   17.0863 H         1 FAD700      0.0000 
     75 H          52.9660   25.1648   18.2141 H         1 FAD700      0.0000 
     76 H          52.9572   24.7464   16.6614 H         1 FAD700      0.0000 
     77 H          52.2801   28.5014   17.2758 H         1 FAD700      0.0000 
     78 H          52.6418   27.9125   15.8237 H         1 FAD700      0.0000 
     79 H          51.4610   28.9927   15.9820 H         1 FAD700      0.0000 
     80 H          43.2934   37.6319   11.8467 H         1 FAD700      0.0000 
     81 H          44.3148   39.9025   13.3352 H         1 FAD700      0.0000 
     82 H          44.8221   27.6239   16.4060 H         1 FAD700      0.0000 
     83 H          47.9743   30.5738   15.5813 H         1 FAD700      0.0000 
     84 H          43.8671   32.0636   15.4581 H         1 FAD700      0.0000 
@<TRIPOS>BOND
     1    2    1 ar   
     2    3    1 ar   
     3    4    1 1    
     4   53    1 1    
     5    5    4 1    
     6    6    5 1    
     7   54    5 1    
     8   55    5 1    
     9    7    6 1    
    10    8    6 1    
    11   56    6 1    
    12   12    7 1    
    13    9    8 1    
    14   10    8 1    
    15   57    8 1    
    16   80    9 1    
    17   11   10 1    
    18   12   10 1    
    19   58   10 1    
    20   81   11 1    
    21   13   12 1    
    22   59   12 1    
    23   14   13 1    
    24   22   13 1    
    25   15   14 2    
    26   60   14 1    
    27   16   15 1    
    28   17   16 ar   
    29   22   16 ar   
    30   18   17 1    
    31   19   17 ar   
    32   61   18 1    
    33   62   18 1    
    34   20   19 ar   
    35   21   20 ar   
    36   63   20 1    
    37   22   21 ar   
    38   24   23 1    
    39   40   23 2    
    40   25   24 2    
    41   26   24 am   
    42   27   26 am   
    43   64   26 1    
    44   28   27 2    
    45   29   27 1    
    46   30   29 2    
    47   40   29 1    
    48   31   30 1    
    49   32   31 ar   
    50   38   31 ar   
    51   33   32 ar   
    52   65   32 1    
    53   34   33 1    
    54   35   33 ar   
    55   74   34 1    
    56   75   34 1    
    57   76   34 1    
    58   36   35 1    
    59   37   35 ar   
    60   77   36 1    
    61   78   36 1    
    62   79   36 1    
    63   38   37 ar   
    64   66   37 1    
    65   39   38 1    
    66   40   39 1    
    67   41   39 1    
    68   42   41 1    
    69   67   41 1    
    70   68   41 1    
    71   43   42 1    
    72   44   42 1    
    73   69   42 1    
    74   82   43 1    
    75   45   44 1    
    76   46   44 1    
    77   70   44 1    
    78   83   45 1    
    79   47   46 1    
    80   48   46 1    
    81   71   46 1    
    82   84   47 1    
    83   49   48 1    
    84   72   48 1    
    85   73   48 1    
    86   50   49 1    
    87   51   50 ar   
    88   52   50 ar   
    89   53   50 1    
@<TRIPOS>SUBSTRUCTURE
     1 FAD700      1 GROUP   
@<TRIPOS>SET

