#    Name: 1hdr_NAD_1_INTS_M
#    Modification time : Tue Mar 25 05:22:42 2014

@<TRIPOS>MOLECULE
1hdr_NAD_1_INTS_M
   74     0     9     0     0
SMALL
NO_CHARGES


@<TRIPOS>ATOM
      1 N          29.0235   44.9580   37.0595 N.am      2 SEC2        0.0000 
      2 N          29.7990   45.3110   35.8780 N.am      8 SEL2        0.0000 
      3 N          28.2480   44.6050   38.2410 N.am      5 SEP2        0.0000 
      4 CA         27.3095   45.0235   31.3705 C.3       3 GLC5        0.0000 
      5 CA         27.1330   44.1840   33.3500 C.3       9 GLL5        0.0000 
      6 CA         27.4860   45.8630   29.3910 C.3       6 GLP5        0.0000 
      7 CA         24.2310   42.9035   33.7465 C.3       3 GLC5        0.0000 
      8 CA         26.2560   42.9430   33.6000 C.3       9 GLL5        0.0000 
      9 CA         22.2060   42.8640   33.8930 C.3       6 GLP5        0.0000 
     10 O          25.3960   40.4775   34.7980 O.2       1 ALC1        0.0000 
     11 O          26.7510   40.8880   34.7060 O.2       7 ALL1        0.0000 
     12 O          24.0410   40.0670   34.8900 O.2       4 ALP1        0.0000 
     13 O          25.4155   39.0945   32.9070 O.2       1 ALC1        0.0000 
     14 O          26.6840   39.5310   32.4970 O.2       7 ALL1        0.0000 
     15 O          24.1470   38.6580   33.3170 O.2       4 ALP1        0.0000 
     16 CA         23.7615   42.1705   32.9495 C.3       3 GLC5        0.0000 
     17 CA         25.3170   41.4770   32.0060 C.3       9 GLL5        0.0000 
     18 CA         24.2525   42.9600   31.0360 C.3       3 GLC5        0.0000 
     19 CA         23.1880   44.4430   30.0660 C.3       6 GLP5        0.0000 
     20 CA         21.9460   37.5800   28.2485 C.3       3 GLC5        0.0000 
     21 CA         23.3190   39.2570   28.6130 C.3       9 GLL5        0.0000 
     22 CA         20.5730   35.9030   27.8840 C.3       6 GLP5        0.0000 
     23 CA         21.5985   38.8145   31.9595 C.3       3 GLC5        0.0000 
     24 CA         21.8260   39.7050   30.3990 C.3       9 GLL5        0.0000 
     25 CA         21.3710   37.9240   33.5200 C.3       6 GLP5        0.0000 
     26 CA         20.6605   38.2715   30.1105 C.3       3 GLC5        0.0000 
     27 CA         19.4950   36.8380   29.8220 C.3       6 GLP5        0.0000 
     28 CA         22.0770   41.1205   28.8115 C.3       3 GLC5        0.0000 
     29 CA         22.3280   42.5360   27.2240 C.3       6 GLP5        0.0000 
     30 CA         23.5560   42.5870   30.1785 C.3       3 GLC5        0.0000 
     31 CA         23.9240   40.7310   30.2910 C.3       9 GLL5        0.0000 
     32 N          27.5020   47.4755   37.2505 N.am      2 SEC2        0.0000 
     33 N          28.0080   47.6520   35.9160 N.am      8 SEL2        0.0000 
     34 N          26.9960   47.2990   38.5850 N.am      5 SEP2        0.0000 
     35 CA         25.9260   50.1595   34.9100 C.3       3 GLC5        0.0000 
     36 CA         27.1250   49.2310   33.5700 C.3       9 GLL5        0.0000 
     37 CA         24.7270   51.0880   36.2500 C.3       6 GLP5        0.0000 
     38 CA         28.2660   50.5445   34.5790 C.3       3 GLC5        0.0000 
     39 CA         29.4070   51.8580   35.5880 C.3       6 GLP5        0.0000 
     40 N          26.8750   49.5170   28.4965 N.am      2 SEC2        0.0000 
     41 N          26.6690   49.1410   29.9950 N.am      8 SEL2        0.0000 
     42 N          27.0810   49.8930   26.9980 N.am      5 SEP2        0.0000 
     43 O          25.8695   48.0775   29.7575 O.2       1 ALC1        0.0000 
     44 O          26.6690   49.1410   29.9950 O.2       7 ALL1        0.0000 
     45 O          25.0700   47.0140   29.5200 O.2       4 ALP1        0.0000 
     46 N          28.1315   49.7775   28.1775 N.am      2 SEC2        0.0000 
     47 N          29.1820   49.6620   29.3570 N.am      8 SEL2        0.0000 
     48 CA         26.3900   51.2475   30.3290 C.3       3 GLC5        0.0000 
     49 CA         28.5110   51.3030   31.0690 C.3       9 GLL5        0.0000 
     50 CA         24.2690   51.1920   29.5890 C.3       6 GLP5        0.0000 
     51 CA         28.5310   53.3045   31.5780 C.3       3 GLC5        0.0000 
     52 CA         28.5510   55.3060   32.0870 C.3       6 GLP5        0.0000 
     53 CA         29.5140   53.4480   32.2060 C.3       3 GLC5        0.0000 
     54 CA         30.4770   51.5900   32.3250 C.3       9 GLL5        0.0000 
     55 CA         29.9420   51.7240   33.9565 C.3       3 GLC5        0.0000 
     56 CA         31.0595   52.5195   34.0060 C.3       3 GLC5        0.0000 
     57 CA         31.7900   51.9790   32.3360 C.3       9 GLL5        0.0000 
     58 CA         30.3290   53.0600   35.6760 C.3       6 GLP5        0.0000 
     59 CA         33.2615   54.1035   32.7320 C.3       3 GLC5        0.0000 
     60 CA         32.2300   52.8800   31.3910 C.3       9 GLL5        0.0000 
     61 CA         34.2930   55.3270   34.0730 C.3       6 GLP5        0.0000 
     62 CA         25.3798   44.4382   32.2140 C.3       3 GLC5        0.0000 
     63 CA         24.0650   45.3130   30.9530 C.3       6 GLP5        0.0000 
     64 CA         26.8306   42.8041   35.3245 C.3       3 GLC5        0.0000 
     65 CA         26.7590   42.9880   37.1230 C.3       6 GLP5        0.0000 
     66 CA         24.1730   37.8405   29.7392 C.3       3 GLC5        0.0000 
     67 CA         24.2070   40.0970   29.1940 C.3       9 GLL5        0.0000 
     68 CA         24.5830   36.0040   30.5750 C.3       6 GLP5        0.0000 
     69 CA         23.0857   41.3700   28.4106 C.3       3 GLC5        0.0000 
     70 CA         25.7655   50.3605   30.6290 C.3       3 GLC5        0.0000 
     71 CA         27.5700   49.1040   31.1100 C.3       9 GLL5        0.0000 
     72 CA         27.8515   47.6650   30.1612 C.3       3 GLC5        0.0000 
     73 CA         29.7412   54.1631   31.3686 C.3       3 GLC5        0.0000 
     74 CA         30.0610   52.9290   30.3940 C.3       9 GLL5        0.0000 
@<TRIPOS>BOND
@<TRIPOS>SUBSTRUCTURE
     1 ALC1       10 GROUP        1 X    ALC  0     ROOT ALC X 1
     2 SEC2        1 GROUP        1 X    SEC  0     **** SEC X 2
     3 GLC5        4 GROUP        1 X    GLC  0     **** GLC X 6
     4 ALP1       12 GROUP        1 Y    ALP  0     ROOT ALP Y 8
     5 SEP2        3 GROUP        1 Y    SEP  0     **** SEP Y 9
     6 GLP5        6 GROUP        1 Y    GLP  0     **** GLP Y 13
     7 ALL1       11 GROUP        1 Z    ALL  0     ROOT ALL Z 15
     8 SEL2        2 GROUP        1 Z    SEL  0     **** SEL Z 16
     9 GLL5        5 GROUP        1 Z    GLL  0     **** GLL Z 20
@<TRIPOS>SET

