#    Name: 1hdr_NAD_1_ligand
#    Modification time : Tue Mar 25 05:22:42 2014

@<TRIPOS>MOLECULE
1hdr_NAD_1_ligand
   70    74     1     0     0
SMALL
NO_CHARGES


@<TRIPOS>ATOM
      1 PA         29.2140   45.2490   34.5220 P.3       1 NAD244      0.0000 
      2 O1A        30.0960   44.3880   33.7060 O.co2     1 NAD244      0.0000 
      3 O2A        29.7990   45.3110   35.8780 O.co2     1 NAD244      0.0000 
      4 O5B        27.7040   44.6480   34.5880 O.3       1 NAD244      0.0000 
      5 C5B        27.1330   44.1840   33.3500 C.3       1 NAD244      0.0000 
      6 C4B        26.2560   42.9430   33.6000 C.3       1 NAD244      0.0000 
      7 O4B        25.2850   42.8120   32.5530 O.3       1 NAD244      0.0000 
      8 C3B        27.1100   41.6770   33.5770 C.3       1 NAD244      0.0000 
      9 O3B        26.7510   40.8880   34.7060 O.3       1 NAD244      0.0000 
     10 C2B        26.7260   40.9530   32.2840 C.3       1 NAD244      0.0000 
     11 O2B        26.6840   39.5310   32.4970 O.3       1 NAD244      0.0000 
     12 C1B        25.3170   41.4770   32.0060 C.3       1 NAD244      0.0000 
     13 N9A        24.9500   41.5530   30.6520 N.pl3     1 NAD244      0.0000 
     14 C8A        25.9490   41.3430   29.6720 C.2       1 NAD244      0.0000 
     15 N7A        25.4480   40.4220   28.7240 N.2       1 NAD244      0.0000 
     16 C5A        24.2070   40.0970   29.1940 C.ar      1 NAD244      0.0000 
     17 C6A        23.3190   39.2570   28.6130 C.ar      1 NAD244      0.0000 
     18 N6A        23.6070   38.6420   27.4150 N.pl3     1 NAD244      0.0000 
     19 N1A        22.1050   39.0260   29.2060 N.ar      1 NAD244      0.0000 
     20 C2A        21.8260   39.7050   30.3990 C.ar      1 NAD244      0.0000 
     21 N3A        22.7460   40.5920   30.9570 N.ar      1 NAD244      0.0000 
     22 C4A        23.9240   40.7310   30.2910 C.ar      1 NAD244      0.0000 
     23 O3         29.1610   46.7140   33.8430 O.3       1 NAD244      0.0000 
     24 PN         28.9920   47.9720   34.8620 P.3       1 NAD244      0.0000 
     25 O1N        30.3040   48.2940   35.4720 O.co2     1 NAD244      0.0000 
     26 O2N        28.0080   47.6520   35.9160 O.co2     1 NAD244      0.0000 
     27 O5D        28.5050   49.2520   33.9810 O.3       1 NAD244      0.0000 
     28 C5D        27.1250   49.2310   33.5700 C.3       1 NAD244      0.0000 
     29 C4D        26.9540   49.9540   32.2280 C.3       1 NAD244      0.0000 
     30 O4D        27.6200   51.2480   32.2270 O.3       1 NAD244      0.0000 
     31 C3D        27.5700   49.1040   31.1100 C.3       1 NAD244      0.0000 
     32 O3D        26.6690   49.1410   29.9950 O.3       1 NAD244      0.0000 
     33 C2D        28.8640   49.8300   30.7530 C.3       1 NAD244      0.0000 
     34 O2D        29.1820   49.6620   29.3570 O.3       1 NAD244      0.0000 
     35 C1D        28.5110   51.3030   31.0690 C.3       1 NAD244      0.0000 
     36 N1N        29.6320   52.0740   31.3680 N.pl3     1 NAD244      0.0000 
     37 C2N        30.4770   51.5900   32.3250 C.ar      1 NAD244      0.0000 
     38 C3N        31.7900   51.9790   32.3360 C.ar      1 NAD244      0.0000 
     39 C7N        32.6540   51.4210   33.2630 C.2       1 NAD244      0.0000 
     40 O7N        32.2260   50.3640   34.0490 O.2       1 NAD244      0.0000 
     41 N7N        33.9340   51.8900   33.4070 N.am      1 NAD244      0.0000 
     42 C4N        32.2300   52.8800   31.3910 C.ar      1 NAD244      0.0000 
     43 C5N        31.3740   53.3430   30.4220 C.ar      1 NAD244      0.0000 
     44 C6N        30.0610   52.9290   30.3940 C.ar      1 NAD244      0.0000 
     45 H          27.9078   43.9024   32.6286 H         1 NAD244      0.0000 
     46 H          26.5007   44.9485   32.8855 H         1 NAD244      0.0000 
     47 H          25.7955   43.0279   34.5559 H         1 NAD244      0.0000 
     48 H          28.1192   41.9445   33.5439 H         1 NAD244      0.0000 
     49 H          27.3622   41.2592   31.5166 H         1 NAD244      0.0000 
     50 H          24.6252   40.8624   32.5814 H         1 NAD244      0.0000 
     51 H          26.7964   41.7456   29.6552 H         1 NAD244      0.0000 
     52 H          22.9131   38.0124   27.0656 H         1 NAD244      0.0000 
     53 H          24.4849   38.8786   26.9988 H         1 NAD244      0.0000 
     54 H          20.9207   39.5437   30.8724 H         1 NAD244      0.0000 
     55 H          26.4795   49.7302   34.3031 H         1 NAD244      0.0000 
     56 H          26.7580   48.2047   33.4457 H         1 NAD244      0.0000 
     57 H          25.9056   50.0602   32.0221 H         1 NAD244      0.0000 
     58 H          27.7752   48.1569   31.4692 H         1 NAD244      0.0000 
     59 H          29.6191   49.5239   31.4128 H         1 NAD244      0.0000 
     60 H          27.9537   51.6771   30.2227 H         1 NAD244      0.0000 
     61 H          30.1276   50.9300   33.0419 H         1 NAD244      0.0000 
     62 H          34.4990   51.4249   34.0886 H         1 NAD244      0.0000 
     63 H          34.1908   52.6561   32.8179 H         1 NAD244      0.0000 
     64 H          33.2119   53.2087   31.4132 H         1 NAD244      0.0000 
     65 H          31.7173   54.0092   29.7056 H         1 NAD244      0.0000 
     66 H          29.4281   53.2566   29.6604 H         1 NAD244      0.0000 
     67 H          25.7674   40.7340   34.6118 H         1 NAD244      0.0000 
     68 H          25.7576   39.3458   32.8249 H         1 NAD244      0.0000 
     69 H          26.5554   48.1856   29.7224 H         1 NAD244      0.0000 
     70 H          29.8755   48.9419   29.3345 H         1 NAD244      0.0000 
@<TRIPOS>BOND
     1    2    1 ar   
     2    3    1 ar   
     3    4    1 1    
     4   23    1 1    
     5    5    4 1    
     6    6    5 1    
     7   45    5 1    
     8   46    5 1    
     9    7    6 1    
    10    8    6 1    
    11   47    6 1    
    12   12    7 1    
    13    9    8 1    
    14   10    8 1    
    15   48    8 1    
    16   67    9 1    
    17   11   10 1    
    18   12   10 1    
    19   49   10 1    
    20   68   11 1    
    21   13   12 1    
    22   50   12 1    
    23   14   13 1    
    24   22   13 1    
    25   15   14 2    
    26   51   14 1    
    27   16   15 1    
    28   17   16 ar   
    29   22   16 ar   
    30   18   17 1    
    31   19   17 ar   
    32   52   18 1    
    33   53   18 1    
    34   20   19 ar   
    35   21   20 ar   
    36   54   20 1    
    37   22   21 ar   
    38   24   23 1    
    39   25   24 ar   
    40   26   24 ar   
    41   27   24 1    
    42   28   27 1    
    43   29   28 1    
    44   55   28 1    
    45   56   28 1    
    46   30   29 1    
    47   31   29 1    
    48   57   29 1    
    49   35   30 1    
    50   32   31 1    
    51   33   31 1    
    52   58   31 1    
    53   69   32 1    
    54   34   33 1    
    55   35   33 1    
    56   59   33 1    
    57   70   34 1    
    58   36   35 1    
    59   60   35 1    
    60   37   36 ar   
    61   44   36 ar   
    62   38   37 ar   
    63   61   37 1    
    64   39   38 1    
    65   42   38 ar   
    66   40   39 2    
    67   41   39 am   
    68   62   41 1    
    69   63   41 1    
    70   43   42 ar   
    71   64   42 1    
    72   44   43 ar   
    73   65   43 1    
    74   66   44 1    
@<TRIPOS>SUBSTRUCTURE
     1 NAD244      1 GROUP   
@<TRIPOS>SET

