#    Name: 1xg5_NAP_4_INTS_M
#    Modification time : Tue Mar 25 09:49:59 2014

@<TRIPOS>MOLECULE
1xg5_NAP_4_INTS_M
  126     0    12     0     0
SMALL
NO_CHARGES


@<TRIPOS>ATOM
      1 NZ        -11.7245   53.0770   -4.4695 N.4       3 LYC4        0.0000 
      2 NZ        -11.1220   54.2400   -4.5740 N.4      11 LYL4        0.0000 
      3 NZ        -12.3270   51.9140   -4.3650 N.4       7 LYP4        0.0000 
      4 N         -11.7245   53.0770   -4.4695 N.am      2 SEC2        0.0000 
      5 N         -11.1220   54.2400   -4.5740 N.am     10 SEL2        0.0000 
      6 N         -12.3270   51.9140   -4.3650 N.am      6 SEP2        0.0000 
      7 N         -12.6100   56.0325   -6.7960 N.am      2 SEC2        0.0000 
      8 N         -11.4810   55.0020   -6.9180 N.am     10 SEL2        0.0000 
      9 N         -13.7390   57.0630   -6.6740 N.am      6 SEP2        0.0000 
     10 CA         -6.2560   51.1380   -5.9055 C.3       4 GLC5        0.0000 
     11 CA         -8.4480   51.3670   -6.3550 C.3      12 GLL5        0.0000 
     12 CA         -4.0640   50.9090   -5.4560 C.3       8 GLP5        0.0000 
     13 N          -9.4980   49.2075   -9.5960 N.am      2 SEC2        0.0000 
     14 N          -9.3820   49.9200   -8.0050 N.am     10 SEL2        0.0000 
     15 N          -9.6140   48.4950  -11.1870 N.am      6 SEP2        0.0000 
     16 O         -10.2470   48.9090   -8.4310 O.2       1 ALC1        0.0000 
     17 O          -9.3820   49.9200   -8.0050 O.2       9 ALL1        0.0000 
     18 O         -11.1120   47.8980   -8.8570 O.2       5 ALP1        0.0000 
     19 CA         -6.0590   49.3855   -5.2980 C.3       4 GLC5        0.0000 
     20 CA         -7.9750   49.3200   -5.4310 C.3      12 GLL5        0.0000 
     21 CA         -4.1430   49.4510   -5.1650 C.3       8 GLP5        0.0000 
     22 CA         -4.8870   45.3765   -2.6100 C.3       4 GLC5        0.0000 
     23 CA         -6.8060   45.8140   -2.2980 C.3      12 GLL5        0.0000 
     24 CA         -2.9680   44.9390   -2.9220 C.3       8 GLP5        0.0000 
     25 O          -6.7360   43.8715   -0.7605 O.2       1 ALC1        0.0000 
     26 O          -6.8650   45.3400   -1.0230 O.2       9 ALL1        0.0000 
     27 O          -6.6070   42.4030   -0.4980 O.2       5 ALP1        0.0000 
     28 N          -5.4265   43.9870   -3.0130 N.am      2 SEC2        0.0000 
     29 N          -6.4070   44.9540   -3.3160 N.am     10 SEL2        0.0000 
     30 N          -4.4460   43.0200   -2.7100 N.am      6 SEP2        0.0000 
     31 CA         -7.0835   44.9225   -6.3460 C.3       4 GLC5        0.0000 
     32 CA         -6.3930   45.3330   -4.6290 C.3      12 GLL5        0.0000 
     33 CA         -7.7740   44.5120   -8.0630 C.3       8 GLP5        0.0000 
     34 CA         -8.0230   44.0810   -4.1220 C.3       4 GLC5        0.0000 
     35 CA         -9.6530   42.8290   -3.6150 C.3       8 GLP5        0.0000 
     36 CA         -6.2710   43.3425   -3.8420 C.3       4 GLC5        0.0000 
     37 CA         -6.1490   41.3520   -3.0550 C.3       8 GLP5        0.0000 
     38 CA         -4.7620   45.9240   -4.7640 C.3       4 GLC5        0.0000 
     39 CA         -3.1310   46.5150   -4.8990 C.3       8 GLP5        0.0000 
     40 CA         -5.1940   46.9715   -4.4505 C.3       4 GLC5        0.0000 
     41 CA         -7.2570   47.4280   -4.0020 C.3      12 GLL5        0.0000 
     42 CA         -5.7000   48.4395   -4.5835 C.3       4 GLC5        0.0000 
     43 N         -10.2860   57.0995   -6.1050 N.am      2 SEC2        0.0000 
     44 N          -9.4170   55.6850   -5.5860 N.am     10 SEL2        0.0000 
     45 N         -11.1550   58.5140   -6.6240 N.am      6 SEP2        0.0000 
     46 N          -9.8645   58.1735   -6.4510 N.am      2 SEC2        0.0000 
     47 N          -8.5740   57.8330   -6.2780 N.am     10 SEL2        0.0000 
     48 N          -8.4425   56.0500   -9.3375 N.am      2 SEC2        0.0000 
     49 N          -8.4750   55.8930   -7.9200 N.am     10 SEL2        0.0000 
     50 N          -8.4100   56.2070  -10.7550 N.am      6 SEP2        0.0000 
     51 CA         -5.9905   56.3535   -8.5675 C.3       4 GLC5        0.0000 
     52 CA         -5.8590   55.5460   -6.6620 C.3      12 GLL5        0.0000 
     53 CA         -6.1220   57.1610  -10.4730 C.3       8 GLP5        0.0000 
     54 CA         -5.2445   57.6320   -7.4145 C.3       4 GLC5        0.0000 
     55 CA         -4.6090   56.1240   -6.0030 C.3      12 GLL5        0.0000 
     56 CA         -5.8800   59.1400   -8.8260 C.3       8 GLP5        0.0000 
     57 CA         -3.1140   56.9985   -6.7840 C.3       4 GLC5        0.0000 
     58 CA         -1.6190   57.8730   -7.5650 C.3       8 GLP5        0.0000 
     59 CA         -4.5270   54.3130   -3.3790 C.3       4 GLC5        0.0000 
     60 CA         -4.4870   55.7750   -4.5150 C.3      12 GLL5        0.0000 
     61 CA         -4.5670   52.8510   -2.2430 C.3       8 GLP5        0.0000 
     62 N          -2.1400   56.0510   -3.3625 N.am      2 SEC2        0.0000 
     63 N          -3.1300   55.4540   -4.2530 N.am     10 SEL2        0.0000 
     64 N          -1.1500   56.6480   -2.4720 N.am      6 SEP2        0.0000 
     65 CA         -3.0930   57.3550   -2.5785 C.3       4 GLC5        0.0000 
     66 CA         -4.8490   57.0890   -3.8320 C.3      12 GLL5        0.0000 
     67 CA         -1.3370   57.6210   -1.3250 C.3       8 GLP5        0.0000 
     68 CA         -6.1775   57.1980   -2.5370 C.3       4 GLC5        0.0000 
     69 CA         -7.5060   57.3070   -1.2420 C.3       8 GLP5        0.0000 
     70 N          -4.2175   58.3320   -1.7965 N.am      2 SEC2        0.0000 
     71 N          -4.1610   57.2210   -2.5860 N.am     10 SEL2        0.0000 
     72 N          -4.2740   59.4430   -1.0070 N.am      6 SEP2        0.0000 
     73 N          -2.6555   56.9345   -2.5290 N.am      2 SEC2        0.0000 
     74 CA         -5.0775   58.6085   -6.8390 C.3       4 GLC5        0.0000 
     75 CA         -4.2750   58.0770   -4.8520 C.3      12 GLL5        0.0000 
     76 CA         -2.9470   57.9750   -6.2085 C.3       4 GLC5        0.0000 
     77 CA         -6.0015   59.4010   -6.8395 C.3       4 GLC5        0.0000 
     78 CA         -6.1230   59.6620   -4.8530 C.3      12 GLL5        0.0000 
     79 N          -8.6730   63.3300   -5.5330 N.am      2 SEC2        0.0000 
     80 N          -8.4570   62.4420   -4.3960 N.am     10 SEL2        0.0000 
     81 N          -8.8890   64.2180   -6.6700 N.am      6 SEP2        0.0000 
     82 O          -9.8995   61.3440   -6.1010 O.2       1 ALC1        0.0000 
     83 O          -8.9440   60.3980   -5.4620 O.2       9 ALL1        0.0000 
     84 O         -10.8550   62.2900   -6.7400 O.2       5 ALP1        0.0000 
     85 CA         -4.4325   62.8745   -6.2780 C.3       4 GLC5        0.0000 
     86 CA         -5.6510   62.0240   -4.6230 C.3      12 GLL5        0.0000 
     87 CA         -3.2140   63.7250   -7.9330 C.3       8 GLP5        0.0000 
     88 CA         -3.3935   62.0780   -6.3175 C.3       4 GLC5        0.0000 
     89 CA         -4.2930   61.7540   -4.5540 C.3      12 GLL5        0.0000 
     90 CA         -2.4940   62.4020   -8.0810 C.3       8 GLP5        0.0000 
     91 CA         -2.7515   59.1585   -6.1105 C.3       4 GLC5        0.0000 
     92 CA         -3.8840   60.4440   -4.6560 C.3      12 GLL5        0.0000 
     93 CA         -2.5885   61.4350   -5.8960 C.3       4 GLC5        0.0000 
     94 CA         -1.2930   62.4260   -7.1360 C.3       8 GLP5        0.0000 
     95 NZ        -11.3510   47.2865   -3.0475 N.4       3 LYC4        0.0000 
     96 NZ        -11.7150   47.6210   -4.4240 N.4      11 LYL4        0.0000 
     97 NZ        -10.6670   45.6890   -1.4240 N.4       7 LYP4        0.0000 
     98 N         -11.3510   47.2865   -3.0475 N.am      2 SEC2        0.0000 
     99 N         -11.7150   47.6210   -4.4240 N.am     10 SEL2        0.0000 
    100 N         -10.9870   46.9520   -1.6710 N.am      6 SEP2        0.0000 
    101 N         -11.3800   47.1455   -7.7440 N.am      2 SEC2        0.0000 
    102 N         -11.6480   46.3930   -6.6310 N.am     10 SEL2        0.0000 
    103 N         -11.1120   47.8980   -8.8570 N.am      6 SEP2        0.0000 
    104 N         -11.8465   45.0205   -7.0290 N.am      2 SEC2        0.0000 
    105 N         -12.0450   43.6480   -7.4270 N.am      6 SEP2        0.0000 
    106 N         -12.8745   45.8830   -6.6480 N.am      2 SEC2        0.0000 
    107 N         -14.1010   45.3730   -6.6650 N.am      6 SEP2        0.0000 
    108 NZ        -10.0055   45.4675   -3.6705 N.4       3 LYC4        0.0000 
    109 NZ         -9.8370   46.0120   -4.9380 N.4      11 LYL4        0.0000 
    110 N          -9.5970   44.8155   -5.7070 N.am      2 SEC2        0.0000 
    111 N          -9.8370   46.0120   -4.9380 N.am     10 SEL2        0.0000 
    112 N          -9.3570   43.6190   -6.4760 N.am      6 SEP2        0.0000 
    113 N         -10.0055   45.4675   -3.6705 N.am      2 SEC2        0.0000 
    114 N         -10.1740   44.9230   -2.4030 N.am      6 SEP2        0.0000 
    115 CA         -8.4277   44.9745   -2.3682 C.3       4 GLC5        0.0000 
    116 CA         -7.2450   47.0760   -2.6610 C.3      12 GLL5        0.0000 
    117 CA         -9.8300   43.5040   -2.2570 C.3       8 GLP5        0.0000 
    118 CA         -5.7538   47.0155   -0.9617 C.3       4 GLC5        0.0000 
    119 CA         -4.4820   47.5860    0.5560 C.3       8 GLP5        0.0000 
    120 CA         -6.5068   62.2947   -6.4977 C.3       4 GLC5        0.0000 
    121 CA         -6.5920   60.9570   -4.7540 C.3      12 GLL5        0.0000 
    122 CA         -6.8920   63.0990   -8.3070 C.3       8 GLP5        0.0000 
    123 CA         -2.7568   61.5185   -3.3315 C.3       4 GLC5        0.0000 
    124 CA         -1.4250   61.9380   -2.0580 C.3       8 GLP5        0.0000 
    125 CA         -7.5370   49.5486   -7.2795 C.3       4 GLC5        0.0000 
    126 CA         -6.1920   48.9790   -8.5160 C.3       8 GLP5        0.0000 
@<TRIPOS>BOND
@<TRIPOS>SUBSTRUCTURE
     1 ALC1       16 GROUP        1 X    ALC  0     ROOT ALC X 1
     2 SEC2        4 GROUP        1 X    SEC  0     **** SEC X 2
     3 LYC4        1 GROUP        1 X    LYC  0     **** LYC X 4
     4 GLC5       10 GROUP        1 X    GLC  0     **** GLC X 6
     5 ALP1       18 GROUP        1 Y    ALP  0     ROOT ALP Y 8
     6 SEP2        6 GROUP        1 Y    SEP  0     **** SEP Y 9
     7 LYP4        3 GROUP        1 Y    LYP  0     **** LYP Y 11
     8 GLP5       12 GROUP        1 Y    GLP  0     **** GLP Y 13
     9 ALL1       17 GROUP        1 Z    ALL  0     ROOT ALL Z 15
    10 SEL2        5 GROUP        1 Z    SEL  0     **** SEL Z 16
    11 LYL4        2 GROUP        1 Z    LYL  0     **** LYL Z 18
    12 GLL5       11 GROUP        1 Z    GLL  0     **** GLL Z 20
@<TRIPOS>SET

