#    Name: 1xg5_NAP_4_ligand
#    Modification time : Tue Mar 25 09:49:59 2014

@<TRIPOS>MOLECULE
1xg5_NAP_4_ligand
   73    77     1     0     0
SMALL
NO_CHARGES


@<TRIPOS>ATOM
      1 PA        -10.5430   54.5900   -5.8840 P.3       1 NAP1304     0.0000 
      2 O1A       -11.1220   54.2400   -4.5740 O.co2     1 NAP1304     0.0000 
      3 O2A       -11.4810   55.0020   -6.9180 O.co2     1 NAP1304     0.0000 
      4 O5B        -9.7420   53.3220   -6.4710 O.3       1 NAP1304     0.0000 
      5 C5B        -8.8660   52.6300   -5.5990 C.3       1 NAP1304     0.0000 
      6 C4B        -8.4480   51.3670   -6.3550 C.3       1 NAP1304     0.0000 
      7 O4B        -7.5680   50.6680   -5.4620 O.3       1 NAP1304     0.0000 
      8 C3B        -9.6220   50.4510   -6.7120 C.3       1 NAP1304     0.0000 
      9 O3B        -9.3820   49.9200   -8.0050 O.3       1 NAP1304     0.0000 
     10 C2B        -9.4830   49.3350   -5.6740 C.3       1 NAP1304     0.0000 
     11 O2B       -10.0050   48.1590   -6.2450 O.3       1 NAP1304     0.0000 
     12 C1B        -7.9750   49.3200   -5.4310 C.3       1 NAP1304     0.0000 
     13 N9A        -7.7080   48.7030   -4.1090 N.pl3     1 NAP1304     0.0000 
     14 C8A        -8.0210   49.1330   -2.8170 C.2       1 NAP1304     0.0000 
     15 N7A        -7.7110   48.1240   -1.9400 N.2       1 NAP1304     0.0000 
     16 C5A        -7.2450   47.0760   -2.6610 C.ar      1 NAP1304     0.0000 
     17 C6A        -6.8060   45.8140   -2.2980 C.ar      1 NAP1304     0.0000 
     18 N6A        -6.8650   45.3400   -1.0230 N.pl3     1 NAP1304     0.0000 
     19 N1A        -6.4070   44.9540   -3.3160 N.ar      1 NAP1304     0.0000 
     20 C2A        -6.3930   45.3330   -4.6290 C.ar      1 NAP1304     0.0000 
     21 N3A        -6.7980   46.5970   -4.9750 N.ar      1 NAP1304     0.0000 
     22 C4A        -7.2570   47.4280   -4.0020 C.ar      1 NAP1304     0.0000 
     23 O3         -9.4170   55.6850   -5.5860 O.3       1 NAP1304     0.0000 
     24 PN         -8.3760   56.4050   -6.5500 P.3       1 NAP1304     0.0000 
     25 O1N        -8.5740   57.8330   -6.2780 O.co2     1 NAP1304     0.0000 
     26 O2N        -8.4750   55.8930   -7.9200 O.co2     1 NAP1304     0.0000 
     27 O5D        -7.0370   55.8740   -5.8760 O.3       1 NAP1304     0.0000 
     28 C5D        -5.8590   55.5460   -6.6620 C.3       1 NAP1304     0.0000 
     29 C4D        -4.6090   56.1240   -6.0030 C.3       1 NAP1304     0.0000 
     30 O4D        -4.7130   57.5640   -6.0680 O.3       1 NAP1304     0.0000 
     31 C3D        -4.4870   55.7750   -4.5150 C.3       1 NAP1304     0.0000 
     32 O3D        -3.1300   55.4540   -4.2530 O.3       1 NAP1304     0.0000 
     33 C2D        -4.8490   57.0890   -3.8320 C.3       1 NAP1304     0.0000 
     34 O2D        -4.1610   57.2210   -2.5860 O.3       1 NAP1304     0.0000 
     35 C1D        -4.2750   58.0770   -4.8520 C.3       1 NAP1304     0.0000 
     36 N1N        -4.7930   59.4310   -4.7270 N.pl3     1 NAP1304     0.0000 
     37 C2N        -6.1230   59.6620   -4.8530 C.ar      1 NAP1304     0.0000 
     38 C3N        -6.5920   60.9570   -4.7540 C.ar      1 NAP1304     0.0000 
     39 C7N        -8.0630   61.2270   -4.8780 C.2       1 NAP1304     0.0000 
     40 O7N        -8.4570   62.4420   -4.3960 O.2       1 NAP1304     0.0000 
     41 N7N        -8.9440   60.3980   -5.4620 N.am      1 NAP1304     0.0000 
     42 C4N        -5.6510   62.0240   -4.6230 C.ar      1 NAP1304     0.0000 
     43 C5N        -4.2930   61.7540   -4.5540 C.ar      1 NAP1304     0.0000 
     44 C6N        -3.8840   60.4440   -4.6560 C.ar      1 NAP1304     0.0000 
     45 P2B       -10.8460   46.9750   -5.5160 P.3       1 NAP1304     0.0000 
     46 O1X       -11.7150   47.6210   -4.4240 O.co2     1 NAP1304     0.0000 
     47 O2X       -11.6480   46.3930   -6.6310 O.co2     1 NAP1304     0.0000 
     48 O3X        -9.8370   46.0120   -4.9380 O.co2     1 NAP1304     0.0000 
     49 H          -9.3504   52.3234   -4.6830 H         1 NAP1304     0.0000 
     50 H          -7.9719   53.1946   -5.3764 H         1 NAP1304     0.0000 
     51 H          -7.9301   51.6534   -7.2435 H         1 NAP1304     0.0000 
     52 H         -10.5053   50.9496   -6.5818 H         1 NAP1304     0.0000 
     53 H          -9.9708   49.6632   -4.7980 H         1 NAP1304     0.0000 
     54 H          -7.5279   48.7454   -6.2097 H         1 NAP1304     0.0000 
     55 H          -8.3864   49.9834   -2.5975 H         1 NAP1304     0.0000 
     56 H          -6.7366   46.0149   -0.2963 H         1 NAP1304     0.0000 
     57 H          -7.0316   44.3588   -0.9256 H         1 NAP1304     0.0000 
     58 H          -6.0794   44.6726   -5.3589 H         1 NAP1304     0.0000 
     59 H          -5.9329   55.9581   -7.6735 H         1 NAP1304     0.0000 
     60 H          -5.7304   54.4621   -6.7456 H         1 NAP1304     0.0000 
     61 H          -3.7411   55.7896   -6.5157 H         1 NAP1304     0.0000 
     62 H          -5.1745   55.0470   -4.2759 H         1 NAP1304     0.0000 
     63 H          -5.8741   57.1922   -3.8016 H         1 NAP1304     0.0000 
     64 H          -3.2137   58.0466   -4.7831 H         1 NAP1304     0.0000 
     65 H          -6.7837   58.8903   -5.0204 H         1 NAP1304     0.0000 
     66 H          -8.5656   59.5605   -5.8562 H         1 NAP1304     0.0000 
     67 H          -9.8996   60.6924   -5.4504 H         1 NAP1304     0.0000 
     68 H          -6.0001   62.9866   -4.5815 H         1 NAP1304     0.0000 
     69 H          -3.6194   62.5087   -4.4310 H         1 NAP1304     0.0000 
     70 H          -2.8651   60.2299   -4.6788 H         1 NAP1304     0.0000 
     71 H         -10.0587   49.1921   -8.1154 H         1 NAP1304     0.0000 
     72 H          -2.6052   55.9879   -4.9160 H         1 NAP1304     0.0000 
     73 H          -4.7958   56.8637   -1.9009 H         1 NAP1304     0.0000 
@<TRIPOS>BOND
     1    2    1 ar   
     2    3    1 ar   
     3    4    1 1    
     4   23    1 1    
     5    5    4 1    
     6    6    5 1    
     7   49    5 1    
     8   50    5 1    
     9    7    6 1    
    10    8    6 1    
    11   51    6 1    
    12   12    7 1    
    13    9    8 1    
    14   10    8 1    
    15   52    8 1    
    16   71    9 1    
    17   11   10 1    
    18   12   10 1    
    19   53   10 1    
    20   45   11 1    
    21   13   12 1    
    22   54   12 1    
    23   14   13 1    
    24   22   13 1    
    25   15   14 2    
    26   55   14 1    
    27   16   15 1    
    28   17   16 ar   
    29   22   16 ar   
    30   18   17 1    
    31   19   17 ar   
    32   56   18 1    
    33   57   18 1    
    34   20   19 ar   
    35   21   20 ar   
    36   58   20 1    
    37   22   21 ar   
    38   24   23 1    
    39   25   24 ar   
    40   26   24 ar   
    41   27   24 1    
    42   28   27 1    
    43   29   28 1    
    44   59   28 1    
    45   60   28 1    
    46   30   29 1    
    47   31   29 1    
    48   61   29 1    
    49   35   30 1    
    50   32   31 1    
    51   33   31 1    
    52   62   31 1    
    53   72   32 1    
    54   34   33 1    
    55   35   33 1    
    56   63   33 1    
    57   73   34 1    
    58   36   35 1    
    59   64   35 1    
    60   37   36 ar   
    61   44   36 ar   
    62   38   37 ar   
    63   65   37 1    
    64   39   38 1    
    65   42   38 ar   
    66   40   39 2    
    67   41   39 am   
    68   66   41 1    
    69   67   41 1    
    70   43   42 ar   
    71   68   42 1    
    72   44   43 ar   
    73   69   43 1    
    74   70   44 1    
    75   46   45 ar   
    76   47   45 ar   
    77   48   45 ar   
@<TRIPOS>SUBSTRUCTURE
     1 NAP1304     1 GROUP   
@<TRIPOS>SET

