#    Name: 2w0b_CMW_1_INTS_M
#    Modification time : Tue Mar 25 03:26:34 2014

@<TRIPOS>MOLECULE
2w0b_CMW_1_INTS_M
   47     0     9     0     0
SMALL
NO_CHARGES


@<TRIPOS>ATOM
      1 O         -14.1850   -1.5240   66.1935 O.2       1 ALC1        0.0000 
      2 O         -15.2280   -2.1420   66.9310 O.2       7 ALL1        0.0000 
      3 O         -13.1420   -0.9060   65.4560 O.2       4 ALP1        0.0000 
      4 CA        -14.2845   -1.5520   64.7720 C.3       3 GLC5        0.0000 
      5 CA        -15.4810   -3.3180   64.8870 C.3       9 GLL5        0.0000 
      6 CA        -13.0880    0.2140   64.6570 C.3       6 GLP5        0.0000 
      7 CA        -17.2780   -3.2375   63.6550 C.3       3 GLC5        0.0000 
      8 CA        -15.9880   -4.3600   64.1070 C.3       9 GLL5        0.0000 
      9 CA        -18.5680   -2.1150   63.2030 C.3       6 GLP5        0.0000 
     10 CA        -16.6245   -2.4805   71.8210 C.3       3 GLC5        0.0000 
     11 CA        -17.0790   -1.8340   70.0500 C.3       9 GLL5        0.0000 
     12 CA        -16.1700   -3.1270   73.5920 C.3       6 GLP5        0.0000 
     13 CA        -15.8000   -0.9210   71.3005 C.3       3 GLC5        0.0000 
     14 CA        -14.5210   -0.0080   72.5510 C.3       6 GLP5        0.0000 
     15 CA        -17.9925   -2.6035   72.0920 C.3       3 GLC5        0.0000 
     16 CA        -18.4670   -2.3590   70.3660 C.3       9 GLL5        0.0000 
     17 CA        -17.5180   -2.8480   73.8180 C.3       6 GLP5        0.0000 
     18 CA        -18.4545   -3.8905   72.0160 C.3       3 GLC5        0.0000 
     19 CA        -18.4820   -3.8830   70.2910 C.3       9 GLL5        0.0000 
     20 CA        -18.4270   -3.8980   73.7410 C.3       6 GLP5        0.0000 
     21 N         -23.0555   -6.0740   69.6045 N.am      2 SEC2        0.0000 
     22 N         -21.8220   -5.4930   69.6850 N.am      8 SEL2        0.0000 
     23 N         -24.2890   -6.6550   69.5240 N.am      5 SEP2        0.0000 
     24 CA        -22.4545    1.4825   67.4350 C.3       3 GLC5        0.0000 
     25 CA        -22.1860   -0.0410   66.1860 C.3       9 GLL5        0.0000 
     26 CA        -22.7230    3.0060   68.6840 C.3       6 GLP5        0.0000 
     27 CA        -23.8100    0.3405   65.6925 C.3       3 GLC5        0.0000 
     28 CA        -25.4340    0.7220   65.1990 C.3       6 GLP5        0.0000 
     29 CA        -16.5765   -2.1435   64.3120 C.3       3 GLC5        0.0000 
     30 CA        -15.8450   -3.1680   66.2110 C.3       9 GLL5        0.0000 
     31 CA        -17.4900   -1.0440   63.0750 C.3       6 GLP5        0.0000 
     32 CA        -14.1913   -3.7355   63.6820 C.3       3 GLC5        0.0000 
     33 CA        -12.6480   -3.6320   62.8670 C.3       6 GLP5        0.0000 
     34 CA        -14.0697   -4.4450   65.4310 C.3       3 GLC5        0.0000 
     35 CA        -12.4050   -5.0510   66.3650 C.3       6 GLP5        0.0000 
     36 CA        -17.7512   -3.3738   64.7773 C.3       3 GLC5        0.0000 
     37 CA        -16.7000   -4.1170   66.7630 C.3       9 GLL5        0.0000 
     38 CA        -15.2254   -4.8851   67.3738 C.3       3 GLC5        0.0000 
     39 CA        -17.1690   -5.1480   65.9400 C.3       9 GLL5        0.0000 
     40 CA        -13.7300   -5.3750   68.5340 C.3       6 GLP5        0.0000 
     41 CA        -18.2610   -0.2422   70.7950 C.3       3 GLC5        0.0000 
     42 CA        -18.7490    1.6120   71.3820 C.3       6 GLP5        0.0000 
     43 CA        -23.0895   -4.4775   68.4085 C.3       3 GLC5        0.0000 
     44 CA        -21.9950   -2.6080   68.7620 C.3       9 GLL5        0.0000 
     45 CA        -24.6580   -5.8950   68.2930 C.3       6 GLP5        0.0000 
     46 CA        -19.5953   -2.4003   64.9625 C.3       3 GLC5        0.0000 
     47 CA        -20.4340   -3.2590   67.0620 C.3       9 GLL5        0.0000 
@<TRIPOS>BOND
@<TRIPOS>SUBSTRUCTURE
     1 ALC1        1 GROUP        1 X    ALC  0     ROOT ALC X 1
     2 SEC2       21 GROUP        1 X    SEC  0     **** SEC X 2
     3 GLC5        4 GROUP        1 X    GLC  0     **** GLC X 6
     4 ALP1        3 GROUP        1 Y    ALP  0     ROOT ALP Y 8
     5 SEP2       23 GROUP        1 Y    SEP  0     **** SEP Y 9
     6 GLP5        6 GROUP        1 Y    GLP  0     **** GLP Y 13
     7 ALL1        2 GROUP        1 Z    ALL  0     ROOT ALL Z 15
     8 SEL2       22 GROUP        1 Z    SEL  0     **** SEL Z 16
     9 GLL5        5 GROUP        1 Z    GLL  0     **** GLL Z 20
@<TRIPOS>SET

