#    Name: 2w0b_CMW_1_ligand
#    Modification time : Tue Mar 25 03:26:34 2014

@<TRIPOS>MOLECULE
2w0b_CMW_1_ligand
   44    45     1     0     0
SMALL
NO_CHARGES


@<TRIPOS>ATOM
      1 O4        -14.9180   -0.8710   68.7530 O.2       1 CMW1450     0.0000 
      2 C6        -15.5420   -1.7310   68.1440 C.2       1 CMW1450     0.0000 
      3 N2        -15.2280   -2.1420   66.9310 N.am      1 CMW1450     0.0000 
      4 C5        -15.8450   -3.1680   66.2110 C.ar      1 CMW1450     0.0000 
      5 C4        -15.4810   -3.3180   64.8870 C.ar      1 CMW1450     0.0000 
      6 C3        -15.9880   -4.3600   64.1070 C.ar      1 CMW1450     0.0000 
      7 N1        -16.8100   -5.2590   64.6390 N.pl3     1 CMW1450     0.0000 
      8 C2        -17.1690   -5.1480   65.9400 C.ar      1 CMW1450     0.0000 
      9 C1        -16.7000   -4.1170   66.7630 C.ar      1 CMW1450     0.0000 
     10 O1        -16.7220   -2.2740   68.7300 O.3       1 CMW1450     0.0000 
     11 C7        -17.0790   -1.8340   70.0500 C.3       1 CMW1450     0.0000 
     12 C8        -18.4670   -2.3590   70.3660 C.3       1 CMW1450     0.0000 
     13 C9        -18.4820   -3.8830   70.2910 C.3       1 CMW1450     0.0000 
     14 N3        -19.8720   -4.2970   70.3770 N.pl3     1 CMW1450     0.0000 
     15 S         -20.6300   -4.8080   69.1550 S.o2      1 CMW1450     0.0000 
     16 O3        -21.8220   -5.4930   69.6850 O.2       1 CMW1450     0.0000 
     17 O2        -19.7610   -5.6470   68.3010 O.2       1 CMW1450     0.0000 
     18 C10       -21.0470   -3.5120   68.2860 C.ar      1 CMW1450     0.0000 
     19 C16       -20.4340   -3.2590   67.0620 C.ar      1 CMW1450     0.0000 
     20 C15       -20.8110   -2.1120   66.3820 C.ar      1 CMW1450     0.0000 
     21 C13       -21.7800   -1.2810   66.9370 C.ar      1 CMW1450     0.0000 
     22 C14       -22.1860   -0.0410   66.1860 C.3       1 CMW1450     0.0000 
     23 C12       -22.3230   -1.5580   68.0810 C.ar      1 CMW1450     0.0000 
     24 C11       -21.9950   -2.6080   68.7620 C.ar      1 CMW1450     0.0000 
     25 H         -14.4091   -1.6510   66.4128 H         1 CMW1450     0.0000 
     26 H         -14.8171   -2.6457   64.4563 H         1 CMW1450     0.0000 
     27 H         -15.7027   -4.4064   63.1076 H         1 CMW1450     0.0000 
     28 H         -17.1816   -6.0474   64.0688 H         1 CMW1450     0.0000 
     29 H         -17.8222   -5.8513   66.3654 H         1 CMW1450     0.0000 
     30 H         -16.9791   -4.0665   67.7376 H         1 CMW1450     0.0000 
     31 H         -17.1009   -0.7464   70.1177 H         1 CMW1450     0.0000 
     32 H         -16.3887   -2.2182   70.8009 H         1 CMW1450     0.0000 
     33 H         -19.1795   -1.9586   69.6490 H         1 CMW1450     0.0000 
     34 H         -18.7548   -2.0473   71.3671 H         1 CMW1450     0.0000 
     35 H         -17.9018   -4.2724   71.1167 H         1 CMW1450     0.0000 
     36 H         -18.0372   -4.1842   69.3521 H         1 CMW1450     0.0000 
     37 H         -20.3742   -4.2575   71.2495 H         1 CMW1450     0.0000 
     38 H         -19.7395   -3.8909   66.6855 H         1 CMW1450     0.0000 
     39 H         -20.3839   -1.8762   65.4825 H         1 CMW1450     0.0000 
     40 H         -23.0692   -0.8937   68.4754 H         1 CMW1450     0.0000 
     41 H         -22.4274   -2.8227   69.6984 H         1 CMW1450     0.0000 
     42 H         -21.4119    0.5750   66.0401 H         1 CMW1450     0.0000 
     43 H         -22.5613   -0.2587   65.2850 H         1 CMW1450     0.0000 
     44 H         -22.8853    0.4784   66.6771 H         1 CMW1450     0.0000 
@<TRIPOS>BOND
     1    2    1 2    
     2    3    2 am   
     3   10    2 1    
     4    4    3 1    
     5   25    3 1    
     6    5    4 ar   
     7    9    4 ar   
     8    6    5 ar   
     9   26    5 1    
    10    7    6 ar   
    11   27    6 1    
    12    8    7 ar   
    13   28    7 1    
    14    9    8 ar   
    15   29    8 1    
    16   30    9 1    
    17   11   10 1    
    18   12   11 1    
    19   31   11 1    
    20   32   11 1    
    21   13   12 1    
    22   33   12 1    
    23   34   12 1    
    24   14   13 1    
    25   35   13 1    
    26   36   13 1    
    27   15   14 1    
    28   37   14 1    
    29   16   15 2    
    30   17   15 2    
    31   18   15 1    
    32   19   18 ar   
    33   24   18 ar   
    34   20   19 ar   
    35   38   19 1    
    36   21   20 ar   
    37   39   20 1    
    38   22   21 1    
    39   23   21 ar   
    40   42   22 1    
    41   43   22 1    
    42   44   22 1    
    43   24   23 ar   
    44   40   23 1    
    45   41   24 1    
@<TRIPOS>SUBSTRUCTURE
     1 CMW1450     1 GROUP   
@<TRIPOS>SET

