#    Name: 2R14_1_CAVITY_N1_6.mol2
#    Modification time : Tue Mar 11 09:19:08 2014

@<TRIPOS>MOLECULE
2R14_1_CAVITY_N1_6.mol2
  138     0     6     0     0
SMALL
NO_CHARGES


@<TRIPOS>ATOM
      1 CZ          0.4476   56.7508   16.3001 C.ar      4 PHE5        0.0000 
      2 CZ          1.3745   54.9637   15.6312 C.ar      4 PHE5        0.0000 
      3 N           0.4700   55.3269   16.7714 N.2       2 ALA2        0.0000 
      4 CA          1.6440   57.0520   17.1533 C.3       5 GLY6        0.0000 
      5 CZ          2.5709   55.2649   16.4844 C.ar      4 PHE5        0.0000 
      6 N           1.6663   55.6281   17.6246 N.2       2 ALA2        0.0000 
      7 CZ          4.4023   53.1147   14.6755 C.ar      4 PHE5        0.0000 
      8 CZ          3.4978   53.4779   15.8156 C.ar      4 PHE5        0.0000 
      9 CA          2.5932   53.8411   16.9557 C.3       5 GLY6        0.0000 
     10 CA          4.4246   51.6908   15.1468 C.3       5 GLY6        0.0000 
     11 CZ          2.6156   52.4172   17.4270 C.ar      4 PHE5        0.0000 
     12 CZ          3.7449   56.9900   16.8663 C.ar      4 PHE5        0.0000 
     13 CZ          4.6718   55.2029   16.1975 C.ar      4 PHE5        0.0000 
     14 CA          3.7673   55.5661   17.3377 C.3       5 GLY6        0.0000 
     15 CA          6.5032   53.0527   14.3886 C.3       5 GLY6        0.0000 
     16 CZ          5.5987   53.4159   15.5287 C.ar      4 PHE5        0.0000 
     17 CZ          4.6941   53.7791   16.6688 C.ar      4 PHE5        0.0000 
     18 CA          6.5256   51.6288   14.8599 C.3       5 GLY6        0.0000 
     19 CA          5.6210   51.9920   16.0000 C.3       5 GLY6        0.0000 
     20 CZ          4.7165   52.3552   17.1401 C.ar      4 PHE5        0.0000 
     21 N           8.3570   49.4786   13.0509 N.2       2 ALA2        0.0000 
     22 CA          7.4524   49.8417   14.1910 C.3       5 GLY6        0.0000 
     23 CA          6.5479   50.2049   15.3312 C.3       5 GLY6        0.0000 
     24 CZ          5.6434   50.5681   16.4713 C.ar      4 PHE5        0.0000 
     25 DU          8.3793   48.0547   13.5222 H         6 CUB7        0.0000 
     26 CA          6.7727   55.1409   15.9106 C.3       5 GLY6        0.0000 
     27 OG          5.8682   55.5041   17.0507 O.2       1 SER1        0.0000 
     28 CZ          7.6996   53.3539   15.2418 C.ar      4 PHE5        0.0000 
     29 CZ          6.7951   53.7170   16.3819 C.ar      4 PHE5        0.0000 
     30 CZ          5.8905   54.0802   17.5220 C.ar      4 PHE5        0.0000 
     31 CZ          8.6265   51.5668   14.5729 C.ar      4 PHE5        0.0000 
     32 CZ          7.7219   51.9300   15.7131 C.ar      4 PHE5        0.0000 
     33 CZ          6.8174   52.2932   16.8532 C.ar      4 PHE5        0.0000 
     34 CZ          5.9129   52.6564   17.9933 C.ar      4 PHE5        0.0000 
     35 DU          8.6488   50.1429   15.0443 H         6 CUB7        0.0000 
     36 DU          7.7443   50.5061   16.1844 H         6 CUB7        0.0000 
     37 CZ          6.8397   50.8693   17.3245 C.ar      4 PHE5        0.0000 
     38 CZ          9.5757   48.3559   14.3754 C.ar      4 PHE5        0.0000 
     39 DU          7.7666   49.0823   16.6557 H         6 CUB7        0.0000 
     40 CZ          7.9914   54.0182   17.2351 C.ar      4 PHE5        0.0000 
     41 CZ          7.0869   54.3814   18.3753 C.ar      4 PHE5        0.0000 
     42 CZ          8.9183   52.2312   16.5663 C.ar      4 PHE5        0.0000 
     43 CZ          8.0138   52.5944   17.7064 C.ar      4 PHE5        0.0000 
     44 CZ         10.7497   50.0809   14.7573 C.ar      4 PHE5        0.0000 
     45 CZ          9.8452   50.4441   15.8975 C.ar      4 PHE5        0.0000 
     46 DU          8.9407   50.8073   17.0376 H         6 CUB7        0.0000 
     47 OG          8.0361   51.1705   18.1777 O.2       1 SER1        0.0000 
     48 CZ          9.8675   49.0203   16.3688 C.ar      4 PHE5        0.0000 
     49 OG          8.9630   49.3835   17.5089 O.2       1 SER1        0.0000 
     50 CZ         10.0923   53.9562   16.9482 C.ar      4 PHE5        0.0000 
     51 CA          9.1878   54.3194   18.0883 C.3       5 GLY6        0.0000 
     52 CZ         11.0192   52.1692   16.2794 C.ar      4 PHE5        0.0000 
     53 CZ         10.1147   52.5324   17.4195 C.ar      4 PHE5        0.0000 
     54 CZ          9.2101   52.8956   18.5596 C.ar      4 PHE5        0.0000 
     55 CZ         11.0416   50.7453   16.7507 C.ar      4 PHE5        0.0000 
     56 DU         10.1370   51.1085   17.8908 H         6 CUB7        0.0000 
     57 OG          9.2325   51.4717   19.0309 O.2       1 SER1        0.0000 
     58 CZ         11.0639   49.3215   17.2220 C.ar      4 PHE5        0.0000 
     59 OG         10.1594   49.6847   18.3621 O.2       1 SER1        0.0000 
     60 CZ         11.0863   47.8976   17.6933 C.ar      4 PHE5        0.0000 
     61 DU         10.1817   48.2608   18.8334 H         6 CUB7        0.0000 
     62 OG          9.2772   48.6240   19.9735 O.2       1 SER1        0.0000 
     63 DU         10.2041   46.8369   19.3047 H         6 CUB7        0.0000 
     64 CZ         11.2887   54.2574   17.8014 C.ar      4 PHE5        0.0000 
     65 CZ         12.2156   52.4704   17.1326 C.ar      4 PHE5        0.0000 
     66 DU         11.3111   52.8336   18.2727 H         6 CUB7        0.0000 
     67 CA         10.4065   53.1968   19.4128 C.3       5 GLY6        0.0000 
     68 CZ         12.2379   51.0465   17.6039 C.ar      4 PHE5        0.0000 
     69 DU         11.3334   51.4097   18.7440 H         6 CUB7        0.0000 
     70 OG         10.4289   51.7729   19.8842 O.2       1 SER1        0.0000 
     71 CZ         12.2603   49.6227   18.0752 C.ar      4 PHE5        0.0000 
     72 DU         11.3557   49.9859   19.2153 H         6 CUB7        0.0000 
     73 OG         10.4512   50.3490   20.3555 O.2       1 SER1        0.0000 
     74 CZ         12.2826   48.1988   18.5465 C.ar      4 PHE5        0.0000 
     75 DU         11.3781   48.5620   19.6866 H         6 CUB7        0.0000 
     76 CZ         10.4736   48.9252   20.8268 C.ar      4 PHE5        0.0000 
     77 CA         12.3050   46.7749   19.0178 C.3       5 GLY6        0.0000 
     78 DU         11.4004   47.1381   20.1579 H         6 CUB7        0.0000 
     79 CZ         10.4959   47.5013   21.2981 C.ar      4 PHE5        0.0000 
     80 CA         12.3273   45.3511   19.4891 C.3       5 GLY6        0.0000 
     81 DU         11.4228   45.7143   20.6292 H         6 CUB7        0.0000 
     82 CZ         10.5182   46.0775   21.7694 C.ar      4 PHE5        0.0000 
     83 DU         11.4451   44.2904   21.1005 H         6 CUB7        0.0000 
     84 DU         10.5406   44.6536   22.2407 H         6 CUB7        0.0000 
     85 OG          9.6360   45.0168   23.3808 O.2       1 SER1        0.0000 
     86 DU         10.5629   43.2298   22.7120 H         6 CUB7        0.0000 
     87 OD1         9.6584   43.5929   23.8521 O.3       3 ASP3        0.0000 
     88 CZ         14.3165   52.4084   16.8457 C.ar      4 PHE5        0.0000 
     89 CZ         13.4120   52.7716   17.9858 C.ar      4 PHE5        0.0000 
     90 CZ         12.5074   53.1348   19.1259 C.ar      4 PHE5        0.0000 
     91 CZ         14.3389   50.9845   17.3170 C.ar      4 PHE5        0.0000 
     92 DU         13.4343   51.3477   18.4571 H         6 CUB7        0.0000 
     93 DU         12.5298   51.7109   19.5972 H         6 CUB7        0.0000 
     94 N          11.6252   52.0741   20.7374 N.2       2 ALA2        0.0000 
     95 CZ         13.4567   49.9239   18.9284 C.ar      4 PHE5        0.0000 
     96 DU         12.5521   50.2870   20.0685 H         6 CUB7        0.0000 
     97 CZ         11.6476   50.6502   21.2087 C.ar      4 PHE5        0.0000 
     98 CA         13.4790   48.5000   19.3997 C.3       5 GLY6        0.0000 
     99 CZ         12.5745   48.8632   20.5398 C.ar      4 PHE5        0.0000 
    100 CZ         11.6699   49.2264   21.6800 C.ar      4 PHE5        0.0000 
    101 CA         13.5013   47.0761   19.8710 C.3       5 GLY6        0.0000 
    102 CA         12.5968   47.4393   21.0111 C.3       5 GLY6        0.0000 
    103 CZ         11.6923   47.8025   22.1513 C.ar      4 PHE5        0.0000 
    104 CA         13.5237   45.6523   20.3423 C.3       5 GLY6        0.0000 
    105 DU         12.6192   46.0155   21.4824 H         6 CUB7        0.0000 
    106 CA         11.7146   46.3787   22.6226 C.3       5 GLY6        0.0000 
    107 CA         13.5460   44.2284   20.8136 C.3       5 GLY6        0.0000 
    108 DU         12.6415   44.5916   21.9538 H         6 CUB7        0.0000 
    109 CA         11.7370   44.9548   23.0939 C.3       5 GLY6        0.0000 
    110 CA         13.5684   42.8046   21.2849 C.3       5 GLY6        0.0000 
    111 DU         12.6638   43.1678   22.4251 H         6 CUB7        0.0000 
    112 CA         11.7593   43.5309   23.5652 C.3       5 GLY6        0.0000 
    113 CA         10.8548   43.8941   24.7053 C.3       5 GLY6        0.0000 
    114 DU         12.6862   41.7439   22.8964 H         6 CUB7        0.0000 
    115 DU         11.7816   42.1071   24.0365 H         6 CUB7        0.0000 
    116 CA         10.8771   42.4703   25.1766 C.3       5 GLY6        0.0000 
    117 O          15.5129   52.7096   17.6989 O.2       2 ALA2        0.0000 
    118 CZ         14.6083   53.0728   18.8390 C.ar      4 PHE5        0.0000 
    119 CZ         13.7038   53.4360   19.9791 C.ar      4 PHE5        0.0000 
    120 CA         15.5352   51.2857   18.1702 C.3       5 GLY6        0.0000 
    121 O          14.6307   51.6489   19.3103 O.2       2 ALA2        0.0000 
    122 O          13.7261   52.0121   20.4504 O.2       2 ALA2        0.0000 
    123 O          14.6530   50.2250   19.7816 O.2       2 ALA2        0.0000 
    124 O          13.7485   50.5882   20.9218 O.2       2 ALA2        0.0000 
    125 O          13.7708   49.1644   21.3931 O.2       2 ALA2        0.0000 
    126 O          14.6977   47.3773   20.7242 O.2       2 ALA2        0.0000 
    127 O          13.7932   47.7405   21.8644 O.2       2 ALA2        0.0000 
    128 N          14.7201   45.9535   21.1955 N.2       2 ALA2        0.0000 
    129 O          13.8155   46.3167   22.3357 O.2       2 ALA2        0.0000 
    130 O          14.7424   44.5296   21.6668 O.2       2 ALA2        0.0000 
    131 O          13.8379   44.8928   22.8070 O.2       2 ALA2        0.0000 
    132 CA         12.9333   45.2560   23.9471 C.3       5 GLY6        0.0000 
    133 O          13.8602   43.4689   23.2783 O.2       2 ALA2        0.0000 
    134 CA         12.9557   43.8321   24.4184 C.3       5 GLY6        0.0000 
    135 N          13.8826   42.0451   23.7496 N.2       2 ALA2        0.0000 
    136 CA         12.9780   42.4083   24.8897 C.3       5 GLY6        0.0000 
    137 O          15.8047   53.3740   19.6922 O.2       2 ALA2        0.0000 
    138 N          15.8271   51.9501   20.1635 N.2       2 ALA2        0.0000 
@<TRIPOS>BOND
@<TRIPOS>SUBSTRUCTURE
     1 SER1       27 GROUP   
     2 ALA2        3 GROUP   
     3 ASP3       87 GROUP   
     4 PHE5        1 GROUP   
     5 GLY6        4 GROUP   
     6 CUB7       25 GROUP   
@<TRIPOS>SET

