#    Name: 2r14_TXD_1_INTS_M
#    Modification time : Mon Mar 24 23:02:58 2014

@<TRIPOS>MOLECULE
2r14_TXD_1_INTS_M
   48     0     6     0     0
SMALL
NO_CHARGES


@<TRIPOS>ATOM
      1 N          16.7360   52.0700   20.8665 N.am      1 SEC2        0.0000 
      2 N          15.4580   51.5590   20.4140 N.am      5 SEL2        0.0000 
      3 N          18.0140   52.5810   21.3190 N.am      3 SEP2        0.0000 
      4 N          15.9150   50.3470   21.1420 N.am      1 SEC2        0.0000 
      5 N          16.3720   49.1350   21.8700 N.am      3 SEP2        0.0000 
      6 CA         13.6060   46.9570   18.9870 C.3       2 GLC5        0.0000 
      7 CA         11.9760   47.8780   20.0610 C.3       6 GLL5        0.0000 
      8 CA         15.2360   46.0360   17.9130 C.3       4 GLP5        0.0000 
      9 CA         10.6090   48.0490   22.5385 C.3       2 GLC5        0.0000 
     10 CA         11.0640   46.9580   20.8710 C.3       6 GLL5        0.0000 
     11 CA         10.1540   49.1400   24.2060 C.3       4 GLP5        0.0000 
     12 CA         13.0775   46.2320   18.2170 C.3       2 GLC5        0.0000 
     13 CA         10.9190   46.4280   18.5210 C.3       6 GLL5        0.0000 
     14 N           6.8520   49.2035   20.3665 N.am      1 SEC2        0.0000 
     15 N           6.5390   47.9630   19.9240 N.am      5 SEL2        0.0000 
     16 N           7.1650   50.4440   20.8090 N.am      3 SEP2        0.0000 
     17 CA          6.9690   52.9825   19.3830 C.3       2 GLC5        0.0000 
     18 CA          7.4140   53.2470   17.7670 C.3       6 GLL5        0.0000 
     19 CA          6.5240   52.7180   20.9990 C.3       4 GLP5        0.0000 
     20 CA          8.2235   55.3235   19.1035 C.3       2 GLC5        0.0000 
     21 CA          7.0250   54.6640   17.4770 C.3       6 GLL5        0.0000 
     22 CA          9.4220   55.9830   20.7300 C.3       4 GLP5        0.0000 
     23 CA          6.3255   54.1750   19.1255 C.3       2 GLC5        0.0000 
     24 CA          5.6260   53.6860   20.7740 C.3       4 GLP5        0.0000 
     25 CA          6.5460   55.2885   14.5755 C.3       2 GLC5        0.0000 
     26 CA          6.3180   54.5580   16.1450 C.3       6 GLL5        0.0000 
     27 CA          6.7740   56.0190   13.0060 C.3       4 GLP5        0.0000 
     28 CA          4.3460   57.9360   18.3980 C.3       2 GLC5        0.0000 
     29 CA          3.1310   57.4570   17.0770 C.3       6 GLL5        0.0000 
     30 CA          5.5610   58.4150   19.7190 C.3       4 GLP5        0.0000 
     31 CA          3.2850   55.9980   18.4710 C.3       2 GLC5        0.0000 
     32 CA          3.4390   54.5390   19.8650 C.3       4 GLP5        0.0000 
     33 CA          2.1615   57.9535   18.6585 C.3       2 GLC5        0.0000 
     34 CA          1.1920   58.4500   20.2400 C.3       4 GLP5        0.0000 
     35 CA          1.4030   57.0425   18.5035 C.3       2 GLC5        0.0000 
     36 CA          1.6140   55.6350   16.7670 C.3       6 GLL5        0.0000 
     37 CA         10.6860   53.4925   21.0725 C.3       2 GLC5        0.0000 
     38 CA         10.6090   51.3640   20.5850 C.3       6 GLL5        0.0000 
     39 CA         10.1770   55.2460   21.8480 C.3       4 GLP5        0.0000 
     40 CA          9.0700   52.9052   15.2455 C.3       2 GLC5        0.0000 
     41 CA          7.7500   52.7350   16.3580 C.3       6 GLL5        0.0000 
     42 CA         10.4100   53.8360   14.2300 C.3       4 GLP5        0.0000 
     43 CA          6.8875   51.7772   14.3095 C.3       2 GLC5        0.0000 
     44 CA          6.0450   51.5800   12.3580 C.3       4 GLP5        0.0000 
     45 CA          8.3133   54.8700   15.6665 C.3       2 GLC5        0.0000 
     46 CA          9.9550   55.1290   14.5220 C.3       4 GLP5        0.0000 
     47 CA          2.9616   54.9515   18.2552 C.3       2 GLC5        0.0000 
     48 CA          4.0000   55.3660   16.5380 C.3       6 GLL5        0.0000 
@<TRIPOS>BOND
@<TRIPOS>SUBSTRUCTURE
     1 SEC2        1 GROUP        1 X    SEC  0     ROOT SEC X 2
     2 GLC5        6 GROUP        1 X    GLC  0     **** GLC X 6
     3 SEP2        3 GROUP        1 Y    SEP  0     ROOT SEP Y 9
     4 GLP5        8 GROUP        1 Y    GLP  0     **** GLP Y 13
     5 SEL2        2 GROUP        1 Z    SEL  0     ROOT SEL Z 16
     6 GLL5        7 GROUP        1 Z    GLL  0     **** GLL Z 20
@<TRIPOS>SET

