#    Name: 2r14_TXD_1_ligand
#    Modification time : Mon Mar 24 23:02:58 2014

@<TRIPOS>MOLECULE
2r14_TXD_1_ligand
   70    74     1     0     0
SMALL
NO_CHARGES


@<TRIPOS>ATOM
      1 O7N        15.4580   51.5590   20.4140 O.2       1 TXD600      0.0000 
      2 C7N        14.2390   52.1980   20.3340 C.2       1 TXD600      0.0000 
      3 N7N        14.2040   53.5380   20.3130 N.am      1 TXD600      0.0000 
      4 C3N        12.9530   51.4350   20.3490 C.ar      1 TXD600      0.0000 
      5 C2N        12.9910   50.0510   20.1890 C.ar      1 TXD600      0.0000 
      6 C4N        11.7810   52.1140   20.0090 C.ar      1 TXD600      0.0000 
      7 C5N        10.6090   51.3640   20.5850 C.ar      1 TXD600      0.0000 
      8 C6N        10.6030   49.9210   20.1480 C.ar      1 TXD600      0.0000 
      9 N1N        11.8400   49.3380   20.3320 N.pl3     1 TXD600      0.0000 
     10 C1'A       11.9760   47.8780   20.0610 C.3       1 TXD600      0.0000 
     11 O4'A       11.6010   47.6840   18.6950 O.3       1 TXD600      0.0000 
     12 C2'A       11.0640   46.9580   20.8710 C.3       1 TXD600      0.0000 
     13 O2'A       11.6360   46.5880   22.1120 O.3       1 TXD600      0.0000 
     14 C3'A       10.8540   45.7870   19.9010 C.3       1 TXD600      0.0000 
     15 O3'A       11.8940   44.8270   20.0210 O.3       1 TXD600      0.0000 
     16 C4'A       10.9190   46.4280   18.5210 C.3       1 TXD600      0.0000 
     17 C5'A        9.5290   46.6550   17.9260 C.3       1 TXD600      0.0000 
     18 O5'A        8.6990   47.3750   18.8370 O.3       1 TXD600      0.0000 
     19 PN          7.0930   47.5540   18.5940 P.3       1 TXD600      0.0000 
     20 O1N         6.5900   46.2690   18.0450 O.co2     1 TXD600      0.0000 
     21 O2N         6.5390   47.9630   19.9240 O.co2     1 TXD600      0.0000 
     22 O3          7.1010   48.8370   17.6700 O.3       1 TXD600      0.0000 
     23 PA          6.1600   49.1730   16.4130 P.3       1 TXD600      0.0000 
     24 O2P         4.7330   48.9760   16.6710 O.co2     1 TXD600      0.0000 
     25 O1P         6.6830   48.6350   15.1470 O.co2     1 TXD600      0.0000 
     26 O5'         6.4120   50.7330   16.4300 O.3       1 TXD600      0.0000 
     27 C5'         7.7100   51.2140   16.1640 C.3       1 TXD600      0.0000 
     28 C4'         7.7500   52.7350   16.3580 C.3       1 TXD600      0.0000 
     29 C3'         7.4140   53.2470   17.7670 C.3       1 TXD600      0.0000 
     30 O3'         8.5060   53.1770   18.6650 O.3       1 TXD600      0.0000 
     31 C2'         7.0250   54.6640   17.4770 C.3       1 TXD600      0.0000 
     32 O2'         8.1910   55.4300   17.3090 O.3       1 TXD600      0.0000 
     33 C1'         6.3180   54.5580   16.1450 C.3       1 TXD600      0.0000 
     34 O4'         6.8020   53.3890   15.5290 O.3       1 TXD600      0.0000 
     35 N9A         4.8620   54.3770   16.2550 N.pl3     1 TXD600      0.0000 
     36 C4A         4.0000   55.3660   16.5380 C.ar      1 TXD600      0.0000 
     37 N3A         4.2150   56.6940   16.8160 N.ar      1 TXD600      0.0000 
     38 C2A         3.1310   57.4570   17.0770 C.ar      1 TXD600      0.0000 
     39 N1A         1.8620   56.9740   17.0410 N.ar      1 TXD600      0.0000 
     40 C6A         1.6140   55.6350   16.7670 C.ar      1 TXD600      0.0000 
     41 N6A         0.3510   55.2020   16.6540 N.pl3     1 TXD600      0.0000 
     42 C5A         2.7090   54.8200   16.5100 C.ar      1 TXD600      0.0000 
     43 N7A         2.8310   53.4910   16.2070 N.2       1 TXD600      0.0000 
     44 C8A         4.1370   53.2350   16.0290 C.2       1 TXD600      0.0000 
     45 H          15.0879   54.0022   20.3693 H         1 TXD600      0.0000 
     46 H          13.2971   53.9534   20.2430 H         1 TXD600      0.0000 
     47 H          13.8803   49.5903   19.9669 H         1 TXD600      0.0000 
     48 H          11.6772   52.8944   19.5172 H         1 TXD600      0.0000 
     49 H           9.9694   51.7422   21.1401 H         1 TXD600      0.0000 
     50 H           9.8127   49.5257   19.7989 H         1 TXD600      0.0000 
     51 H          12.9949   47.5663   20.1990 H         1 TXD600      0.0000 
     52 H          10.1158   47.4640   20.9604 H         1 TXD600      0.0000 
     53 H           9.8861   45.3969   20.0455 H         1 TXD600      0.0000 
     54 H          11.4809   45.7811   17.8738 H         1 TXD600      0.0000 
     55 H           9.1058   45.6686   17.6828 H         1 TXD600      0.0000 
     56 H           9.6576   47.1975   16.9772 H         1 TXD600      0.0000 
     57 H           8.0280   51.0077   15.1333 H         1 TXD600      0.0000 
     58 H           8.4617   50.7791   16.8362 H         1 TXD600      0.0000 
     59 H           8.7504   53.0994   16.1169 H         1 TXD600      0.0000 
     60 H           6.5413   52.7258   18.0928 H         1 TXD600      0.0000 
     61 H           6.3656   55.0101   18.1973 H         1 TXD600      0.0000 
     62 H           6.5456   55.4169   15.5533 H         1 TXD600      0.0000 
     63 H           3.2741   58.4790   17.3212 H         1 TXD600      0.0000 
     64 H          -0.3634   55.8868   16.7978 H         1 TXD600      0.0000 
     65 H           0.2359   54.2329   16.4360 H         1 TXD600      0.0000 
     66 H           4.5236   52.3815   15.7796 H         1 TXD600      0.0000 
     67 H          10.8724   46.2382   22.6547 H         1 TXD600      0.0000 
     68 H          12.2523   44.9481   20.9467 H         1 TXD600      0.0000 
     69 H           8.1024   53.2934   19.5726 H         1 TXD600      0.0000 
     70 H           8.8691   55.0036   17.9075 H         1 TXD600      0.0000 
@<TRIPOS>BOND
     1    2    1 2    
     2    3    2 am   
     3    4    2 1    
     4   45    3 1    
     5   46    3 1    
     6    5    4 ar   
     7    6    4 ar   
     8    9    5 ar   
     9   47    5 1    
    10    7    6 ar   
    11   48    6 1    
    12    8    7 ar   
    13   49    7 1    
    14    9    8 ar   
    15   50    8 1    
    16   10    9 1    
    17   11   10 1    
    18   12   10 1    
    19   51   10 1    
    20   16   11 1    
    21   13   12 1    
    22   14   12 1    
    23   52   12 1    
    24   67   13 1    
    25   15   14 1    
    26   16   14 1    
    27   53   14 1    
    28   68   15 1    
    29   17   16 1    
    30   54   16 1    
    31   18   17 1    
    32   55   17 1    
    33   56   17 1    
    34   19   18 1    
    35   20   19 ar   
    36   21   19 ar   
    37   22   19 1    
    38   23   22 1    
    39   24   23 ar   
    40   25   23 ar   
    41   26   23 1    
    42   27   26 1    
    43   28   27 1    
    44   57   27 1    
    45   58   27 1    
    46   29   28 1    
    47   34   28 1    
    48   59   28 1    
    49   30   29 1    
    50   31   29 1    
    51   60   29 1    
    52   69   30 1    
    53   32   31 1    
    54   33   31 1    
    55   61   31 1    
    56   70   32 1    
    57   34   33 1    
    58   35   33 1    
    59   62   33 1    
    60   36   35 1    
    61   44   35 1    
    62   37   36 ar   
    63   42   36 ar   
    64   38   37 ar   
    65   39   38 ar   
    66   63   38 1    
    67   40   39 ar   
    68   41   40 1    
    69   42   40 ar   
    70   64   41 1    
    71   65   41 1    
    72   43   42 1    
    73   44   43 2    
    74   66   44 1    
@<TRIPOS>SUBSTRUCTURE
     1 TXD600      1 GROUP   
@<TRIPOS>SET

