#    Name: 4aux_XTC_1_INTS_M
#    Modification time : Tue Mar 25 06:17:01 2014

@<TRIPOS>MOLECULE
4aux_XTC_1_INTS_M
   41     0    12     0     0
SMALL
NO_CHARGES


@<TRIPOS>ATOM
      1 CA         22.5360   42.7305   32.8555 C.3       4 GLC5        0.0000 
      2 CA         22.5200   42.2450   34.8700 C.3      12 GLL5        0.0000 
      3 CA         22.5520   43.2160   30.8410 C.3       8 GLP5        0.0000 
      4 CA         21.0665   41.3740   33.4025 C.3       4 GLC5        0.0000 
      5 CA         19.6130   40.5030   31.9350 C.3       8 GLP5        0.0000 
      6 CA         20.8525   40.1810   33.3535 C.3       4 GLC5        0.0000 
      7 CA         22.0920   39.8590   34.7720 C.3      12 GLL5        0.0000 
      8 Zn         23.2535   37.6915   32.3665 Zn        3 ZIC7        0.0000 
      9 Zn         22.7580   38.4780   32.9030 Zn       11 ZIL7        0.0000 
     10 Zn         23.7490   36.9050   31.8300 Zn        7 ZIP7        0.0000 
     11 Zn         23.1825   36.3905   32.4855 Zn        3 ZIC7        0.0000 
     12 Zn         22.6160   35.8760   33.1410 Zn       11 ZIL7        0.0000 
     13 O          21.9450   32.3130   39.2020 O.2       1 ALC1        0.0000 
     14 O          22.0170   33.2430   38.2620 O.2       9 ALL1        0.0000 
     15 O          21.8730   31.3830   40.1420 O.2       5 ALP1        0.0000 
     16 CA         22.6540   35.9895   39.8480 C.3       4 GLC5        0.0000 
     17 CA         22.6460   33.9620   39.4000 C.3      12 GLL5        0.0000 
     18 CA         22.6620   38.0170   40.2960 C.3       8 GLP5        0.0000 
     19 CA         24.3295   31.8265   36.4140 C.3       4 GLC5        0.0000 
     20 CA         23.0810   32.6090   37.4480 C.3      12 GLL5        0.0000 
     21 CA         25.5780   31.0440   35.3800 C.3       8 GLP5        0.0000 
     22 N          19.8800   30.7605   36.7325 N.am      2 SEC2        0.0000 
     23 N          19.9660   32.0030   37.2390 N.am     10 SEL2        0.0000 
     24 N          19.7940   29.5180   36.2260 N.am      6 SEP2        0.0000 
     25 N          19.9655   31.1605   38.4580 N.am      2 SEC2        0.0000 
     26 N          19.9650   30.3180   39.6770 N.am      6 SEP2        0.0000 
     27 N          18.7625   32.6005   38.2620 N.am      2 SEC2        0.0000 
     28 N          17.5590   33.1980   39.2850 N.am      6 SEP2        0.0000 
     29 CA         19.4180   31.4315   35.2760 C.3       4 GLC5        0.0000 
     30 CA         19.5130   33.5540   35.5510 C.3      12 GLL5        0.0000 
     31 CA         19.3230   29.3090   35.0010 C.3       8 GLP5        0.0000 
     32 CA         22.0885   42.5838   38.0328 C.3       4 GLC5        0.0000 
     33 CA         21.0410   41.2110   36.4890 C.3      12 GLL5        0.0000 
     34 CA         22.8230   43.3920   39.8370 C.3       8 GLP5        0.0000 
     35 CA         19.7755   39.6342   34.5285 C.3       4 GLC5        0.0000 
     36 CA         20.6000   38.7740   36.4270 C.3      12 GLL5        0.0000 
     37 CA         18.6190   39.8900   32.9030 C.3       8 GLP5        0.0000 
     38 CA         19.0476   39.4263   36.6905 C.3       4 GLC5        0.0000 
     39 CA         17.2190   39.1670   37.0750 C.3       8 GLP5        0.0000 
     40 CA         21.8342   37.6672   38.4778 C.3       4 GLC5        0.0000 
     41 CA         20.9200   36.4400   36.9590 C.3      12 GLL5        0.0000 
@<TRIPOS>BOND
@<TRIPOS>SUBSTRUCTURE
     1 ALC1       13 GROUP        1 X    ALC  0     ROOT ALC X 1
     2 SEC2       22 GROUP        1 X    SEC  0     **** SEC X 2
     3 ZIC7        8 GROUP        1 X    ZIC  0     **** ZIC X 5
     4 GLC5        1 GROUP        1 X    GLC  0     **** GLC X 6
     5 ALP1       15 GROUP        1 Y    ALP  0     ROOT ALP Y 8
     6 SEP2       24 GROUP        1 Y    SEP  0     **** SEP Y 9
     7 ZIP7       10 GROUP        1 Y    ZIP  0     **** ZIP Y 12
     8 GLP5        3 GROUP        1 Y    GLP  0     **** GLP Y 13
     9 ALL1       14 GROUP        1 Z    ALL  0     ROOT ALL Z 15
    10 SEL2       23 GROUP        1 Z    SEL  0     **** SEL Z 16
    11 ZIL7        9 GROUP        1 Z    ZIL  0     **** ZIL Z 19
    12 GLL5        2 GROUP        1 Z    GLL  0     **** GLL Z 20
@<TRIPOS>SET

