#    Name: 4aux_XTC_1_ligand
#    Modification time : Tue Mar 25 06:17:01 2014

@<TRIPOS>MOLECULE
4aux_XTC_1_ligand
   52    55     1     0     0
SMALL
NO_CHARGES


@<TRIPOS>ATOM
      1 O92        22.7470   44.5170   34.8470 O.2       1 XTC222      0.0000 
      2 N9         23.1250   43.4290   34.4030 N.pl3     1 XTC222      0.0000 
      3 O91        24.0240   43.4190   33.5580 O.2       1 XTC222      0.0000 
      4 C9         22.5200   42.2450   34.8700 C.ar      1 XTC222      0.0000 
      5 C8         21.6670   42.3400   35.9680 C.ar      1 XTC222      0.0000 
      6 C7         21.0410   41.2110   36.4890 C.ar      1 XTC222      0.0000 
      7 C10        22.7350   40.9990   34.2520 C.ar      1 XTC222      0.0000 
      8 O10        23.5470   40.8980   33.1540 O.co2     1 XTC222      0.0000 
      9 C1A        22.0920   39.8590   34.7720 C.ar      1 XTC222      0.0000 
     10 C61        21.2640   39.9830   35.8810 C.ar      1 XTC222      0.0000 
     11 C6         20.6000   38.7740   36.4270 C.3       1 XTC222      0.0000 
     12 C11        22.2790   38.5030   34.1510 C.2       1 XTC222      0.0000 
     13 O11        22.7580   38.4780   32.9030 O.2       1 XTC222      0.0000 
     14 C1B        21.9680   37.3840   34.8510 C.2       1 XTC222      0.0000 
     15 C51        21.5860   37.6160   36.2930 C.3       1 XTC222      0.0000 
     16 C5         20.9200   36.4400   36.9590 C.3       1 XTC222      0.0000 
     17 C12        22.0310   36.1300   34.3320 C.2       1 XTC222      0.0000 
     18 O12        22.6160   35.8760   33.1410 O.co2     1 XTC222      0.0000 
     19 C1C        21.5310   34.9160   35.0980 C.3       1 XTC222      0.0000 
     20 O1C        22.4210   33.8730   34.6900 O.3       1 XTC222      0.0000 
     21 C1         20.1080   34.5220   34.7950 C.2       1 XTC222      0.0000 
     22 O1         19.5000   35.1830   33.8020 O.2       1 XTC222      0.0000 
     23 C41        21.6480   35.1640   36.6120 C.3       1 XTC222      0.0000 
     24 C4         21.0410   34.0830   37.5070 C.3       1 XTC222      0.0000 
     25 N4         22.0170   33.2430   38.2620 N.4       1 XTC222      0.0000 
     26 C43        22.6460   33.9620   39.4000 C.3       1 XTC222      0.0000 
     27 C42        23.0810   32.6090   37.4480 C.3       1 XTC222      0.0000 
     28 C3         20.1230   33.2060   36.7120 C.2       1 XTC222      0.0000 
     29 O3         19.9660   32.0030   37.2390 O.co2     1 XTC222      0.0000 
     30 C2         19.5130   33.5540   35.5510 C.2       1 XTC222      0.0000 
     31 C21        18.2480   32.8310   35.1680 C.2       1 XTC222      0.0000 
     32 O21        17.8080   31.9030   35.8220 O.2       1 XTC222      0.0000 
     33 N21        17.5210   33.1470   34.0980 N.am      1 XTC222      0.0000 
     34 H          21.4969   43.2635   36.4019 H         1 XTC222      0.0000 
     35 H          20.4303   41.2864   37.3022 H         1 XTC222      0.0000 
     36 H          19.7092   38.5416   35.8638 H         1 XTC222      0.0000 
     37 H          20.3599   38.9098   37.4704 H         1 XTC222      0.0000 
     38 H          22.4677   37.8826   36.8712 H         1 XTC222      0.0000 
     39 H          19.8847   36.3694   36.6242 H         1 XTC222      0.0000 
     40 H          20.9289   36.5801   38.0403 H         1 XTC222      0.0000 
     41 H          22.6851   35.2955   36.8769 H         1 XTC222      0.0000 
     42 H          20.3961   34.6096   38.2551 H         1 XTC222      0.0000 
     43 H          21.4282   32.3924   38.7303 H         1 XTC222      0.0000 
     44 H          16.7114   32.5834   33.9340 H         1 XTC222      0.0000 
     45 H          17.8502   33.9194   33.5549 H         1 XTC222      0.0000 
     46 H          23.2988   33.3838   39.8894 H         1 XTC222      0.0000 
     47 H          23.1441   34.7743   39.0964 H         1 XTC222      0.0000 
     48 H          21.9668   34.2671   40.0675 H         1 XTC222      0.0000 
     49 H          23.6403   33.2887   36.9735 H         1 XTC222      0.0000 
     50 H          23.7003   32.0598   38.0091 H         1 XTC222      0.0000 
     51 H          22.7022   32.0019   36.7495 H         1 XTC222      0.0000 
     52 H          23.3106   34.3178   34.5865 H         1 XTC222      0.0000 
@<TRIPOS>BOND
     1    2    1 2    
     2    3    2 2    
     3    4    2 1    
     4    5    4 ar   
     5    7    4 ar   
     6    6    5 ar   
     7   34    5 1    
     8   10    6 ar   
     9   35    6 1    
    10    8    7 ar   
    11    9    7 ar   
    12   10    9 ar   
    13   12    9 1    
    14   11   10 1    
    15   15   11 1    
    16   36   11 1    
    17   37   11 1    
    18   13   12 2    
    19   14   12 1    
    20   15   14 1    
    21   17   14 2    
    22   16   15 1    
    23   38   15 1    
    24   23   16 1    
    25   39   16 1    
    26   40   16 1    
    27   18   17 ar   
    28   19   17 1    
    29   20   19 1    
    30   21   19 1    
    31   23   19 1    
    32   52   20 1    
    33   22   21 2    
    34   30   21 1    
    35   24   23 1    
    36   41   23 1    
    37   25   24 1    
    38   28   24 1    
    39   42   24 1    
    40   26   25 1    
    41   27   25 1    
    42   43   25 1    
    43   46   26 1    
    44   47   26 1    
    45   48   26 1    
    46   49   27 1    
    47   50   27 1    
    48   51   27 1    
    49   29   28 ar   
    50   30   28 2    
    51   31   30 1    
    52   32   31 2    
    53   33   31 am   
    54   44   33 1    
    55   45   33 1    
@<TRIPOS>SUBSTRUCTURE
     1 XTC222      1 GROUP   
@<TRIPOS>SET

