#    Name: 3pb3_SAH_2_INTS_M
#    Modification time : Tue Mar 25 06:11:50 2014

@<TRIPOS>MOLECULE
3pb3_SAH_2_INTS_M
   78     0     9     0     0
SMALL
NO_CHARGES


@<TRIPOS>ATOM
      1 O          22.5935   23.8965   25.6745 O.2       1 ALC1        0.0000 
      2 O          22.2070   23.4340   26.9200 O.2       7 ALL1        0.0000 
      3 O          22.9800   24.3590   24.4290 O.2       4 ALP1        0.0000 
      4 O          23.0835   22.6350   27.5085 O.2       1 ALC1        0.0000 
      5 O          23.9600   21.8360   28.0970 O.2       4 ALP1        0.0000 
      6 O          21.5375   24.5690   27.4430 O.2       1 ALC1        0.0000 
      7 O          20.8680   25.7040   27.9660 O.2       4 ALP1        0.0000 
      8 O          23.6615   22.9870   26.1335 O.2       1 ALC1        0.0000 
      9 O          25.1160   22.5400   25.3470 O.2       4 ALP1        0.0000 
     10 CA         19.9915   23.4710   24.7870 C.3       3 GLC5        0.0000 
     11 CA         21.0450   22.6370   26.4210 C.3       9 GLL5        0.0000 
     12 CA         18.9380   24.3050   23.1530 C.3       6 GLP5        0.0000 
     13 CA         19.7145   22.6435   23.8755 C.3       3 GLC5        0.0000 
     14 CA         20.4910   20.9820   24.5980 C.3       9 GLL5        0.0000 
     15 CA         19.5520   18.9935   22.2795 C.3       3 GLC5        0.0000 
     16 CA         20.9700   19.5260   23.7100 C.3       9 GLL5        0.0000 
     17 CA         18.1340   18.4610   20.8490 C.3       6 GLP5        0.0000 
     18 N          18.0565   21.7945   28.2510 N.am      2 SEC2        0.0000 
     19 N          19.0170   21.9160   27.3570 N.am      8 SEL2        0.0000 
     20 N          17.0960   21.6730   29.1450 N.am      5 SEP2        0.0000 
     21 CA         24.2170   19.6725   24.2340 C.3       3 GLC5        0.0000 
     22 CA         22.4910   19.9380   22.9210 C.3       9 GLL5        0.0000 
     23 CA         25.9430   19.4070   25.5470 C.3       6 GLP5        0.0000 
     24 CA         19.8435   19.8075   20.8435 C.3       3 GLC5        0.0000 
     25 CA         21.5530   21.1540   20.8380 C.3       9 GLL5        0.0000 
     26 O          20.9565   23.4725   20.9020 O.2       1 ALC1        0.0000 
     27 O          20.5480   22.1700   20.8990 O.2       7 ALL1        0.0000 
     28 O          21.3650   24.7750   20.9050 O.2       4 ALP1        0.0000 
     29 O          21.6680   23.5010   19.7575 O.2       1 ALC1        0.0000 
     30 O          21.9710   22.2270   18.6100 O.2       7 ALL1        0.0000 
     31 O          21.5175   23.4455   18.6735 O.2       1 ALC1        0.0000 
     32 O          21.0640   24.6640   18.7370 O.2       4 ALP1        0.0000 
     33 CA         24.0710   23.6900   21.5700 C.3       3 GLC5        0.0000 
     34 CA         23.6740   22.1520   20.3800 C.3       9 GLL5        0.0000 
     35 CA         24.4680   25.2280   22.7600 C.3       6 GLP5        0.0000 
     36 N          27.6550   20.2180   17.7210 N.am      2 SEC2        0.0000 
     37 N          26.5560   20.9190   18.4960 N.am      8 SEL2        0.0000 
     38 N          28.7540   19.5170   16.9460 N.am      5 SEP2        0.0000 
     39 N          27.8690   20.1100   19.2500 N.am      2 SEC2        0.0000 
     40 N          29.1820   19.3010   20.0040 N.am      5 SEP2        0.0000 
     41 CA         25.3645   23.3790   17.3235 C.3       3 GLC5        0.0000 
     42 CA         26.8480   22.2310   18.5200 C.3       9 GLL5        0.0000 
     43 CA         23.8810   24.5270   16.1270 C.3       6 GLP5        0.0000 
     44 CA         27.9030   24.5950   16.5060 C.3       3 GLC5        0.0000 
     45 CA         27.9400   23.0890   18.0130 C.3       9 GLL5        0.0000 
     46 CA         27.8660   26.1010   14.9990 C.3       6 GLP5        0.0000 
     47 CA         29.4610   24.4260   18.6025 C.3       3 GLC5        0.0000 
     48 CA         30.9820   25.7630   19.1920 C.3       6 GLP5        0.0000 
     49 O          29.7405   23.4235   16.4210 O.2       1 ALC1        0.0000 
     50 O          28.9710   22.5490   17.3180 O.2       7 ALL1        0.0000 
     51 O          30.5100   24.2980   15.5240 O.2       4 ALP1        0.0000 
     52 O          28.8625   21.0330   17.1320 O.2       1 ALC1        0.0000 
     53 O          28.7540   19.5170   16.9460 O.2       4 ALP1        0.0000 
     54 N          28.6340   25.5660   17.9285 N.am      2 SEC2        0.0000 
     55 N          27.8730   24.4170   18.2680 N.am      8 SEL2        0.0000 
     56 N          29.3950   26.7150   17.5890 N.am      5 SEP2        0.0000 
     57 CA         27.4710   26.4490   20.0790 C.3       3 GLC5        0.0000 
     58 CA         26.8510   24.9640   18.9570 C.3       9 GLL5        0.0000 
     59 CA         28.0910   27.9340   21.2010 C.3       6 GLP5        0.0000 
     60 CA         25.6595   25.0960   20.8585 C.3       3 GLC5        0.0000 
     61 CA         25.3040   25.2105   18.1280 C.3       3 GLC5        0.0000 
     62 CA         23.7570   25.4570   17.2990 C.3       6 GLP5        0.0000 
     63 CA         27.2215   26.0800   17.4930 C.3       3 GLC5        0.0000 
     64 CA         27.5920   27.1960   16.0290 C.3       6 GLP5        0.0000 
     65 CA         28.9165   25.3635   19.0745 C.3       3 GLC5        0.0000 
     66 CA         27.1515   23.9845   20.8985 C.3       3 GLC5        0.0000 
     67 CA         27.4520   23.0050   22.8400 C.3       6 GLP5        0.0000 
     68 CA         25.1185   24.0630   21.0135 C.3       3 GLC5        0.0000 
     69 CA         25.7690   22.8980   19.2670 C.3       9 GLL5        0.0000 
     70 CA         24.7630   24.1775   18.2830 C.3       3 GLC5        0.0000 
     71 CA         20.6657   20.2273   26.5985 C.3       3 GLC5        0.0000 
     72 CA         21.5180   21.3960   25.6530 C.3       9 GLL5        0.0000 
     73 CA         20.0500   18.4380   27.1600 C.3       6 GLP5        0.0000 
     74 CA         20.3902   19.3460   25.6570 C.3       3 GLC5        0.0000 
     75 CA         22.7502   18.0035   23.1552 C.3       3 GLC5        0.0000 
     76 CA         23.7700   16.2750   22.9950 C.3       6 GLP5        0.0000 
     77 CA         27.4722   21.9325   20.1359 C.3       3 GLC5        0.0000 
     78 CA         28.3630   21.0860   21.5050 C.3       6 GLP5        0.0000 
@<TRIPOS>BOND
@<TRIPOS>SUBSTRUCTURE
     1 ALC1        1 GROUP        1 X    ALC  0     ROOT ALC X 1
     2 SEC2       18 GROUP        1 X    SEC  0     **** SEC X 2
     3 GLC5       10 GROUP        1 X    GLC  0     **** GLC X 6
     4 ALP1        3 GROUP        1 Y    ALP  0     ROOT ALP Y 8
     5 SEP2       20 GROUP        1 Y    SEP  0     **** SEP Y 9
     6 GLP5       12 GROUP        1 Y    GLP  0     **** GLP Y 13
     7 ALL1        2 GROUP        1 Z    ALL  0     ROOT ALL Z 15
     8 SEL2       19 GROUP        1 Z    SEL  0     **** SEL Z 16
     9 GLL5       11 GROUP        1 Z    GLL  0     **** GLL Z 20
@<TRIPOS>SET

