#    Name: 3pb3_SAH_2_ligand
#    Modification time : Tue Mar 25 06:11:51 2014

@<TRIPOS>MOLECULE
3pb3_SAH_2_ligand
   46    48     1     0     0
SMALL
NO_CHARGES


@<TRIPOS>ATOM
      1 N          22.2070   23.4340   26.9200 N.4       1 SAH6732     0.0000 
      2 CA         21.0450   22.6370   26.4210 C.3       1 SAH6732     0.0000 
      3 CB         21.5180   21.3960   25.6530 C.3       1 SAH6732     0.0000 
      4 CG         20.4910   20.9820   24.5980 C.3       1 SAH6732     0.0000 
      5 SD         20.9700   19.5260   23.7100 S.3       1 SAH6732     0.0000 
      6 C          20.1800   22.2290   27.5800 C.2       1 SAH6732     0.0000 
      7 O          19.0170   21.9160   27.3570 O.co2     1 SAH6732     0.0000 
      8 OXT        20.5760   22.1920   28.7480 O.co2     1 SAH6732     0.0000 
      9 C5'        22.4910   19.9380   22.9210 C.3       1 SAH6732     0.0000 
     10 C4'        22.4150   21.2290   22.1000 C.3       1 SAH6732     0.0000 
     11 O4'        23.7380   21.5660   21.6750 O.3       1 SAH6732     0.0000 
     12 C3'        21.5530   21.1540   20.8380 C.3       1 SAH6732     0.0000 
     13 O3'        20.5480   22.1700   20.8990 O.3       1 SAH6732     0.0000 
     14 C2'        22.5140   21.4490   19.6930 C.3       1 SAH6732     0.0000 
     15 O2'        21.9710   22.2270   18.6100 O.3       1 SAH6732     0.0000 
     16 C1'        23.6740   22.1520   20.3800 C.3       1 SAH6732     0.0000 
     17 N9         24.9260   21.9340   19.6210 N.pl3     1 SAH6732     0.0000 
     18 C8         25.3870   20.7530   19.1590 C.2       1 SAH6732     0.0000 
     19 N7         26.5560   20.9190   18.4960 N.2       1 SAH6732     0.0000 
     20 C5         26.8480   22.2310   18.5200 C.ar      1 SAH6732     0.0000 
     21 C6         27.9400   23.0890   18.0130 C.ar      1 SAH6732     0.0000 
     22 N6         28.9710   22.5490   17.3180 N.pl3     1 SAH6732     0.0000 
     23 N1         27.8730   24.4170   18.2680 N.ar      1 SAH6732     0.0000 
     24 C2         26.8510   24.9640   18.9570 C.ar      1 SAH6732     0.0000 
     25 N3         25.8260   24.2420   19.4520 N.ar      1 SAH6732     0.0000 
     26 C4         25.7690   22.8980   19.2670 C.ar      1 SAH6732     0.0000 
     27 H          20.4572   23.2475   25.7463 H         1 SAH6732     0.0000 
     28 H          21.6638   20.5767   26.3544 H         1 SAH6732     0.0000 
     29 H          22.4654   21.6179   25.1655 H         1 SAH6732     0.0000 
     30 H          20.3697   21.7172   23.8225 H         1 SAH6732     0.0000 
     31 H          19.5410   20.7120   25.0236 H         1 SAH6732     0.0000 
     32 H          22.7036   19.0731   22.3140 H         1 SAH6732     0.0000 
     33 H          23.1895   20.0078   23.7389 H         1 SAH6732     0.0000 
     34 H          22.0259   22.0197   22.7321 H         1 SAH6732     0.0000 
     35 H          21.1754   20.1844   20.7374 H         1 SAH6732     0.0000 
     36 H          22.9033   20.4861   19.3510 H         1 SAH6732     0.0000 
     37 H          23.4382   23.1922   20.4359 H         1 SAH6732     0.0000 
     38 H          24.9386   19.8906   19.2848 H         1 SAH6732     0.0000 
     39 H          29.7031   23.1782   17.0569 H         1 SAH6732     0.0000 
     40 H          28.9082   21.5692   17.1279 H         1 SAH6732     0.0000 
     41 H          26.8540   26.0157   19.1175 H         1 SAH6732     0.0000 
     42 H          22.7859   22.9005   27.5366 H         1 SAH6732     0.0000 
     43 H          22.7896   23.7501   26.1712 H         1 SAH6732     0.0000 
     44 H          21.9116   24.2455   27.4242 H         1 SAH6732     0.0000 
     45 H          21.0533   23.0326   20.9225 H         1 SAH6732     0.0000 
     46 H          21.7105   23.0995   19.0235 H         1 SAH6732     0.0000 
@<TRIPOS>BOND
     1    2    1 1    
     2   42    1 1    
     3   43    1 1    
     4   44    1 1    
     5    3    2 1    
     6    6    2 1    
     7   27    2 1    
     8    4    3 1    
     9   28    3 1    
    10   29    3 1    
    11    5    4 1    
    12   30    4 1    
    13   31    4 1    
    14    9    5 1    
    15    7    6 ar   
    16    8    6 ar   
    17   10    9 1    
    18   32    9 1    
    19   33    9 1    
    20   11   10 1    
    21   12   10 1    
    22   34   10 1    
    23   16   11 1    
    24   13   12 1    
    25   14   12 1    
    26   35   12 1    
    27   45   13 1    
    28   15   14 1    
    29   16   14 1    
    30   36   14 1    
    31   46   15 1    
    32   17   16 1    
    33   37   16 1    
    34   18   17 1    
    35   26   17 1    
    36   19   18 2    
    37   38   18 1    
    38   20   19 1    
    39   21   20 ar   
    40   26   20 ar   
    41   22   21 1    
    42   23   21 ar   
    43   39   22 1    
    44   40   22 1    
    45   24   23 ar   
    46   25   24 ar   
    47   41   24 1    
    48   26   25 ar   
@<TRIPOS>SUBSTRUCTURE
     1 SAH6732     1 GROUP   
@<TRIPOS>SET

