#    Name: 4l7n_1VB_1_INTS_M
#    Modification time : Tue Mar 25 09:52:10 2014

@<TRIPOS>MOLECULE
4l7n_1VB_1_INTS_M
   59     0     9     0     0
SMALL
NO_CHARGES


@<TRIPOS>ATOM
      1 CA         26.3690   -2.8185   12.7240 C.3       3 GLC5        0.0000 
      2 CA         24.3520   -2.3810   12.6390 C.3       9 GLL5        0.0000 
      3 CA         28.3860   -3.2560   12.8090 C.3       6 GLP5        0.0000 
      4 O          26.0650    3.8075   12.2975 O.2       1 ALC1        0.0000 
      5 O          26.1820    2.3810   12.0160 O.2       7 ALL1        0.0000 
      6 O          25.9480    5.2340   12.5790 O.2       4 ALP1        0.0000 
      7 O          25.2065    3.1130   12.4855 O.2       1 ALC1        0.0000 
      8 O          24.2310    3.8450   12.9550 O.2       4 ALP1        0.0000 
      9 CA         25.3940   -4.7905   16.1240 C.3       3 GLC5        0.0000 
     10 CA         24.0980   -3.8010   15.2750 C.3       9 GLL5        0.0000 
     11 CA         26.6900   -5.7800   16.9730 C.3       6 GLP5        0.0000 
     12 N          19.4245   -1.4370   14.3215 N.am      2 SEC2        0.0000 
     13 N          20.2950   -2.8580   14.2800 N.am      8 SEL2        0.0000 
     14 N          18.5540   -0.0160   14.3630 N.am      5 SEP2        0.0000 
     15 CA         19.0630   -6.3890   14.3130 C.3       3 GLC5        0.0000 
     16 CA         20.3030   -4.9800   13.0790 C.3       9 GLL5        0.0000 
     17 CA         17.8230   -7.7980   15.5470 C.3       6 GLP5        0.0000 
     18 CA         17.5680   -5.2300   14.4430 C.3       3 GLC5        0.0000 
     19 CA         18.8360   -4.6960   13.1170 C.3       9 GLL5        0.0000 
     20 CA         16.3000   -5.7640   15.7690 C.3       6 GLP5        0.0000 
     21 CA         15.2625   -7.4925    8.4265 C.3       3 GLC5        0.0000 
     22 CA         15.4670   -8.1680   10.3920 C.3       9 GLL5        0.0000 
     23 CA         15.0580   -6.8170    6.4610 C.3       6 GLP5        0.0000 
     24 CA         14.0930   -9.7570   11.0715 C.3       3 GLC5        0.0000 
     25 CA         12.7190  -11.3460   11.7510 C.3       6 GLP5        0.0000 
     26 CA         13.7595   -7.5400   11.6725 C.3       3 GLC5        0.0000 
     27 CA         12.0520   -6.9120   12.9530 C.3       6 GLP5        0.0000 
     28 N          14.2765   -4.2995   11.5390 N.am      2 SEC2        0.0000 
     29 N          14.7290   -5.6210   11.1790 N.am      8 SEL2        0.0000 
     30 N          13.8240   -2.9780   11.8990 N.am      5 SEP2        0.0000 
     31 N          13.4295   -5.9505   10.9255 N.am      2 SEC2        0.0000 
     32 N          12.1300   -6.2800   10.6720 N.am      5 SEP2        0.0000 
     33 O          16.4495   -4.0815   12.8045 O.2       1 ALC1        0.0000 
     34 O          16.7780   -5.2220   12.0810 O.2       7 ALL1        0.0000 
     35 O          16.1210   -2.9410   13.5280 O.2       4 ALP1        0.0000 
     36 CA         26.2961   -0.7177   13.4224 C.3       3 GLC5        0.0000 
     37 CA         24.9550   -1.4520   11.7860 C.3       9 GLL5        0.0000 
     38 CA         28.0460   -1.2200   14.2610 C.3       6 GLP5        0.0000 
     39 CA         23.0682    1.3040   14.8753 C.3       3 GLC5        0.0000 
     40 CA         24.1880    0.3370   13.2320 C.3       9 GLL5        0.0000 
     41 CA         22.2670    2.7410   16.1090 C.3       6 GLP5        0.0000 
     42 CA         23.9295   -0.9387   15.9280 C.3       3 GLC5        0.0000 
     43 CA         23.5510   -0.6030   14.0510 C.3       9 GLL5        0.0000 
     44 CA         24.2680   -0.5910   17.9480 C.3       6 GLP5        0.0000 
     45 CA         23.9160   -1.9790   16.4488 C.3       3 GLC5        0.0000 
     46 CA         23.0300   -2.9330   14.6240 C.3       9 GLL5        0.0000 
     47 CA         18.4920   -8.0162    9.6845 C.3       3 GLC5        0.0000 
     48 CA         17.5940   -7.7260   11.3810 C.3       9 GLL5        0.0000 
     49 CA         19.1840   -7.6460    8.1330 C.3       6 GLP5        0.0000 
     50 CA         17.8603   -8.6700    9.1815 C.3       3 GLC5        0.0000 
     51 CA         17.1700   -9.9000   10.4090 C.3       9 GLL5        0.0000 
     52 CA         15.6918  -11.1030   11.3530 C.3       3 GLC5        0.0000 
     53 CA         14.8470  -12.5120   12.4760 C.3       6 GLP5        0.0000 
     54 CA         16.5057  -11.5205    9.4030 C.3       3 GLC5        0.0000 
     55 CA         15.9030   -9.4880   10.0510 C.3       9 GLL5        0.0000 
     56 CA         16.4750  -13.3470    8.5760 C.3       6 GLP5        0.0000 
     57 CA         13.7565   -8.9660    9.5352 C.3       3 GLC5        0.0000 
     58 CA         11.8280   -9.1040    8.8490 C.3       6 GLP5        0.0000 
     59 CA         17.5415   -7.6930    9.4245 C.3       3 GLC5        0.0000 
@<TRIPOS>BOND
@<TRIPOS>SUBSTRUCTURE
     1 ALC1        4 GROUP        1 X    ALC  0     ROOT ALC X 1
     2 SEC2       12 GROUP        1 X    SEC  0     **** SEC X 2
     3 GLC5        1 GROUP        1 X    GLC  0     **** GLC X 6
     4 ALP1        6 GROUP        1 Y    ALP  0     ROOT ALP Y 8
     5 SEP2       14 GROUP        1 Y    SEP  0     **** SEP Y 9
     6 GLP5        3 GROUP        1 Y    GLP  0     **** GLP Y 13
     7 ALL1        5 GROUP        1 Z    ALL  0     ROOT ALL Z 15
     8 SEL2       13 GROUP        1 Z    SEL  0     **** SEL Z 16
     9 GLL5        2 GROUP        1 Z    GLL  0     **** GLL Z 20
@<TRIPOS>SET

