#    Name: 4l7n_1VB_1_ligand
#    Modification time : Tue Mar 25 09:52:10 2014

@<TRIPOS>MOLECULE
4l7n_1VB_1_ligand
   48    50     1     0     0
SMALL
NO_CHARGES


@<TRIPOS>ATOM
      1 CAI        24.3520   -2.3810   12.6390 C.ar      1 1VB601      0.0000 
      2 CAK        24.9550   -1.4520   11.7860 C.ar      1 1VB601      0.0000 
      3 CAV        24.8540   -0.0840   12.0850 C.ar      1 1VB601      0.0000 
      4 SBB        25.6960    1.1480   11.0320 S.o2      1 1VB601      0.0000 
      5 OAE        26.9310    0.4030   10.5120 O.2       1 1VB601      0.0000 
      6 OAF        24.7990    1.6600    9.9060 O.2       1 1VB601      0.0000 
      7 NAB        26.1820    2.3810   12.0160 N.pl3     1 1VB601      0.0000 
      8 CAL        24.1880    0.3370   13.2320 C.ar      1 1VB601      0.0000 
      9 CAJ        23.5510   -0.6030   14.0510 C.ar      1 1VB601      0.0000 
     10 CAU        23.6310   -1.9700   13.7650 C.ar      1 1VB601      0.0000 
     11 CBA        23.0300   -2.9330   14.6240 C.3       1 1VB601      0.0000 
     12 CAA        24.0980   -3.8010   15.2750 C.3       1 1VB601      0.0000 
     13 NAR        22.2200   -3.9200   13.9050 N.am      1 1VB601      0.0000 
     14 CAT        20.9290   -3.8140   13.8250 C.2       1 1VB601      0.0000 
     15 OAC        20.2950   -2.8580   14.2800 O.2       1 1VB601      0.0000 
     16 CAO        20.3030   -4.9800   13.0790 C.3       1 1VB601      0.0000 
     17 CAP        18.8360   -4.6960   13.1170 C.3       1 1VB601      0.0000 
     18 CAW        18.0510   -5.6520   12.4220 C.2       1 1VB601      0.0000 
     19 NAQ        18.4530   -6.8890   12.0780 N.2       1 1VB601      0.0000 
     20 CAY        17.5940   -7.7260   11.3810 C.ar      1 1VB601      0.0000 
     21 CAM        18.0060   -9.0470   11.0910 C.ar      1 1VB601      0.0000 
     22 CAG        17.1700   -9.9000   10.4090 C.ar      1 1VB601      0.0000 
     23 CAH        15.9030   -9.4880   10.0510 C.ar      1 1VB601      0.0000 
     24 CAN        15.4670   -8.1680   10.3920 C.ar      1 1VB601      0.0000 
     25 CAZ        16.3310   -7.3120   11.0400 C.ar      1 1VB601      0.0000 
     26 CAX        15.8930   -6.0230   11.3910 C.2       1 1VB601      0.0000 
     27 OAD        14.7290   -5.6210   11.1790 O.2       1 1VB601      0.0000 
     28 NAS        16.7780   -5.2220   12.0810 N.am      1 1VB601      0.0000 
     29 H          24.4404   -3.3909   12.4341 H         1 1VB601      0.0000 
     30 H          25.4615   -1.7607   10.9579 H         1 1VB601      0.0000 
     31 H          25.5183    3.1145   12.1628 H         1 1VB601      0.0000 
     32 H          27.1048    2.3049   12.3938 H         1 1VB601      0.0000 
     33 H          24.1617    1.3313   13.4798 H         1 1VB601      0.0000 
     34 H          23.0178   -0.2841   14.8728 H         1 1VB601      0.0000 
     35 H          22.4538   -2.5003   15.4103 H         1 1VB601      0.0000 
     36 H          22.7625   -4.7014   13.4708 H         1 1VB601      0.0000 
     37 H          20.5208   -5.8893   13.5925 H         1 1VB601      0.0000 
     38 H          20.6557   -4.9891   12.0722 H         1 1VB601      0.0000 
     39 H          18.6734   -3.6702   12.7049 H         1 1VB601      0.0000 
     40 H          18.5264   -4.6280   14.1885 H         1 1VB601      0.0000 
     41 H          18.9383   -9.3552   11.3987 H         1 1VB601      0.0000 
     42 H          17.4897  -10.8516   10.1634 H         1 1VB601      0.0000 
     43 H          15.2636  -10.1026    9.5463 H         1 1VB601      0.0000 
     44 H          14.5173   -7.8851   10.1463 H         1 1VB601      0.0000 
     45 H          16.4821   -4.2575   12.3577 H         1 1VB601      0.0000 
     46 H          24.6404   -4.2948   14.5953 H         1 1VB601      0.0000 
     47 H          24.7361   -3.2579   15.8208 H         1 1VB601      0.0000 
     48 H          23.6991   -4.4855   15.8853 H         1 1VB601      0.0000 
@<TRIPOS>BOND
     1    2    1 ar   
     2   10    1 ar   
     3   29    1 1    
     4    3    2 ar   
     5   30    2 1    
     6    4    3 1    
     7    8    3 ar   
     8    5    4 2    
     9    6    4 2    
    10    7    4 1    
    11   31    7 1    
    12   32    7 1    
    13    9    8 ar   
    14   33    8 1    
    15   10    9 ar   
    16   34    9 1    
    17   11   10 1    
    18   12   11 1    
    19   13   11 1    
    20   35   11 1    
    21   46   12 1    
    22   47   12 1    
    23   48   12 1    
    24   14   13 am   
    25   36   13 1    
    26   15   14 2    
    27   16   14 1    
    28   17   16 1    
    29   37   16 1    
    30   38   16 1    
    31   18   17 1    
    32   39   17 1    
    33   40   17 1    
    34   19   18 2    
    35   28   18 1    
    36   20   19 1    
    37   21   20 ar   
    38   25   20 ar   
    39   22   21 ar   
    40   41   21 1    
    41   23   22 ar   
    42   42   22 1    
    43   24   23 ar   
    44   43   23 1    
    45   25   24 ar   
    46   44   24 1    
    47   26   25 1    
    48   27   26 2    
    49   28   26 am   
    50   45   28 1    
@<TRIPOS>SUBSTRUCTURE
     1 1VB601      1 GROUP   
@<TRIPOS>SET

