#    Name: 1dxq_FAD_3_INTS_M
#    Modification time : Mon Mar 24 22:33:13 2014

@<TRIPOS>MOLECULE
1dxq_FAD_3_INTS_M
   85     0     9     0     0
SMALL
NO_CHARGES


@<TRIPOS>ATOM
      1 CA        -10.7530  -24.2430   11.0685 C.3       3 GLC5        0.0000 
      2 CA        -12.2060  -25.0380   10.3760 C.3       9 GLL5        0.0000 
      3 CA         -9.3000  -23.4480   11.7610 C.3       6 GLP5        0.0000 
      4 CA         -9.4305  -27.9930    8.8970 C.3       3 GLC5        0.0000 
      5 CA        -10.9660  -28.0930   10.3030 C.3       9 GLL5        0.0000 
      6 CA         -7.8950  -27.8930    7.4910 C.3       6 GLP5        0.0000 
      7 CA         -5.3150  -27.7425   13.0530 C.3       3 GLC5        0.0000 
      8 CA         -7.1880  -28.7500   13.5520 C.3       9 GLL5        0.0000 
      9 CA         -3.4420  -26.7350   12.5540 C.3       6 GLP5        0.0000 
     10 CA         -6.1515  -28.4725    9.5285 C.3       3 GLC5        0.0000 
     11 CA         -6.7830  -29.4630   11.2580 C.3       9 GLL5        0.0000 
     12 CA         -5.5200  -27.4820    7.7990 C.3       6 GLP5        0.0000 
     13 CA         -5.0880  -30.0945   10.9140 C.3       3 GLC5        0.0000 
     14 CA         -3.3930  -30.7260   10.5700 C.3       6 GLP5        0.0000 
     15 CA         -8.3810  -28.2220    9.5860 C.3       3 GLC5        0.0000 
     16 CA         -8.8670  -28.5510   11.6810 C.3       9 GLL5        0.0000 
     17 N         -14.6635  -15.4295    5.6810 N.am      2 SEC2        0.0000 
     18 N         -15.8410  -14.4770    5.9090 N.am      8 SEL2        0.0000 
     19 N         -13.4860  -16.3820    5.4530 N.am      5 SEP2        0.0000 
     20 N         -13.0135  -13.7140    4.6290 N.am      2 SEC2        0.0000 
     21 N         -14.4260  -13.8900    4.3110 N.am      8 SEL2        0.0000 
     22 N         -11.6010  -13.5380    4.9470 N.am      5 SEP2        0.0000 
     23 N         -13.9560  -15.1360    4.8820 N.am      2 SEC2        0.0000 
     24 N         -14.2125  -14.9645    3.5400 N.am      2 SEC2        0.0000 
     25 N         -13.9990  -16.0390    2.7690 N.am      5 SEP2        0.0000 
     26 N         -13.9140  -12.6335    3.7475 N.am      2 SEC2        0.0000 
     27 N         -13.4020  -11.3770    3.1840 N.am      5 SEP2        0.0000 
     28 O         -14.5150  -11.7890    4.1550 O.2       1 ALC1        0.0000 
     29 O         -15.6280  -12.2010    5.1260 O.2       7 ALL1        0.0000 
     30 O         -13.4020  -11.3770    3.1840 O.2       4 ALP1        0.0000 
     31 N         -16.5885   -9.1590    6.7930 N.am      2 SEC2        0.0000 
     32 N         -16.8970  -10.5240    6.0000 N.am      8 SEL2        0.0000 
     33 N         -16.2800   -7.7940    7.5860 N.am      5 SEP2        0.0000 
     34 N         -18.0620  -10.9610    8.3160 N.am      2 SEC2        0.0000 
     35 N         -18.2460  -12.2620    7.7060 N.am      8 SEL2        0.0000 
     36 N         -17.8780   -9.6600    8.9260 N.am      5 SEP2        0.0000 
     37 CA        -22.4300  -13.8100   12.9030 C.3       3 GLC5        0.0000 
     38 CA        -21.5650  -13.0400   11.2490 C.3       9 GLL5        0.0000 
     39 CA        -23.2950  -14.5800   14.5570 C.3       6 GLP5        0.0000 
     40 CA        -22.4830  -11.7345   12.0535 C.3       3 GLC5        0.0000 
     41 CA        -23.4010  -10.4290   12.8580 C.3       6 GLP5        0.0000 
     42 CA        -21.6030  -11.1730   10.5715 C.3       3 GLC5        0.0000 
     43 CA        -21.6410   -9.3060    9.8940 C.3       6 GLP5        0.0000 
     44 CA        -22.0200  -15.3015   12.9195 C.3       3 GLC5        0.0000 
     45 CA        -20.7450  -16.0230   11.2820 C.3       9 GLL5        0.0000 
     46 CA        -22.1125  -16.8910   12.1125 C.3       3 GLC5        0.0000 
     47 CA        -23.4800  -17.7590   12.9430 C.3       6 GLP5        0.0000 
     48 CA        -18.5290  -17.8635    8.3510 C.3       3 GLC5        0.0000 
     49 CA        -16.9570  -16.4410    7.6000 C.3       9 GLL5        0.0000 
     50 CA        -20.1010  -19.2860    9.1020 C.3       6 GLP5        0.0000 
     51 CA        -14.7110  -16.4365   10.5140 C.3       3 GLC5        0.0000 
     52 CA        -15.8580  -16.6910    8.6830 C.3       9 GLL5        0.0000 
     53 CA        -13.5640  -16.1820   12.3450 C.3       6 GLP5        0.0000 
     54 O         -14.9220  -14.4900    8.8900 O.2       1 ALC1        0.0000 
     55 O         -14.7470  -15.8410    8.3770 O.2       7 ALL1        0.0000 
     56 O         -15.0970  -13.1390    9.4030 O.2       4 ALP1        0.0000 
     57 CA        -13.9600  -17.3130   11.0465 C.3       3 GLC5        0.0000 
     58 CA        -14.3560  -18.4440    9.7480 C.3       9 GLL5        0.0000 
     59 N         -10.8600  -21.3755   13.6560 N.am      2 SEC2        0.0000 
     60 N         -11.9520  -21.0470   12.9470 N.am      8 SEL2        0.0000 
     61 N          -9.7680  -21.7040   14.3650 N.am      5 SEP2        0.0000 
     62 N         -11.6125  -19.6695   13.1570 N.am      2 SEC2        0.0000 
     63 N         -11.2730  -18.2920   13.3670 N.am      5 SEP2        0.0000 
     64 N         -14.7305  -20.7120   13.9060 N.am      2 SEC2        0.0000 
     65 N         -14.4080  -20.9620   12.5910 N.am      8 SEL2        0.0000 
     66 N         -15.0530  -20.4620   15.2210 N.am      5 SEP2        0.0000 
     67 N         -12.0325  -23.1925   12.5415 N.am      2 SEC2        0.0000 
     68 N         -13.1990  -22.4570   11.4920 N.am      8 SEL2        0.0000 
     69 N         -10.8660  -23.9280   13.5910 N.am      5 SEP2        0.0000 
     70 CA         -7.2157  -26.9340   14.3375 C.3       3 GLC5        0.0000 
     71 CA         -8.5570  -28.3300   13.0780 C.3       9 GLL5        0.0000 
     72 CA         -6.5590  -25.3280   15.3600 C.3       6 GLP5        0.0000 
     73 CA        -18.0080  -12.0368    9.7148 C.3       3 GLC5        0.0000 
     74 CA        -18.8220  -13.1880    8.5390 C.3       9 GLL5        0.0000 
     75 CA        -16.6800  -11.1180   10.4410 C.3       6 GLP5        0.0000 
     76 CA        -18.7157  -13.6690   11.1907 C.3       3 GLC5        0.0000 
     77 CA        -20.4930  -13.5900   10.3310 C.3       9 GLL5        0.0000 
     78 CA        -17.1290  -13.0310   12.0360 C.3       6 GLP5        0.0000 
     79 CA        -19.9329  -17.3984    9.6258 C.3       3 GLC5        0.0000 
     80 CA        -19.1010  -15.4980    9.4780 C.3       9 GLL5        0.0000 
     81 CA        -17.9515  -14.0403   10.5287 C.3       3 GLC5        0.0000 
     82 CA        -15.1199  -17.3637    6.5916 C.3       3 GLC5        0.0000 
     83 CA        -14.3210  -17.3580    4.7770 C.3       6 GLP5        0.0000 
     84 CA        -12.4168  -18.8727    9.6300 C.3       3 GLC5        0.0000 
     85 CA        -10.6650  -18.5700    9.5170 C.3       6 GLP5        0.0000 
@<TRIPOS>BOND
@<TRIPOS>SUBSTRUCTURE
     1 ALC1       28 GROUP        1 X    ALC  0     ROOT ALC X 1
     2 SEC2       17 GROUP        1 X    SEC  0     **** SEC X 2
     3 GLC5        1 GROUP        1 X    GLC  0     **** GLC X 6
     4 ALP1       30 GROUP        1 Y    ALP  0     ROOT ALP Y 8
     5 SEP2       19 GROUP        1 Y    SEP  0     **** SEP Y 9
     6 GLP5        3 GROUP        1 Y    GLP  0     **** GLP Y 13
     7 ALL1       29 GROUP        1 Z    ALL  0     ROOT ALL Z 15
     8 SEL2       18 GROUP        1 Z    SEL  0     **** SEL Z 16
     9 GLL5        2 GROUP        1 Z    GLL  0     **** GLL Z 20
@<TRIPOS>SET

