#    Name: 1dxq_FAD_3_ligand
#    Modification time : Mon Mar 24 22:33:13 2014

@<TRIPOS>MOLECULE
1dxq_FAD_3_ligand
   84    89     1     0     0
SMALL
NO_CHARGES


@<TRIPOS>ATOM
      1 PA        -14.2510  -23.6180   11.0790 P.3       1 FAD300      0.0000 
      2 O1A       -15.3670  -23.1730   10.2200 O.co2     1 FAD300      0.0000 
      3 O2A       -14.5420  -24.4820   12.0780 O.co2     1 FAD300      0.0000 
      4 O5B       -13.4770  -24.3870   10.0750 O.3       1 FAD300      0.0000 
      5 C5B       -12.2060  -25.0380   10.3760 C.3       1 FAD300      0.0000 
      6 C4B       -11.9740  -26.1400    9.3120 C.3       1 FAD300      0.0000 
      7 O4B       -10.6870  -26.7730    9.7130 O.3       1 FAD300      0.0000 
      8 C3B       -13.0080  -27.3030    9.3080 C.3       1 FAD300      0.0000 
      9 O3B       -13.1450  -27.9170    8.0620 O.3       1 FAD300      0.0000 
     10 C2B       -12.4690  -28.1910   10.4730 C.3       1 FAD300      0.0000 
     11 O2B       -12.9400  -29.5260   10.4360 O.3       1 FAD300      0.0000 
     12 C1B       -10.9660  -28.0930   10.3030 C.3       1 FAD300      0.0000 
     13 N9A       -10.1730  -28.0820   11.5430 N.pl3     1 FAD300      0.0000 
     14 C8A       -10.5690  -27.6210   12.7870 C.2       1 FAD300      0.0000 
     15 N7A        -9.6280  -27.7540   13.7280 N.2       1 FAD300      0.0000 
     16 C5A        -8.5570  -28.3300   13.0780 C.ar      1 FAD300      0.0000 
     17 C6A        -7.1880  -28.7500   13.5520 C.ar      1 FAD300      0.0000 
     18 N6A        -6.7610  -28.6220   14.7750 N.pl3     1 FAD300      0.0000 
     19 N1A        -6.3650  -29.3070   12.5760 N.ar      1 FAD300      0.0000 
     20 C2A        -6.7830  -29.4630   11.2580 C.ar      1 FAD300      0.0000 
     21 N3A        -8.0060  -29.1150   10.7330 N.ar      1 FAD300      0.0000 
     22 C4A        -8.8670  -28.5510   11.6810 C.ar      1 FAD300      0.0000 
     23 N1        -15.8410  -14.4770    5.9090 N.2       1 FAD300      0.0000 
     24 C2        -15.2720  -13.5870    5.0900 C.2       1 FAD300      0.0000 
     25 O2        -14.4260  -13.8900    4.3110 O.2       1 FAD300      0.0000 
     26 N3        -15.6280  -12.2010    5.1260 N.am      1 FAD300      0.0000 
     27 C4        -16.6210  -11.7120    5.9940 C.2       1 FAD300      0.0000 
     28 O4        -16.8970  -10.5240    6.0000 O.2       1 FAD300      0.0000 
     29 C4X       -17.2800  -12.6800    6.8570 C.2       1 FAD300      0.0000 
     30 N5        -18.2460  -12.2620    7.7060 N.2       1 FAD300      0.0000 
     31 C5X       -18.8220  -13.1880    8.5390 C.ar      1 FAD300      0.0000 
     32 C6        -19.8500  -12.7230    9.4380 C.ar      1 FAD300      0.0000 
     33 C7        -20.4930  -13.5900   10.3310 C.ar      1 FAD300      0.0000 
     34 C7M       -21.5650  -13.0400   11.2490 C.3       1 FAD300      0.0000 
     35 C8        -20.1120  -15.0240   10.3600 C.ar      1 FAD300      0.0000 
     36 C8M       -20.7450  -16.0230   11.2820 C.3       1 FAD300      0.0000 
     37 C9        -19.1010  -15.4980    9.4780 C.ar      1 FAD300      0.0000 
     38 C9A       -18.4470  -14.6010    8.5650 C.ar      1 FAD300      0.0000 
     39 N10       -17.3930  -15.0070    7.6220 N.pl3     1 FAD300      0.0000 
     40 C10       -16.8240  -14.0960    6.7920 C.2       1 FAD300      0.0000 
     41 C1'       -16.9570  -16.4410    7.6000 C.3       1 FAD300      0.0000 
     42 C2'       -15.8580  -16.6910    8.6830 C.3       1 FAD300      0.0000 
     43 O2'       -14.7470  -15.8410    8.3770 O.3       1 FAD300      0.0000 
     44 C3'       -15.4300  -18.1730    8.6710 C.3       1 FAD300      0.0000 
     45 O3'       -16.5720  -18.9770    8.9670 O.3       1 FAD300      0.0000 
     46 C4'       -14.3560  -18.4440    9.7480 C.3       1 FAD300      0.0000 
     47 O4'       -13.1970  -17.6540    9.5150 O.3       1 FAD300      0.0000 
     48 C5'       -13.9810  -19.9070    9.7380 C.3       1 FAD300      0.0000 
     49 O5'       -12.9230  -20.1340   10.8700 O.3       1 FAD300      0.0000 
     50 P         -13.1670  -21.1180   12.0210 P.3       1 FAD300      0.0000 
     51 O1P       -11.9520  -21.0470   12.9470 O.co2     1 FAD300      0.0000 
     52 O2P       -14.4080  -20.9620   12.5910 O.co2     1 FAD300      0.0000 
     53 O3P       -13.1990  -22.4570   11.4920 O.3       1 FAD300      0.0000 
     54 H         -12.2228  -25.5125   11.3485 H         1 FAD300      0.0000 
     55 H         -11.3795  -24.3417   10.3198 H         1 FAD300      0.0000 
     56 H         -11.8797  -25.7238    8.3595 H         1 FAD300      0.0000 
     57 H         -13.9315  -26.8535    9.6911 H         1 FAD300      0.0000 
     58 H         -12.7205  -27.6685   11.3869 H         1 FAD300      0.0000 
     59 H         -10.6162  -28.8420    9.6333 H         1 FAD300      0.0000 
     60 H         -11.4712  -27.2327   12.9408 H         1 FAD300      0.0000 
     61 H          -5.8116  -28.8894   14.9399 H         1 FAD300      0.0000 
     62 H          -7.4217  -28.2680   15.4370 H         1 FAD300      0.0000 
     63 H          -6.0678  -29.9042   10.5806 H         1 FAD300      0.0000 
     64 H         -15.1362  -11.5506    4.4932 H         1 FAD300      0.0000 
     65 H         -20.1049  -11.7255    9.4090 H         1 FAD300      0.0000 
     66 H         -18.8336  -16.4817    9.4889 H         1 FAD300      0.0000 
     67 H         -16.5381  -16.6977    6.6312 H         1 FAD300      0.0000 
     68 H         -17.7951  -17.0980    7.8143 H         1 FAD300      0.0000 
     69 H         -16.2863  -16.4606    9.6351 H         1 FAD300      0.0000 
     70 H         -15.0197  -18.4041    7.7150 H         1 FAD300      0.0000 
     71 H         -14.7993  -18.2163   10.7113 H         1 FAD300      0.0000 
     72 H         -13.5342  -20.1756    8.7995 H         1 FAD300      0.0000 
     73 H         -14.8382  -20.5177    9.9496 H         1 FAD300      0.0000 
     74 H         -21.2093  -12.3217   11.8469 H         1 FAD300      0.0000 
     75 H         -22.3262  -12.6437   10.7356 H         1 FAD300      0.0000 
     76 H         -21.9481  -13.7500   11.8398 H         1 FAD300      0.0000 
     77 H         -20.3595  -16.9376   11.1597 H         1 FAD300      0.0000 
     78 H         -20.6154  -15.7763   12.2424 H         1 FAD300      0.0000 
     79 H         -21.7304  -16.0974   11.1289 H         1 FAD300      0.0000 
     80 H         -12.2441  -27.8394    7.6349 H         1 FAD300      0.0000 
     81 H         -13.2854  -29.6528    9.5062 H         1 FAD300      0.0000 
     82 H         -14.9363  -14.9847    8.8576 H         1 FAD300      0.0000 
     83 H         -16.2204  -19.9106    9.0354 H         1 FAD300      0.0000 
     84 H         -13.5331  -16.8296    9.0596 H         1 FAD300      0.0000 
@<TRIPOS>BOND
     1    2    1 ar   
     2    3    1 ar   
     3    4    1 1    
     4   53    1 1    
     5    5    4 1    
     6    6    5 1    
     7   54    5 1    
     8   55    5 1    
     9    7    6 1    
    10    8    6 1    
    11   56    6 1    
    12   12    7 1    
    13    9    8 1    
    14   10    8 1    
    15   57    8 1    
    16   80    9 1    
    17   11   10 1    
    18   12   10 1    
    19   58   10 1    
    20   81   11 1    
    21   13   12 1    
    22   59   12 1    
    23   14   13 1    
    24   22   13 1    
    25   15   14 2    
    26   60   14 1    
    27   16   15 1    
    28   17   16 ar   
    29   22   16 ar   
    30   18   17 1    
    31   19   17 ar   
    32   61   18 1    
    33   62   18 1    
    34   20   19 ar   
    35   21   20 ar   
    36   63   20 1    
    37   22   21 ar   
    38   24   23 1    
    39   40   23 2    
    40   25   24 2    
    41   26   24 am   
    42   27   26 am   
    43   64   26 1    
    44   28   27 2    
    45   29   27 1    
    46   30   29 2    
    47   40   29 1    
    48   31   30 1    
    49   32   31 ar   
    50   38   31 ar   
    51   33   32 ar   
    52   65   32 1    
    53   34   33 1    
    54   35   33 ar   
    55   74   34 1    
    56   75   34 1    
    57   76   34 1    
    58   36   35 1    
    59   37   35 ar   
    60   77   36 1    
    61   78   36 1    
    62   79   36 1    
    63   38   37 ar   
    64   66   37 1    
    65   39   38 1    
    66   40   39 1    
    67   41   39 1    
    68   42   41 1    
    69   67   41 1    
    70   68   41 1    
    71   43   42 1    
    72   44   42 1    
    73   69   42 1    
    74   82   43 1    
    75   45   44 1    
    76   46   44 1    
    77   70   44 1    
    78   83   45 1    
    79   47   46 1    
    80   48   46 1    
    81   71   46 1    
    82   84   47 1    
    83   49   48 1    
    84   72   48 1    
    85   73   48 1    
    86   50   49 1    
    87   51   50 ar   
    88   52   50 ar   
    89   53   50 1    
@<TRIPOS>SUBSTRUCTURE
     1 FAD300      1 GROUP   
@<TRIPOS>SET

