#    Name: 1ezf_IN0_1_INTS_M
#    Modification time : Tue Mar 25 00:27:35 2014

@<TRIPOS>MOLECULE
1ezf_IN0_1_INTS_M
   77     0     9     0     0
SMALL
NO_CHARGES


@<TRIPOS>ATOM
      1 CA        -12.2620   42.8540   36.1575 C.3       3 GLC5        0.0000 
      2 CA        -10.2640   42.5110   35.8050 C.3       9 GLL5        0.0000 
      3 CA        -14.2600   43.1970   36.5100 C.3       6 GLP5        0.0000 
      4 CA        -10.5600   41.7615   38.7270 C.3       3 GLC5        0.0000 
      5 CA         -9.7560   41.8760   36.9520 C.3       9 GLL5        0.0000 
      6 CA        -11.3640   41.6470   40.5020 C.3       6 GLP5        0.0000 
      7 CA        -10.1160   38.8950   38.0300 C.3       3 GLC5        0.0000 
      8 CA         -9.2170   40.5750   36.8490 C.3       9 GLL5        0.0000 
      9 CA        -11.0150   37.2150   39.2110 C.3       6 GLP5        0.0000 
     10 CA         -8.9255   40.7830   38.8670 C.3       3 GLC5        0.0000 
     11 CA         -8.6340   40.9910   40.8850 C.3       6 GLP5        0.0000 
     12 CA        -12.0805   45.3350   34.0825 C.3       3 GLC5        0.0000 
     13 CA        -12.5400   44.0730   32.5250 C.3       9 GLL5        0.0000 
     14 CA        -11.6210   46.5970   35.6400 C.3       6 GLP5        0.0000 
     15 CA        -13.0975   46.0555   33.8825 C.3       3 GLC5        0.0000 
     16 CA        -13.9540   44.5680   32.9380 C.3       9 GLL5        0.0000 
     17 CA        -12.2410   47.5430   34.8270 C.3       6 GLP5        0.0000 
     18 NZ        -20.0340   48.4840   28.1995 N.4       2 LYC4        0.0000 
     19 NZ        -18.9440   47.1510   28.6390 N.4       8 LYL4        0.0000 
     20 NZ        -21.1240   49.8170   27.7600 N.4       5 LYP4        0.0000 
     21 N         -18.6020   49.2095   28.5285 N.am      1 SEC2        0.0000 
     22 N         -17.0870   48.4140   28.4520 N.am      7 SEL2        0.0000 
     23 N         -20.1170   50.0050   28.6050 N.am      4 SEP2        0.0000 
     24 N         -18.1440   49.5855   32.8420 N.am      1 SEC2        0.0000 
     25 N         -17.3720   48.7610   31.6660 N.am      7 SEL2        0.0000 
     26 N         -18.9160   50.4100   34.0180 N.am      4 SEP2        0.0000 
     27 CA         -6.8230   46.4030   30.4990 C.3       3 GLC5        0.0000 
     28 CA         -8.0360   44.7280   30.7840 C.3       9 GLL5        0.0000 
     29 CA         -5.6100   48.0780   30.2140 C.3       6 GLP5        0.0000 
     30 CA         -5.8430   46.4995   34.4380 C.3       3 GLC5        0.0000 
     31 CA         -6.2490   45.1490   32.8000 C.3       9 GLL5        0.0000 
     32 CA         -5.4370   47.8500   36.0760 C.3       6 GLP5        0.0000 
     33 CA         -4.3795   44.6715   32.8075 C.3       3 GLC5        0.0000 
     34 CA         -2.5100   44.1940   32.8150 C.3       6 GLP5        0.0000 
     35 CA         -5.9295   46.6135   31.5070 C.3       3 GLC5        0.0000 
     36 CA         -5.4845   44.3245   31.0730 C.3       3 GLC5        0.0000 
     37 CA         -4.7200   43.5000   29.3460 C.3       6 GLP5        0.0000 
     38 CA         -6.2320   43.0430   32.1570 C.3       3 GLC5        0.0000 
     39 CA         -6.2150   40.9370   31.5140 C.3       6 GLP5        0.0000 
     40 CA         -5.3880   44.3940   34.3840 C.3       3 GLC5        0.0000 
     41 CA         -4.5270   43.6390   35.9680 C.3       6 GLP5        0.0000 
     42 CA        -10.9555   38.3245   29.2830 C.3       3 GLC5        0.0000 
     43 CA        -12.2030   40.1100   29.7570 C.3       9 GLL5        0.0000 
     44 CA         -9.7080   36.5390   28.8090 C.3       6 GLP5        0.0000 
     45 CA        -13.1790   38.9375   30.9110 C.3       3 GLC5        0.0000 
     46 CA        -14.1550   37.7650   32.0650 C.3       6 GLP5        0.0000 
     47 CA         -9.7190   38.5625   29.1815 C.3       3 GLC5        0.0000 
     48 CA         -9.7300   40.5860   29.5540 C.3       9 GLL5        0.0000 
     49 CA         -7.7465   40.2430   29.4230 C.3       3 GLC5        0.0000 
     50 CA         -5.7630   39.9000   29.2920 C.3       6 GLP5        0.0000 
     51 CA         -7.7190   42.2522   32.1052 C.3       3 GLC5        0.0000 
     52 CA         -9.8250   43.3230   32.4290 C.3       9 GLL5        0.0000 
     53 CA        -11.7830   40.7553   33.7805 C.3       3 GLC5        0.0000 
     54 CA        -10.8190   42.5380   33.3050 C.3       9 GLL5        0.0000 
     55 CA        -13.0400   39.3130   33.6330 C.3       6 GLP5        0.0000 
     56 CA         -7.8738   41.5828   36.1457 C.3       3 GLC5        0.0000 
     57 CA         -6.2610   41.9400   35.3910 C.3       6 GLP5        0.0000 
     58 CA         -7.5948   40.5975   35.4755 C.3       3 GLC5        0.0000 
     59 CA         -9.1820   39.9110   35.6060 C.3       9 GLL5        0.0000 
     60 CA        -11.2368   39.7728   34.3300 C.3       3 GLC5        0.0000 
     61 CA         -9.2640   36.6882   35.9098 C.3       3 GLC5        0.0000 
     62 CA         -8.6630   37.9340   34.2770 C.3       9 GLL5        0.0000 
     63 CA         -9.8590   35.1100   36.9240 C.3       6 GLP5        0.0000 
     64 CA         -9.4507   36.7415   33.1248 C.3       3 GLC5        0.0000 
     65 CA         -9.9960   35.2290   32.5480 C.3       6 GLP5        0.0000 
     66 CA         -7.8082   40.0812   32.3415 C.3       3 GLC5        0.0000 
     67 CA         -9.1480   38.5740   33.1260 C.3       9 GLL5        0.0000 
     68 CA         -7.2233   37.8556   34.3194 C.3       3 GLC5        0.0000 
     69 CA         -5.5380   37.2910   34.6280 C.3       6 GLP5        0.0000 
     70 CA        -11.2207   39.2692   33.4010 C.3       3 GLC5        0.0000 
     71 CA         -8.1139   41.6545   35.1020 C.3       3 GLC5        0.0000 
     72 CA         -9.6850   40.5540   34.4480 C.3       9 GLL5        0.0000 
     73 CA        -13.7535   43.7588   34.6208 C.3       3 GLC5        0.0000 
     74 CA         -6.3018   44.0630   30.4050 C.3       3 GLC5        0.0000 
     75 CA         -7.7310   44.5240   32.1440 C.3       9 GLL5        0.0000 
     76 CA         -7.0492   42.7815   31.4890 C.3       3 GLC5        0.0000 
     77 CA         -7.2185   43.0540   33.9725 C.3       3 GLC5        0.0000 
@<TRIPOS>BOND
@<TRIPOS>SUBSTRUCTURE
     1 SEC2       21 GROUP        1 X    SEC  0     ROOT SEC X 2
     2 LYC4       18 GROUP        1 X    LYC  0     **** LYC X 4
     3 GLC5        1 GROUP        1 X    GLC  0     **** GLC X 6
     4 SEP2       23 GROUP        1 Y    SEP  0     ROOT SEP Y 9
     5 LYP4       20 GROUP        1 Y    LYP  0     **** LYP Y 11
     6 GLP5        3 GROUP        1 Y    GLP  0     **** GLP Y 13
     7 SEL2       22 GROUP        1 Z    SEL  0     ROOT SEL Z 16
     8 LYL4       19 GROUP        1 Z    LYL  0     **** LYL Z 18
     9 GLL5        2 GROUP        1 Z    GLL  0     **** GLL Z 20
@<TRIPOS>SET

