#    Name: 1ezf_IN0_1_ligand
#    Modification time : Tue Mar 25 00:27:35 2014

@<TRIPOS>MOLECULE
1ezf_IN0_1_ligand
   69    72     1     0     0
SMALL
NO_CHARGES


@<TRIPOS>ATOM
      1 C1         -9.8250   43.3230   32.4290 C.ar      1 IN0991      0.0000 
      2 C7        -10.8190   42.5380   33.3050 C.3       1 IN0991      0.0000 
      3 C17       -10.2330   41.8570   34.5510 C.ar      1 IN0991      0.0000 
      4 C28       -10.2640   42.5110   35.8050 C.ar      1 IN0991      0.0000 
      5 C27        -9.7560   41.8760   36.9520 C.ar      1 IN0991      0.0000 
      6 C26        -9.2170   40.5750   36.8490 C.ar      1 IN0991      0.0000 
      7 C16        -9.1820   39.9110   35.6060 C.ar      1 IN0991      0.0000 
      8 C29        -8.6750   38.5990   35.5140 C.ar      1 IN0991      0.0000 
      9 C30        -8.6630   37.9340   34.2770 C.ar      1 IN0991      0.0000 
     10 C31        -9.1480   38.5740   33.1260 C.ar      1 IN0991      0.0000 
     11 C33        -9.6550   39.8770   33.2120 C.ar      1 IN0991      0.0000 
     12 C15        -9.6850   40.5540   34.4480 C.ar      1 IN0991      0.0000 
     13 O6        -11.9650   43.3530   33.6390 O.3       1 IN0991      0.0000 
     14 C5        -12.5400   44.0730   32.5250 C.3       1 IN0991      0.0000 
     15 C14       -13.9540   44.5680   32.9380 C.3       1 IN0991      0.0000 
     16 C11       -14.4520   45.7140   32.0960 C.2       1 IN0991      0.0000 
     17 O58       -13.6840   46.6030   31.7710 O.2       1 IN0991      0.0000 
     18 N23       -15.7550   45.7020   31.7270 N.am      1 IN0991      0.0000 
     19 C38       -16.2950   46.7880   30.9000 C.3       1 IN0991      0.0000 
     20 C61       -16.8620   46.2850   29.5470 C.3       1 IN0991      0.0000 
     21 C62       -17.6300   47.3780   28.8310 C.2       1 IN0991      0.0000 
     22 O64       -18.9440   47.1510   28.6390 O.co2     1 IN0991      0.0000 
     23 O63       -17.0870   48.4140   28.4520 O.co2     1 IN0991      0.0000 
     24 C60       -17.3750   47.5360   31.6510 C.2       1 IN0991      0.0000 
     25 O66       -18.3330   46.8370   32.2850 O.co2     1 IN0991      0.0000 
     26 O65       -17.3720   48.7610   31.6660 O.co2     1 IN0991      0.0000 
     27 C4        -12.5580   43.2290   31.2560 C.2       1 IN0991      0.0000 
     28 O13       -13.6180   42.7150   30.9310 O.2       1 IN0991      0.0000 
     29 N3        -11.3870   43.0760   30.5430 N.am      1 IN0991      0.0000 
     30 C2        -10.1390   43.5610   31.0700 C.ar      1 IN0991      0.0000 
     31 C8         -9.2300   44.2480   30.2510 C.ar      1 IN0991      0.0000 
     32 C9         -8.0360   44.7280   30.7840 C.ar      1 IN0991      0.0000 
     33 C20        -7.7310   44.5240   32.1440 C.ar      1 IN0991      0.0000 
     34 CL36       -6.2490   45.1490   32.8000 Cl        1 IN0991      0.0000 
     35 C21        -8.6210   43.8120   32.9640 C.ar      1 IN0991      0.0000 
     36 C43       -11.4260   42.4940   29.1890 C.3       1 IN0991      0.0000 
     37 C10       -11.1420   40.9710   28.9980 C.3       1 IN0991      0.0000 
     38 C32       -12.2030   40.1100   29.7570 C.3       1 IN0991      0.0000 
     39 C25       -11.1940   40.5860   27.4850 C.3       1 IN0991      0.0000 
     40 C24        -9.7300   40.5860   29.5540 C.3       1 IN0991      0.0000 
     41 H         -11.1993   41.6931   32.6453 H         1 IN0991      0.0000 
     42 H         -10.6600   43.4536   35.8739 H         1 IN0991      0.0000 
     43 H          -9.7755   42.3501   37.8544 H         1 IN0991      0.0000 
     44 H          -8.8485   40.1105   37.6853 H         1 IN0991      0.0000 
     45 H          -8.3157   38.1323   36.3509 H         1 IN0991      0.0000 
     46 H          -8.2985   36.9775   34.2151 H         1 IN0991      0.0000 
     47 H          -9.1308   38.0881   32.2249 H         1 IN0991      0.0000 
     48 H         -10.0088   40.3464   32.3695 H         1 IN0991      0.0000 
     49 H         -11.9425   44.9739   32.3275 H         1 IN0991      0.0000 
     50 H         -13.9144   44.8689   33.9940 H         1 IN0991      0.0000 
     51 H         -14.6474   43.7190   32.8625 H         1 IN0991      0.0000 
     52 H         -16.4038   44.9591   31.9986 H         1 IN0991      0.0000 
     53 H         -15.5006   47.5054   30.6661 H         1 IN0991      0.0000 
     54 H         -17.5187   45.4374   29.7416 H         1 IN0991      0.0000 
     55 H         -16.0305   45.9498   28.9275 H         1 IN0991      0.0000 
     56 H          -9.4493   44.3945   29.2594 H         1 IN0991      0.0000 
     57 H          -7.3698   45.2343   30.1880 H         1 IN0991      0.0000 
     58 H          -8.3943   43.6495   33.9475 H         1 IN0991      0.0000 
     59 H         -10.7047   43.0433   28.5136 H         1 IN0991      0.0000 
     60 H         -12.4310   42.6964   28.7124 H         1 IN0991      0.0000 
     61 H         -12.0371   39.1305   29.6427 H         1 IN0991      0.0000 
     62 H         -12.1977   40.2954   30.7396 H         1 IN0991      0.0000 
     63 H         -13.1306   40.2903   29.4297 H         1 IN0991      0.0000 
     64 H         -10.5154   41.0894   26.9501 H         1 IN0991      0.0000 
     65 H         -11.0155   39.6123   27.3432 H         1 IN0991      0.0000 
     66 H         -12.0883   40.7817   27.0825 H         1 IN0991      0.0000 
     67 H          -8.9990   41.0864   29.0899 H         1 IN0991      0.0000 
     68 H          -9.6481   40.7861   30.5304 H         1 IN0991      0.0000 
     69 H          -9.5380   39.6116   29.4374 H         1 IN0991      0.0000 
@<TRIPOS>BOND
     1    2    1 1    
     2   30    1 ar   
     3   35    1 ar   
     4    3    2 1    
     5   13    2 1    
     6   41    2 1    
     7    4    3 ar   
     8   12    3 ar   
     9    5    4 ar   
    10   42    4 1    
    11    6    5 ar   
    12   43    5 1    
    13    7    6 ar   
    14   44    6 1    
    15    8    7 ar   
    16   12    7 ar   
    17    9    8 ar   
    18   45    8 1    
    19   10    9 ar   
    20   46    9 1    
    21   11   10 ar   
    22   47   10 1    
    23   12   11 ar   
    24   48   11 1    
    25   14   13 1    
    26   15   14 1    
    27   27   14 1    
    28   49   14 1    
    29   16   15 1    
    30   50   15 1    
    31   51   15 1    
    32   17   16 2    
    33   18   16 am   
    34   19   18 1    
    35   52   18 1    
    36   20   19 1    
    37   24   19 1    
    38   53   19 1    
    39   21   20 1    
    40   54   20 1    
    41   55   20 1    
    42   22   21 ar   
    43   23   21 ar   
    44   25   24 ar   
    45   26   24 ar   
    46   28   27 2    
    47   29   27 am   
    48   30   29 1    
    49   36   29 1    
    50   31   30 ar   
    51   32   31 ar   
    52   56   31 1    
    53   33   32 ar   
    54   57   32 1    
    55   34   33 1    
    56   35   33 ar   
    57   58   35 1    
    58   37   36 1    
    59   59   36 1    
    60   60   36 1    
    61   38   37 1    
    62   39   37 1    
    63   40   37 1    
    64   61   38 1    
    65   62   38 1    
    66   63   38 1    
    67   64   39 1    
    68   65   39 1    
    69   66   39 1    
    70   67   40 1    
    71   68   40 1    
    72   69   40 1    
@<TRIPOS>SUBSTRUCTURE
     1 IN0991      1 GROUP   
@<TRIPOS>SET

