#    Name: 1ohr_1UN_1_INTS_M
#    Modification time : Mon Mar 24 20:11:10 2014

@<TRIPOS>MOLECULE
1ohr_1UN_1_INTS_M
  101     0     9     0     0
SMALL
NO_CHARGES


@<TRIPOS>ATOM
      1 CA          1.2245   -8.1035   15.4420 C.3       3 GLC5        0.0000 
      2 CA          2.6850   -6.6860   16.1660 C.3       9 GLL5        0.0000 
      3 CA         -0.2360   -9.5210   14.7180 C.3       6 GLP5        0.0000 
      4 CA          1.2260   -7.8375   14.0020 C.3       3 GLC5        0.0000 
      5 CA          2.2720   -6.5480   14.7110 C.3       9 GLL5        0.0000 
      6 CA          0.1800   -9.1270   13.2930 C.3       6 GLP5        0.0000 
      7 CA          3.9720   -6.5455   13.5390 C.3       3 GLC5        0.0000 
      8 CA          5.6720   -6.5430   12.3670 C.3       6 GLP5        0.0000 
      9 CA          2.3275   -6.0580   12.6875 C.3       3 GLC5        0.0000 
     10 CA          2.3830   -5.5680   10.6640 C.3       6 GLP5        0.0000 
     11 CA          0.3425   -6.6155   13.7255 C.3       3 GLC5        0.0000 
     12 CA          1.4340   -5.2770   14.5060 C.3       9 GLL5        0.0000 
     13 CA         -0.7490   -7.9540   12.9450 C.3       6 GLP5        0.0000 
     14 CA          5.2500   -5.9330   14.1280 C.3       3 GLC5        0.0000 
     15 CA          4.8280   -5.3230   15.8890 C.3       9 GLL5        0.0000 
     16 CA          2.4800   -3.0400   18.7320 C.3       3 GLC5        0.0000 
     17 CA          3.4830   -2.9590   16.8210 C.3       9 GLL5        0.0000 
     18 CA          1.4770   -3.1210   20.6430 C.3       6 GLP5        0.0000 
     19 CA          4.0515   -1.9210   18.6990 C.3       3 GLC5        0.0000 
     20 CA          4.6200   -0.8830   20.5770 C.3       6 GLP5        0.0000 
     21 CA          9.7305   -3.1795   13.2800 C.3       3 GLC5        0.0000 
     22 CA          9.8340   -3.1580   15.4200 C.3       9 GLL5        0.0000 
     23 CA          9.6270   -3.2010   11.1400 C.3       6 GLP5        0.0000 
     24 CA         10.3655   -1.4745   14.6650 C.3       3 GLC5        0.0000 
     25 CA         10.8970    0.2090   13.9100 C.3       6 GLP5        0.0000 
     26 CA          9.4805   -4.3050   12.8050 C.3       3 GLC5        0.0000 
     27 CA          9.3340   -5.4090   14.4700 C.3       9 GLL5        0.0000 
     28 CA         10.9325   -6.2675   14.1130 C.3       3 GLC5        0.0000 
     29 CA         12.5310   -7.1260   13.7560 C.3       6 GLP5        0.0000 
     30 CA          7.5030   -5.9760   13.4185 C.3       3 GLC5        0.0000 
     31 CA         11.5250   -5.6160   18.3050 C.3       3 GLC5        0.0000 
     32 CA         10.1210   -5.1180   16.9370 C.3       9 GLL5        0.0000 
     33 CA         12.9290   -6.1140   19.6730 C.3       6 GLP5        0.0000 
     34 CA         11.3260   -6.1220   15.3465 C.3       3 GLC5        0.0000 
     35 CA          4.9790   -1.2395   18.5475 C.3       3 GLC5        0.0000 
     36 CA          5.3380   -1.5960   16.5180 C.3       9 GLL5        0.0000 
     37 CA          6.6775   -2.0355   18.1685 C.3       3 GLC5        0.0000 
     38 CA          8.0170   -2.4750   19.8190 C.3       6 GLP5        0.0000 
     39 N           4.2820    1.1250   17.4355 N.am      2 SEC2        0.0000 
     40 N           5.0320    0.7290   16.4330 N.am      8 SEL2        0.0000 
     41 N           3.5320    1.5210   18.4380 N.am      5 SEP2        0.0000 
     42 N           5.6760    1.0860   17.7045 N.am      2 SEC2        0.0000 
     43 N           6.3200    1.4430   18.9760 N.am      5 SEP2        0.0000 
     44 O           6.3415    0.8615   16.8715 O.2       1 ALC1        0.0000 
     45 O           5.0320    0.7290   16.4330 O.2       7 ALL1        0.0000 
     46 O           7.6510    0.9940   17.3100 O.2       4 ALP1        0.0000 
     47 O           4.7845    2.2960   14.1075 O.2       1 ALC1        0.0000 
     48 O           4.7580    0.7430   13.6060 O.2       7 ALL1        0.0000 
     49 O           4.8110    3.8490   14.6090 O.2       4 ALP1        0.0000 
     50 N          -0.6450    4.0145   12.0390 N.am      2 SEC2        0.0000 
     51 N          -0.1640    2.6190   11.2010 N.am      8 SEL2        0.0000 
     52 N          -1.1260    5.4100   12.8770 N.am      5 SEP2        0.0000 
     53 O          -0.6900    3.7670   10.4905 O.2       1 ALC1        0.0000 
     54 O          -0.1640    2.6190   11.2010 O.2       7 ALL1        0.0000 
     55 O          -1.2160    4.9150    9.7800 O.2       4 ALP1        0.0000 
     56 CA         -1.2840    0.2435   12.2070 C.3       3 GLC5        0.0000 
     57 CA          0.9350    0.3430   12.3340 C.3       9 GLL5        0.0000 
     58 CA         -3.5030    0.1440   12.0800 C.3       6 GLP5        0.0000 
     59 CA          0.9655   -1.5670   11.8795 C.3       3 GLC5        0.0000 
     60 CA          0.9960   -3.4770   11.4250 C.3       6 GLP5        0.0000 
     61 CA          8.6870   -1.7215   11.9490 C.3       3 GLC5        0.0000 
     62 CA          7.7470   -0.2420   12.7580 C.3       9 GLL5        0.0000 
     63 CA          6.4950   -0.1280    9.6835 C.3       3 GLC5        0.0000 
     64 CA          7.9680    1.0620   10.4640 C.3       9 GLL5        0.0000 
     65 CA          5.0220   -1.3180    8.9030 C.3       6 GLP5        0.0000 
     66 CA          1.1955   -5.4450   17.2180 C.3       3 GLC5        0.0000 
     67 CA          2.6450   -4.1530   16.3150 C.3       9 GLL5        0.0000 
     68 CA         -0.6620   -6.0870   17.9820 C.3       6 GLP5        0.0000 
     69 CA          0.6471   -6.0170   16.4771 C.3       3 GLC5        0.0000 
     70 CA          0.4377   -3.6429   15.2651 C.3       3 GLC5        0.0000 
     71 CA         -1.0760   -2.6060   15.4920 C.3       6 GLP5        0.0000 
     72 CA          1.4297   -4.0607   13.0455 C.3       3 GLC5        0.0000 
     73 CA          2.2930   -4.0120   14.8260 C.3       9 GLL5        0.0000 
     74 CA          9.5101   -3.0975   17.7157 C.3       3 GLC5        0.0000 
     75 CA          9.1790   -1.7130   19.1680 C.3       6 GLP5        0.0000 
     76 CA         11.7011   -4.1980   15.9613 C.3       3 GLC5        0.0000 
     77 CA         13.5610   -3.9140   15.6590 C.3       6 GLP5        0.0000 
     78 CA          9.1182    0.0897   13.7220 C.3       3 GLC5        0.0000 
     79 CA          2.8783    2.8695   13.3915 C.3       3 GLC5        0.0000 
     80 CA          3.9390    2.5960   11.5220 C.3       9 GLL5        0.0000 
     81 CA          2.1880    3.6970   15.0260 C.3       6 GLP5        0.0000 
     82 CA          1.8958    5.4695   11.2947 C.3       3 GLC5        0.0000 
     83 CA          3.3240    3.6870   10.9180 C.3       9 GLL5        0.0000 
     84 CA          1.1540    7.2660   11.7540 C.3       6 GLP5        0.0000 
     85 CA          2.0549    3.4093   13.0291 C.3       3 GLC5        0.0000 
     86 CA          1.1978    1.8297   13.7222 C.3       3 GLC5        0.0000 
     87 CA          1.8060    1.4600   11.8290 C.3       9 GLL5        0.0000 
     88 CA          1.0250    2.7580   15.3630 C.3       6 GLP5        0.0000 
     89 CA          9.6445    2.2578   11.2780 C.3       3 GLC5        0.0000 
     90 CA          7.7040    1.2030   11.8200 C.3       9 GLL5        0.0000 
     91 CA         11.4530    3.3830   11.4140 C.3       6 GLP5        0.0000 
     92 CA          9.2335    1.0123   13.0130 C.3       3 GLC5        0.0000 
     93 CA          9.5985    1.5345    8.9185 C.3       3 GLC5        0.0000 
     94 CA         11.2270    1.4360    7.7620 C.3       6 GLP5        0.0000 
     95 CA          9.6480    3.1052   10.6945 C.3       3 GLC5        0.0000 
     96 CA          7.9720    2.2040    9.6860 C.3       9 GLL5        0.0000 
     97 CA          8.1943    3.8145   13.6265 C.3       3 GLC5        0.0000 
     98 CA          7.4430    3.5800   11.6300 C.3       9 GLL5        0.0000 
     99 CA          8.9490    4.6250   15.2320 C.3       6 GLP5        0.0000 
    100 CA          9.4462    3.1935   11.7175 C.3       3 GLC5        0.0000 
    101 CA          7.4360    2.4280   12.4120 C.3       9 GLL5        0.0000 
@<TRIPOS>BOND
@<TRIPOS>SUBSTRUCTURE
     1 ALC1       44 GROUP        1 X    ALC  0     ROOT ALC X 1
     2 SEC2       39 GROUP        1 X    SEC  0     **** SEC X 2
     3 GLC5        1 GROUP        1 X    GLC  0     **** GLC X 6
     4 ALP1       46 GROUP        1 Y    ALP  0     ROOT ALP Y 8
     5 SEP2       41 GROUP        1 Y    SEP  0     **** SEP Y 9
     6 GLP5        3 GROUP        1 Y    GLP  0     **** GLP Y 13
     7 ALL1       45 GROUP        1 Z    ALL  0     ROOT ALL Z 15
     8 SEL2       40 GROUP        1 Z    SEL  0     **** SEL Z 16
     9 GLL5        2 GROUP        1 Z    GLL  0     **** GLL Z 20
@<TRIPOS>SET

