#    Name: 1ohr_1UN_1_ligand
#    Modification time : Mon Mar 24 20:11:10 2014

@<TRIPOS>MOLECULE
1ohr_1UN_1_ligand
   86    89     1     0     0
SMALL
NO_CHARGES


@<TRIPOS>ATOM
      1 C1          2.6450   -4.1530   16.3150 C.3       1 1UN201      0.0000 
      2 C2          3.4610   -5.4530   16.5930 C.3       1 1UN201      0.0000 
      3 C3          2.6850   -6.6860   16.1660 C.3       1 1UN201      0.0000 
      4 C4          2.2720   -6.5480   14.7110 C.3       1 1UN201      0.0000 
      5 C5          1.4340   -5.2770   14.5060 C.3       1 1UN201      0.0000 
      6 C6          2.2930   -4.0120   14.8260 C.3       1 1UN201      0.0000 
      7 N7          4.7380   -2.8460   16.0410 N.4       1 1UN201      0.0000 
      8 C8          5.5780   -4.0310   16.3220 C.3       1 1UN201      0.0000 
      9 C9          4.8280   -5.3230   15.8890 C.3       1 1UN201      0.0000 
     10 C10         3.4830   -2.9590   16.8210 C.3       1 1UN201      0.0000 
     11 C11         6.8480   -3.9550   15.5210 C.2       1 1UN201      0.0000 
     12 N12         7.8860   -4.4650   16.2330 N.am      1 1UN201      0.0000 
     13 C13         9.2890   -4.5340   15.7600 C.3       1 1UN201      0.0000 
     14 C14         9.8340   -3.1580   15.4200 C.3       1 1UN201      0.0000 
     15 C15         9.3340   -5.4090   14.4700 C.3       1 1UN201      0.0000 
     16 C16        10.1210   -5.1180   16.9370 C.3       1 1UN201      0.0000 
     17 O17         6.8300   -3.5380   14.3450 O.2       1 1UN201      0.0000 
     18 C18         5.3380   -1.5960   16.5180 C.3       1 1UN201      0.0000 
     19 C19         4.8200   -0.4460   15.6410 C.3       1 1UN201      0.0000 
     20 C20         5.5120   -0.3020   14.2830 C.3       1 1UN201      0.0000 
     21 O21         5.0320    0.7290   16.4330 O.3       1 1UN201      0.0000 
     22 N22         4.7580    0.7430   13.6060 N.am      1 1UN201      0.0000 
     23 C23         6.9320    0.1830   14.3100 C.3       1 1UN201      0.0000 
     24 C24         3.8790    0.3930   12.6450 C.2       1 1UN201      0.0000 
     25 O25         3.7100   -0.7870   12.3060 O.2       1 1UN201      0.0000 
     26 C29         3.1980    1.4880   11.9920 C.ar      1 1UN201      0.0000 
     27 C30         3.9390    2.5960   11.5220 C.ar      1 1UN201      0.0000 
     28 C31         3.3240    3.6870   10.9180 C.ar      1 1UN201      0.0000 
     29 C32         1.9510    3.6590   10.7530 C.ar      1 1UN201      0.0000 
     30 C33         1.2060    2.5700   11.2290 C.ar      1 1UN201      0.0000 
     31 C34         1.8060    1.4600   11.8290 C.ar      1 1UN201      0.0000 
     32 O38        -0.1640    2.6190   11.2010 O.3       1 1UN201      0.0000 
     33 C39         0.9350    0.3430   12.3340 C.3       1 1UN201      0.0000 
     34 S74         7.7470   -0.2420   12.7580 S.3       1 1UN201      0.0000 
     35 C77         7.7040    1.2030   11.8200 C.ar      1 1UN201      0.0000 
     36 C78         7.9680    1.0620   10.4640 C.ar      1 1UN201      0.0000 
     37 C79         7.9720    2.2040    9.6860 C.ar      1 1UN201      0.0000 
     38 C80         7.7140    3.4510   10.2640 C.ar      1 1UN201      0.0000 
     39 C81         7.4430    3.5800   11.6300 C.ar      1 1UN201      0.0000 
     40 C82         7.4360    2.4280   12.4120 C.ar      1 1UN201      0.0000 
     41 H           1.7409   -4.2020   16.8983 H         1 1UN201      0.0000 
     42 H           3.6395   -5.4896   17.6654 H         1 1UN201      0.0000 
     43 H           1.7993   -6.7885   16.7850 H         1 1UN201      0.0000 
     44 H           3.3104   -7.5655   16.2823 H         1 1UN201      0.0000 
     45 H           1.6811   -7.4120   14.4152 H         1 1UN201      0.0000 
     46 H           3.1585   -6.4916   14.0831 H         1 1UN201      0.0000 
     47 H           0.5811   -5.2923   15.1696 H         1 1UN201      0.0000 
     48 H           1.1046   -5.2199   13.4782 H         1 1UN201      0.0000 
     49 H           3.1741   -4.0361   14.2405 H         1 1UN201      0.0000 
     50 H           1.7036   -3.1467   14.6724 H         1 1UN201      0.0000 
     51 H           4.4977   -2.7751   15.0102 H         1 1UN201      0.0000 
     52 H           5.8056   -4.1085   17.3548 H         1 1UN201      0.0000 
     53 H           4.6756   -5.2949   14.8122 H         1 1UN201      0.0000 
     54 H           5.4432   -6.1849   16.1383 H         1 1UN201      0.0000 
     55 H           3.6993   -3.1184   17.8772 H         1 1UN201      0.0000 
     56 H           2.8834   -2.0547   16.7185 H         1 1UN201      0.0000 
     57 H           7.7320   -4.8540   17.2026 H         1 1UN201      0.0000 
     58 H           6.4192   -1.6255   16.4374 H         1 1UN201      0.0000 
     59 H           5.0562   -1.3942   17.5458 H         1 1UN201      0.0000 
     60 H           3.7602   -0.5969   15.4918 H         1 1UN201      0.0000 
     61 H           5.4256   -1.2060   13.7376 H         1 1UN201      0.0000 
     62 H           4.9264    1.7060   13.8882 H         1 1UN201      0.0000 
     63 H           7.5467   -0.3046   15.0290 H         1 1UN201      0.0000 
     64 H           7.0315    1.2423   14.3349 H         1 1UN201      0.0000 
     65 H           4.9704    2.5857   11.6354 H         1 1UN201      0.0000 
     66 H           3.8737    4.4852   10.6060 H         1 1UN201      0.0000 
     67 H           1.4669    4.4344   10.2812 H         1 1UN201      0.0000 
     68 H           8.1515    0.1490   10.0608 H         1 1UN201      0.0000 
     69 H           8.1649    2.1443    8.6758 H         1 1UN201      0.0000 
     70 H           7.7238    4.2977    9.6674 H         1 1UN201      0.0000 
     71 H           7.2568    4.4900   12.0375 H         1 1UN201      0.0000 
     72 H           7.2346    2.4875   13.4143 H         1 1UN201      0.0000 
     73 H          10.7816   -3.2016   15.1036 H         1 1UN201      0.0000 
     74 H           9.3033   -2.7168   14.6963 H         1 1UN201      0.0000 
     75 H           9.8169   -2.5460   16.2107 H         1 1UN201      0.0000 
     76 H          10.2623   -5.4871   14.1064 H         1 1UN201      0.0000 
     77 H           9.0067   -6.3385   14.6401 H         1 1UN201      0.0000 
     78 H           8.7652   -5.0266   13.7418 H         1 1UN201      0.0000 
     79 H          11.0899   -5.1984   16.7029 H         1 1UN201      0.0000 
     80 H          10.0634   -4.5435   17.7535 H         1 1UN201      0.0000 
     81 H           9.8058   -6.0305   17.1978 H         1 1UN201      0.0000 
     82 H           1.1839   -0.5355   11.9262 H         1 1UN201      0.0000 
     83 H           1.0057    0.2363   13.3258 H         1 1UN201      0.0000 
     84 H          -0.0300    0.5006   12.1242 H         1 1UN201      0.0000 
     85 H           6.0236    0.8574   16.4451 H         1 1UN201      0.0000 
     86 H          -0.3827    3.4519   10.6926 H         1 1UN201      0.0000 
@<TRIPOS>BOND
     1    2    1 1    
     2    6    1 1    
     3   10    1 1    
     4   41    1 1    
     5    3    2 1    
     6    9    2 1    
     7   42    2 1    
     8    4    3 1    
     9   43    3 1    
    10   44    3 1    
    11    5    4 1    
    12   45    4 1    
    13   46    4 1    
    14    6    5 1    
    15   47    5 1    
    16   48    5 1    
    17   49    6 1    
    18   50    6 1    
    19    8    7 1    
    20   10    7 1    
    21   18    7 1    
    22   51    7 1    
    23    9    8 1    
    24   11    8 1    
    25   52    8 1    
    26   53    9 1    
    27   54    9 1    
    28   55   10 1    
    29   56   10 1    
    30   12   11 am   
    31   17   11 2    
    32   13   12 1    
    33   57   12 1    
    34   14   13 1    
    35   15   13 1    
    36   16   13 1    
    37   73   14 1    
    38   74   14 1    
    39   75   14 1    
    40   76   15 1    
    41   77   15 1    
    42   78   15 1    
    43   79   16 1    
    44   80   16 1    
    45   81   16 1    
    46   19   18 1    
    47   58   18 1    
    48   59   18 1    
    49   20   19 1    
    50   21   19 1    
    51   60   19 1    
    52   22   20 1    
    53   23   20 1    
    54   61   20 1    
    55   85   21 1    
    56   24   22 am   
    57   62   22 1    
    58   34   23 1    
    59   63   23 1    
    60   64   23 1    
    61   25   24 2    
    62   26   24 1    
    63   27   26 ar   
    64   31   26 ar   
    65   28   27 ar   
    66   65   27 1    
    67   29   28 ar   
    68   66   28 1    
    69   30   29 ar   
    70   67   29 1    
    71   31   30 ar   
    72   32   30 1    
    73   33   31 1    
    74   86   32 1    
    75   82   33 1    
    76   83   33 1    
    77   84   33 1    
    78   35   34 1    
    79   36   35 ar   
    80   40   35 ar   
    81   37   36 ar   
    82   68   36 1    
    83   38   37 ar   
    84   69   37 1    
    85   39   38 ar   
    86   70   38 1    
    87   40   39 ar   
    88   71   39 1    
    89   72   40 1    
@<TRIPOS>SUBSTRUCTURE
     1 1UN201      1 GROUP   
@<TRIPOS>SET

