#    Name: 1afe_ALZ_1_INTS_M
#    Modification time : Mon Mar 24 18:20:07 2014

@<TRIPOS>MOLECULE
1afe_ALZ_1_INTS_M
   59     0    12     0     0
SMALL
NO_CHARGES


@<TRIPOS>ATOM
      1 N          16.0455  -13.4520   24.2870 N.am      2 SEC2        0.0000 
      2 N          16.8720  -14.2490   23.1690 N.am     10 SEL2        0.0000 
      3 N          15.2190  -12.6550   25.4050 N.am      6 SEP2        0.0000 
      4 CA         15.8290  -17.3580   25.8590 C.3       4 GLC5        0.0000 
      5 CA         17.8520  -17.6710   24.9840 C.3      12 GLL5        0.0000 
      6 CA         13.8060  -17.0450   26.7340 C.3       8 GLP5        0.0000 
      7 CA         18.4015  -12.3065   23.2255 C.3       4 GLC5        0.0000 
      8 CA         18.7390  -12.9860   21.3980 C.3      12 GLL5        0.0000 
      9 CA         18.0640  -11.6270   25.0530 C.3       8 GLP5        0.0000 
     10 OD1         9.6135  -11.6735   25.0550 O.co2     3 ASC3        0.0000 
     11 OD1        10.5240  -12.8780   24.1680 O.co2    11 ASL3        0.0000 
     12 OD1         8.7030  -10.4690   25.9420 O.co2     7 ASP3        0.0000 
     13 OD1         9.5095  -12.7835   25.0320 O.co2     3 ASC3        0.0000 
     14 OD1         8.4950  -12.6890   25.8960 O.co2     7 ASP3        0.0000 
     15 O          10.8735  -11.8240   24.7585 O.2       1 ALC1        0.0000 
     16 O          10.5240  -12.8780   24.1680 O.2       9 ALL1        0.0000 
     17 O          11.2230  -10.7700   25.3490 O.2       5 ALP1        0.0000 
     18 O           9.4910  -12.2265   23.4015 O.2       1 ALC1        0.0000 
     19 O           8.4580  -11.5750   22.6350 O.2       5 ALP1        0.0000 
     20 O          10.5600  -14.2020   24.3330 O.2       1 ALC1        0.0000 
     21 O          10.5960  -15.5260   24.4980 O.2       5 ALP1        0.0000 
     22 CA         10.1060  -14.1740   22.1990 C.3       4 GLC5        0.0000 
     23 CA         11.3660  -12.9950   22.9820 C.3      12 GLL5        0.0000 
     24 CA          8.8460  -15.3530   21.4160 C.3       8 GLP5        0.0000 
     25 CA         10.9565  -10.1515   22.6065 C.3       4 GLC5        0.0000 
     26 CA         12.2570  -11.7980   22.7700 C.3      12 GLL5        0.0000 
     27 CA          9.6560   -8.5050   22.4430 C.3       8 GLP5        0.0000 
     28 CA         13.6575   -9.1400   21.7790 C.3       4 GLC5        0.0000 
     29 CA         14.3860  -11.2100   21.5400 C.3      12 GLL5        0.0000 
     30 CA         12.9290   -7.0700   22.0180 C.3       8 GLP5        0.0000 
     31 CA         15.5165  -11.0705   23.1260 C.3       4 GLC5        0.0000 
     32 CA         16.6470  -10.9310   24.7120 C.3       8 GLP5        0.0000 
     33 O          17.5875  -10.5285   19.9675 O.2       1 ALC1        0.0000 
     34 O          16.6650  -11.7090   20.7700 O.2       9 ALL1        0.0000 
     35 O          18.5100   -9.3480   19.1650 O.2       5 ALP1        0.0000 
     36 O          17.2305  -10.6115   21.6890 O.2       1 ALC1        0.0000 
     37 O          17.7960   -9.5140   22.6080 O.2       5 ALP1        0.0000 
     38 CA         16.9357  -18.0793   27.8387 C.3       4 GLC5        0.0000 
     39 CA         18.6300  -18.6860   27.4600 C.3      12 GLL5        0.0000 
     40 CA         15.4890  -17.0410   28.7060 C.3       8 GLP5        0.0000 
     41 CA         17.0222  -17.0562   27.6465 C.3       4 GLC5        0.0000 
     42 CA         18.7430  -17.3190   27.2120 C.3      12 GLL5        0.0000 
     43 CA         19.2456  -17.0411   28.2570 C.3       4 GLC5        0.0000 
     44 CA         18.3680  -16.8240   25.9620 C.3      12 GLL5        0.0000 
     45 CA         19.9640  -16.6690   29.8650 C.3       8 GLP5        0.0000 
     46 CA         19.4808  -11.4108   19.7080 C.3       4 GLC5        0.0000 
     47 CA         19.6930   -9.7950   18.5770 C.3       8 GLP5        0.0000 
     48 CA         22.1710  -14.9292   20.5343 C.3       4 GLC5        0.0000 
     49 CA         20.5880  -14.3630   20.5170 C.3      12 GLL5        0.0000 
     50 CA         24.0480  -15.1430   19.9320 C.3       8 GLP5        0.0000 
     51 CA         20.6606  -12.2964   21.9635 C.3       4 GLC5        0.0000 
     52 CA         21.3930  -10.8980   23.2490 C.3       8 GLP5        0.0000 
     53 CA         19.7188  -15.5062   19.3351 C.3       4 GLC5        0.0000 
     54 CA         19.7980  -13.0670   20.2800 C.3      12 GLL5        0.0000 
     55 CA         19.3410  -16.6210   17.5930 C.3       8 GLP5        0.0000 
     56 CA         13.0262  -12.8487   24.5500 C.3       4 GLC5        0.0000 
     57 CA         14.2410  -13.3010   26.2240 C.3       8 GLP5        0.0000 
     58 CA         10.8009  -12.1294   21.1262 C.3       4 GLC5        0.0000 
     59 CA          9.1920  -12.1350   20.0820 C.3       8 GLP5        0.0000 
@<TRIPOS>BOND
@<TRIPOS>SUBSTRUCTURE
     1 ALC1       15 GROUP        1 X    ALC  0     ROOT ALC X 1
     2 SEC2        1 GROUP        1 X    SEC  0     **** SEC X 2
     3 ASC3       10 GROUP        1 X    ASC  0     **** ASC X 3
     4 GLC5        4 GROUP        1 X    GLC  0     **** GLC X 6
     5 ALP1       17 GROUP        1 Y    ALP  0     ROOT ALP Y 8
     6 SEP2        3 GROUP        1 Y    SEP  0     **** SEP Y 9
     7 ASP3       12 GROUP        1 Y    ASP  0     **** ASP Y 10
     8 GLP5        6 GROUP        1 Y    GLP  0     **** GLP Y 13
     9 ALL1       16 GROUP        1 Z    ALL  0     ROOT ALL Z 15
    10 SEL2        2 GROUP        1 Z    SEL  0     **** SEL Z 16
    11 ASL3       11 GROUP        1 Z    ASL  0     **** ASL Z 17
    12 GLL5        5 GROUP        1 Z    GLL  0     **** GLL Z 20
@<TRIPOS>SET

