#    Name: 1afe_ALZ_1_ligand
#    Modification time : Mon Mar 24 18:20:07 2014

@<TRIPOS>MOLECULE
1afe_ALZ_1_ligand
   51    52     1     0     0
SMALL
NO_CHARGES


@<TRIPOS>ATOM
      1 C14        17.9880  -14.7720   22.9920 C.2       1 ALZ600      0.0000 
      2 O14        16.8720  -14.2490   23.1690 O.2       1 ALZ600      0.0000 
      3 O15        18.2670  -15.9830   23.4420 O.3       1 ALZ600      0.0000 
      4 C16        17.4980  -17.1240   23.6600 C.3       1 ALZ600      0.0000 
      5 C17        17.8520  -17.6710   24.9840 C.ar      1 ALZ600      0.0000 
      6 C18        17.7550  -19.0330   25.2480 C.ar      1 ALZ600      0.0000 
      7 C19        18.1350  -19.5490   26.4830 C.ar      1 ALZ600      0.0000 
      8 C20        18.6300  -18.6860   27.4600 C.ar      1 ALZ600      0.0000 
      9 C21        18.7430  -17.3190   27.2120 C.ar      1 ALZ600      0.0000 
     10 C22        18.3680  -16.8240   25.9620 C.ar      1 ALZ600      0.0000 
     11 N8         18.9230  -14.2270   22.2170 N.am      1 ALZ600      0.0000 
     12 C9         18.7390  -12.9860   21.3980 C.3       1 ALZ600      0.0000 
     13 C8         17.3510  -12.9230   20.7540 C.2       1 ALZ600      0.0000 
     14 O8         16.9430  -13.9050   20.1740 O.2       1 ALZ600      0.0000 
     15 C10        19.7980  -13.0670   20.2800 C.3       1 ALZ600      0.0000 
     16 C11        20.5880  -14.3630   20.5170 C.3       1 ALZ600      0.0000 
     17 C12        20.0000  -15.0680   21.7560 C.3       1 ALZ600      0.0000 
     18 N1         10.5240  -12.8780   24.1680 N.4       1 ALZ600      0.0000 
     19 C2         11.3660  -12.9950   22.9820 C.3       1 ALZ600      0.0000 
     20 C3         12.2570  -11.7980   22.7700 C.3       1 ALZ600      0.0000 
     21 C4         13.0080  -11.8510   21.4650 C.3       1 ALZ600      0.0000 
     22 C5         14.3860  -11.2100   21.5400 C.3       1 ALZ600      0.0000 
     23 N6         15.3100  -11.5970   20.4460 N.pl3     1 ALZ600      0.0000 
     24 N7         16.6650  -11.7090   20.7700 N.am      1 ALZ600      0.0000 
     25 H          17.6834  -17.8966   22.9001 H         1 ALZ600      0.0000 
     26 H          16.4211  -16.9030   23.6481 H         1 ALZ600      0.0000 
     27 H          17.3959  -19.6705   24.5174 H         1 ALZ600      0.0000 
     28 H          18.0527  -20.5503   26.6735 H         1 ALZ600      0.0000 
     29 H          18.9159  -19.0639   28.3771 H         1 ALZ600      0.0000 
     30 H          19.0946  -16.6888   27.9330 H         1 ALZ600      0.0000 
     31 H          18.4750  -15.8165   25.7609 H         1 ALZ600      0.0000 
     32 H          18.9235  -12.1236   21.9733 H         1 ALZ600      0.0000 
     33 H          20.4553  -12.2273   20.3519 H         1 ALZ600      0.0000 
     34 H          19.3093  -13.1126   19.3306 H         1 ALZ600      0.0000 
     35 H          21.6210  -14.1258   20.7002 H         1 ALZ600      0.0000 
     36 H          20.4876  -15.0066   19.6611 H         1 ALZ600      0.0000 
     37 H          19.6511  -16.0408   21.4505 H         1 ALZ600      0.0000 
     38 H          20.7841  -15.1596   22.4897 H         1 ALZ600      0.0000 
     39 H          10.7396  -13.1292   22.0775 H         1 ALZ600      0.0000 
     40 H          12.0046  -13.8983   23.0514 H         1 ALZ600      0.0000 
     41 H          12.9780  -11.7315   23.6009 H         1 ALZ600      0.0000 
     42 H          11.6455  -10.8816   22.7995 H         1 ALZ600      0.0000 
     43 H          12.4211  -11.3413   20.6839 H         1 ALZ600      0.0000 
     44 H          13.1212  -12.9009   21.1501 H         1 ALZ600      0.0000 
     45 H          14.8372  -11.4690   22.5219 H         1 ALZ600      0.0000 
     46 H          14.2563  -10.1064   21.5493 H         1 ALZ600      0.0000 
     47 H          14.9435  -11.7600   19.5401 H         1 ALZ600      0.0000 
     48 H          17.1875  -10.8413   21.0366 H         1 ALZ600      0.0000 
     49 H          10.3243  -13.7711   24.5712 H         1 ALZ600      0.0000 
     50 H          10.9590  -12.3259   24.8793 H         1 ALZ600      0.0000 
     51 H           9.6458  -12.4477   23.9590 H         1 ALZ600      0.0000 
@<TRIPOS>BOND
     1    2    1 2    
     2    3    1 1    
     3   11    1 am   
     4    4    3 1    
     5    5    4 1    
     6   25    4 1    
     7   26    4 1    
     8    6    5 ar   
     9   10    5 ar   
    10    7    6 ar   
    11   27    6 1    
    12    8    7 ar   
    13   28    7 1    
    14    9    8 ar   
    15   29    8 1    
    16   10    9 ar   
    17   30    9 1    
    18   31   10 1    
    19   12   11 1    
    20   17   11 1    
    21   13   12 1    
    22   15   12 1    
    23   32   12 1    
    24   14   13 2    
    25   24   13 am   
    26   16   15 1    
    27   33   15 1    
    28   34   15 1    
    29   17   16 1    
    30   35   16 1    
    31   36   16 1    
    32   37   17 1    
    33   38   17 1    
    34   19   18 1    
    35   49   18 1    
    36   50   18 1    
    37   51   18 1    
    38   20   19 1    
    39   39   19 1    
    40   40   19 1    
    41   21   20 1    
    42   41   20 1    
    43   42   20 1    
    44   22   21 1    
    45   43   21 1    
    46   44   21 1    
    47   23   22 1    
    48   45   22 1    
    49   46   22 1    
    50   24   23 1    
    51   47   23 1    
    52   48   24 1    
@<TRIPOS>SUBSTRUCTURE
     1 ALZ600      1 GROUP   
@<TRIPOS>SET

