#    Name: 1olt_SAM_1_INTS_M
#    Modification time : Mon Mar 24 20:19:13 2014

@<TRIPOS>MOLECULE
1olt_SAM_1_INTS_M
   77     0    12     0     0
SMALL
NO_CHARGES


@<TRIPOS>ATOM
      1 O          19.6905   59.9275   10.3400 O.2       1 ALC1        0.0000 
      2 O          19.4990   58.6020    9.7860 O.2       9 ALL1        0.0000 
      3 O          19.8820   61.2530   10.8940 O.2       5 ALP1        0.0000 
      4 O          18.0510   59.0780    9.9180 O.2       1 ALC1        0.0000 
      5 O          16.6030   59.5540   10.0500 O.2       5 ALP1        0.0000 
      6 CA         18.4020   57.7060    7.5400 C.3       4 GLC5        0.0000 
      7 CA         20.0760   58.1220    8.5380 C.3      12 GLL5        0.0000 
      8 CA         16.7280   57.2900    6.5420 C.3       8 GLP5        0.0000 
      9 NZ         19.6730   54.5115    9.5030 N.4       3 LYC4        0.0000 
     10 NZ         20.0740   55.8880    9.4880 N.4      11 LYL4        0.0000 
     11 NZ         19.2220   52.5980    8.3000 N.4       7 LYP4        0.0000 
     12 N          19.6730   54.5115    9.5030 N.am      2 SEC2        0.0000 
     13 N          20.0740   55.8880    9.4880 N.am     10 SEL2        0.0000 
     14 N          19.2720   53.1350    9.5180 N.am      6 SEP2        0.0000 
     15 N          19.7850   54.6130    8.3565 N.am      2 SEC2        0.0000 
     16 N          19.4960   53.3380    7.2250 N.am      6 SEP2        0.0000 
     17 NZ         19.7850   54.6130    8.3565 N.4       3 LYC4        0.0000 
     18 NZ         20.1900   56.1710    7.2860 N.4      11 LYL4        0.0000 
     19 N          21.3630   55.8850    6.0995 N.am      2 SEC2        0.0000 
     20 N          20.1900   56.1710    7.2860 N.am     10 SEL2        0.0000 
     21 N          22.5360   55.5990    4.9130 N.am      6 SEP2        0.0000 
     22 N          19.8430   54.7545    7.2555 N.am      2 SEC2        0.0000 
     23 CA         22.2065   60.2625    7.4880 C.3       4 GLC5        0.0000 
     24 CA         21.5090   58.6870    8.4850 C.3      12 GLL5        0.0000 
     25 CA         22.9040   61.8380    6.4910 C.3       8 GLP5        0.0000 
     26 N          23.3695   54.0890    9.3385 N.am      2 SEC2        0.0000 
     27 N          24.0930   55.3050    9.4690 N.am     10 SEL2        0.0000 
     28 N          22.6460   52.8730    9.2080 N.am      6 SEP2        0.0000 
     29 O          25.0700   55.8500    8.6175 O.2       1 ALC1        0.0000 
     30 O          24.0930   55.3050    9.4690 O.2       9 ALL1        0.0000 
     31 O          26.0470   56.3950    7.7660 O.2       5 ALP1        0.0000 
     32 CA         23.6715   53.0390   12.4470 C.3       4 GLC5        0.0000 
     33 CA         25.1920   54.1720   11.4250 C.3      12 GLL5        0.0000 
     34 CA         22.1510   51.9060   13.4690 C.3       8 GLP5        0.0000 
     35 O          25.2235   52.5740    9.8465 O.2       1 ALC1        0.0000 
     36 O          26.0220   53.5800   10.4260 O.2       9 ALL1        0.0000 
     37 O          24.4250   51.5680    9.2670 O.2       5 ALP1        0.0000 
     38 N          24.0385   54.4790   17.0135 N.am      2 SEC2        0.0000 
     39 N          24.8180   54.0410   15.7670 N.am     10 SEL2        0.0000 
     40 N          23.2590   54.9170   18.2600 N.am      6 SEP2        0.0000 
     41 CA         28.1635   52.1580   18.2820 C.3       4 GLC5        0.0000 
     42 CA         26.5740   52.4660   16.7240 C.3      12 GLL5        0.0000 
     43 CA         29.7530   51.8500   19.8400 C.3       8 GLP5        0.0000 
     44 O          24.6550   51.8745   17.9590 O.2       1 ALC1        0.0000 
     45 O          26.0590   52.2610   17.9360 O.2       9 ALL1        0.0000 
     46 O          23.2510   51.4880   17.9820 O.2       5 ALP1        0.0000 
     47 O          26.5885   51.4965   19.1475 O.2       1 ALC1        0.0000 
     48 O          27.1180   50.7320   20.3590 O.2       5 ALP1        0.0000 
     49 N          28.4770   50.9230   17.3765 N.am      2 SEC2        0.0000 
     50 N          27.7510   51.8560   16.3920 N.am     10 SEL2        0.0000 
     51 N          29.2030   49.9900   18.3610 N.am      6 SEP2        0.0000 
     52 CA         27.9365   50.2640   14.1010 C.3       4 GLC5        0.0000 
     53 CA         28.3190   52.0570   15.1290 C.3      12 GLL5        0.0000 
     54 CA         27.5540   48.4710   13.0730 C.3       8 GLP5        0.0000 
     55 CA         29.4525   52.1095   13.6515 C.3       4 GLC5        0.0000 
     56 CA         30.5860   52.1620   12.1740 C.3       8 GLP5        0.0000 
     57 CA         28.7470   50.2590   15.8080 C.3       4 GLC5        0.0000 
     58 CA         29.1750   48.4610   16.4870 C.3       8 GLP5        0.0000 
     59 CA         21.9120   61.7330   11.9110 C.3       4 GLC5        0.0000 
     60 CA         22.5960   59.7000   11.3610 C.3      12 GLL5        0.0000 
     61 CA         21.2280   63.7660   12.4610 C.3       8 GLP5        0.0000 
     62 CA         20.8200   60.8005   12.1845 C.3       4 GLC5        0.0000 
     63 CA         19.0440   61.9010   13.0080 C.3       8 GLP5        0.0000 
     64 CA         24.2585   57.6437   13.0442 C.3       4 GLC5        0.0000 
     65 CA         24.5600   57.9270   11.2080 C.3      12 GLL5        0.0000 
     66 CA         23.5820   58.0500   14.8760 C.3       8 GLP5        0.0000 
     67 CA         25.7037   54.4600    9.1498 C.3       4 GLC5        0.0000 
     68 CA         24.4270   55.3760   10.8600 C.3      12 GLL5        0.0000 
     69 CA         26.5980   54.1460    7.1570 C.3       8 GLP5        0.0000 
     70 CA         25.4977   52.5225   12.2245 C.3       4 GLC5        0.0000 
     71 CA         25.3630   50.5660   12.4940 C.3       8 GLP5        0.0000 
     72 CA         27.5437   54.1340   11.2995 C.3       4 GLC5        0.0000 
     73 CA         29.4550   53.7890   10.6440 C.3       8 GLP5        0.0000 
     74 CA         25.8200   51.9735   13.8208 C.3       4 GLC5        0.0000 
     75 CA         26.5830   53.4630   14.5290 C.3      12 GLL5        0.0000 
     76 CA         23.1180   58.4420   13.0018 C.3       4 GLC5        0.0000 
     77 CA         22.7120   57.9680   10.8940 C.3      12 GLL5        0.0000 
@<TRIPOS>BOND
@<TRIPOS>SUBSTRUCTURE
     1 ALC1        1 GROUP        1 X    ALC  0     ROOT ALC X 1
     2 SEC2       12 GROUP        1 X    SEC  0     **** SEC X 2
     3 LYC4        9 GROUP        1 X    LYC  0     **** LYC X 4
     4 GLC5        6 GROUP        1 X    GLC  0     **** GLC X 6
     5 ALP1        3 GROUP        1 Y    ALP  0     ROOT ALP Y 8
     6 SEP2       14 GROUP        1 Y    SEP  0     **** SEP Y 9
     7 LYP4       11 GROUP        1 Y    LYP  0     **** LYP Y 11
     8 GLP5        8 GROUP        1 Y    GLP  0     **** GLP Y 13
     9 ALL1        2 GROUP        1 Z    ALL  0     ROOT ALL Z 15
    10 SEL2       13 GROUP        1 Z    SEL  0     **** SEL Z 16
    11 LYL4       10 GROUP        1 Z    LYL  0     **** LYL Z 18
    12 GLL5        7 GROUP        1 Z    GLL  0     **** GLL Z 20
@<TRIPOS>SET

