#    Name: 1olt_SAM_1_ligand
#    Modification time : Mon Mar 24 20:19:13 2014

@<TRIPOS>MOLECULE
1olt_SAM_1_ligand
   50    52     1     0     0
SMALL
NO_CHARGES


@<TRIPOS>ATOM
      1 N          19.4990   58.6020    9.7860 N.4       1 SAM501      0.0000 
      2 CA         20.0760   58.1220    8.5380 C.3       1 SAM501      0.0000 
      3 C          20.1440   56.5940    8.4230 C.2       1 SAM501      0.0000 
      4 O          20.0740   55.8880    9.4880 O.co2     1 SAM501      0.0000 
      5 OXT        20.1900   56.1710    7.2860 O.co2     1 SAM501      0.0000 
      6 CB         21.5090   58.6870    8.4850 C.3       1 SAM501      0.0000 
      7 C4'        25.3100   56.5480   11.2170 C.3       1 SAM501      0.0000 
      8 O4'        25.8190   56.1740   12.4910 O.3       1 SAM501      0.0000 
      9 C3'        24.4270   55.3760   10.8600 C.3       1 SAM501      0.0000 
     10 O3'        24.0930   55.3050    9.4690 O.3       1 SAM501      0.0000 
     11 C2'        25.1920   54.1720   11.4250 C.3       1 SAM501      0.0000 
     12 O2'        26.0220   53.5800   10.4260 O.3       1 SAM501      0.0000 
     13 C1'        26.0730   54.7860   12.4850 C.3       1 SAM501      0.0000 
     14 N9         25.8120   54.2920   13.8220 N.pl3     1 SAM501      0.0000 
     15 C8         24.7340   54.6520   14.5890 C.2       1 SAM501      0.0000 
     16 N7         24.8180   54.0410   15.7670 N.2       1 SAM501      0.0000 
     17 C5         25.9710   53.2990   15.7660 C.ar      1 SAM501      0.0000 
     18 C6         26.5740   52.4660   16.7240 C.ar      1 SAM501      0.0000 
     19 N6         26.0590   52.2610   17.9360 N.pl3     1 SAM501      0.0000 
     20 N1         27.7510   51.8560   16.3920 N.ar      1 SAM501      0.0000 
     21 C2         28.3190   52.0570   15.1290 C.ar      1 SAM501      0.0000 
     22 N3         27.7480   52.8650   14.2060 N.ar      1 SAM501      0.0000 
     23 C4         26.5830   53.4630   14.5290 C.ar      1 SAM501      0.0000 
     24 CG         22.6680   57.9670    9.1200 C.3       1 SAM501      0.0000 
     25 SD         22.7120   57.9680   10.8940 S.3       1 SAM501      0.0000 
     26 CE         22.5960   59.7000   11.3610 C.3       1 SAM501      0.0000 
     27 C5'        24.5600   57.9270   11.2080 C.3       1 SAM501      0.0000 
     28 H          19.5505   58.5200    7.6897 H         1 SAM501      0.0000 
     29 H          21.4680   59.7463    8.9033 H         1 SAM501      0.0000 
     30 H          21.7560   58.8737    7.3882 H         1 SAM501      0.0000 
     31 H          26.1119   56.5852   10.4884 H         1 SAM501      0.0000 
     32 H          23.5244   55.4766   11.4914 H         1 SAM501      0.0000 
     33 H          24.5153   53.5152   11.8736 H         1 SAM501      0.0000 
     34 H          27.1068   54.6051   12.2139 H         1 SAM501      0.0000 
     35 H          24.0352   55.2568   14.2974 H         1 SAM501      0.0000 
     36 H          25.0617   52.2929   18.0014 H         1 SAM501      0.0000 
     37 H          26.7163   52.0937   18.6709 H         1 SAM501      0.0000 
     38 H          29.2135   51.5579   14.9105 H         1 SAM501      0.0000 
     39 H          23.6380   58.3988    8.8558 H         1 SAM501      0.0000 
     40 H          22.6935   56.8998    8.8801 H         1 SAM501      0.0000 
     41 H          24.9236   58.6023   10.4269 H         1 SAM501      0.0000 
     42 H          24.6246   58.4511   12.1669 H         1 SAM501      0.0000 
     43 H          19.8751   59.4896   10.0518 H         1 SAM501      0.0000 
     44 H          18.5074   58.7121    9.7186 H         1 SAM501      0.0000 
     45 H          19.6731   57.9714   10.5424 H         1 SAM501      0.0000 
     46 H          22.6091   59.8186   12.3539 H         1 SAM501      0.0000 
     47 H          23.3553   60.2359   10.9918 H         1 SAM501      0.0000 
     48 H          21.7517   60.1190   11.0268 H         1 SAM501      0.0000 
     49 H          24.8698   55.7195    8.9950 H         1 SAM501      0.0000 
     50 H          25.3866   53.1761    9.7679 H         1 SAM501      0.0000 
@<TRIPOS>BOND
     1    2    1 1    
     2   43    1 1    
     3   44    1 1    
     4   45    1 1    
     5    3    2 1    
     6    6    2 1    
     7   28    2 1    
     8    4    3 ar   
     9    5    3 ar   
    10   24    6 1    
    11   29    6 1    
    12   30    6 1    
    13    8    7 1    
    14    9    7 1    
    15   27    7 1    
    16   31    7 1    
    17   13    8 1    
    18   10    9 1    
    19   11    9 1    
    20   32    9 1    
    21   49   10 1    
    22   12   11 1    
    23   13   11 1    
    24   33   11 1    
    25   50   12 1    
    26   14   13 1    
    27   34   13 1    
    28   15   14 1    
    29   23   14 1    
    30   16   15 2    
    31   35   15 1    
    32   17   16 1    
    33   18   17 ar   
    34   23   17 ar   
    35   19   18 1    
    36   20   18 ar   
    37   36   19 1    
    38   37   19 1    
    39   21   20 ar   
    40   22   21 ar   
    41   38   21 1    
    42   23   22 ar   
    43   25   24 1    
    44   39   24 1    
    45   40   24 1    
    46   26   25 1    
    47   27   25 1    
    48   46   26 1    
    49   47   26 1    
    50   48   26 1    
    51   41   27 1    
    52   42   27 1    
@<TRIPOS>SUBSTRUCTURE
     1 SAM501      1 GROUP   
@<TRIPOS>SET

