#    Name: 3dv5_BAV_3_INTS_M
#    Modification time : Tue Mar 25 00:28:24 2014

@<TRIPOS>MOLECULE
3dv5_BAV_3_INTS_M
   95     0    12     0     0
SMALL
NO_CHARGES


@<TRIPOS>ATOM
      1 CA         10.8710  -37.9795   47.6165 C.3       4 GLC5        0.0000 
      2 CA         10.0620  -39.0670   49.3200 C.3      12 GLL5        0.0000 
      3 CA         11.6800  -36.8920   45.9130 C.3       8 GLP5        0.0000 
      4 O           9.1635  -41.0015   47.0285 O.2       1 ALC1        0.0000 
      5 O           9.8990  -41.3000   48.3180 O.2       9 ALL1        0.0000 
      6 O           8.4280  -40.7030   45.7390 O.2       5 ALP1        0.0000 
      7 CA          8.0730  -45.3830   47.1530 C.3       4 GLC5        0.0000 
      8 CA          8.8610  -43.4320   47.7250 C.3      12 GLL5        0.0000 
      9 CA          7.2850  -47.3340   46.5810 C.3       8 GLP5        0.0000 
     10 CA          8.8605  -42.6955   45.7310 C.3       4 GLC5        0.0000 
     11 CA          8.8600  -41.9590   43.7370 C.3       8 GLP5        0.0000 
     12 CA          5.7955  -44.1790   46.0280 C.3       4 GLC5        0.0000 
     13 CA          6.4030  -43.8470   47.9690 C.3      12 GLL5        0.0000 
     14 CA          5.1880  -44.5110   44.0870 C.3       8 GLP5        0.0000 
     15 CA          6.8440  -45.5905   47.2750 C.3       4 GLC5        0.0000 
     16 CA          3.3605  -44.1535   48.5470 C.3       4 GLC5        0.0000 
     17 CA          5.0420  -43.5000   48.6370 C.3      12 GLL5        0.0000 
     18 CA          1.6790  -44.8070   48.4570 C.3       8 GLP5        0.0000 
     19 CA          2.7375  -41.0095   48.8645 C.3       4 GLC5        0.0000 
     20 CA          4.6420  -41.9810   48.5140 C.3      12 GLL5        0.0000 
     21 CA          0.8330  -40.0380   49.2150 C.3       8 GLP5        0.0000 
     22 CA          3.4225  -40.2035   44.7650 C.3       4 GLC5        0.0000 
     23 CA          4.0120  -40.2350   46.8200 C.3      12 GLL5        0.0000 
     24 CA          2.8330  -40.1720   42.7100 C.3       8 GLP5        0.0000 
     25 CA          6.7265  -36.2775   46.9120 C.3       4 GLC5        0.0000 
     26 CA          6.5610  -37.7400   48.5370 C.3      12 GLL5        0.0000 
     27 CA          6.8920  -34.8150   45.2870 C.3       8 GLP5        0.0000 
     28 N           8.6735  -36.8795   46.3755 N.am      2 SEC2        0.0000 
     29 N           8.7450  -37.2090   47.8270 N.am     10 SEL2        0.0000 
     30 N           8.6020  -36.5500   44.9240 N.am      6 SEP2        0.0000 
     31 CA          9.1285  -44.3440   50.6770 C.3       4 GLC5        0.0000 
     32 CA          7.8290  -43.2620   50.0280 C.3      12 GLL5        0.0000 
     33 CA         10.4280  -45.4260   51.3260 C.3       8 GLP5        0.0000 
     34 CA          6.6600  -44.9420   50.2660 C.3       4 GLC5        0.0000 
     35 CA          5.4910  -46.6220   50.5040 C.3       8 GLP5        0.0000 
     36 CA         10.0995  -42.4880   45.5000 C.3       4 GLC5        0.0000 
     37 CA         11.3390  -43.0170   47.2630 C.3      12 GLL5        0.0000 
     38 O          11.0970  -44.4085   45.3825 O.2       1 ALC1        0.0000 
     39 O          11.5740  -44.4020   47.0160 O.2       9 ALL1        0.0000 
     40 O          10.6200  -44.4150   43.7490 O.2       5 ALP1        0.0000 
     41 O          10.9155  -45.1315   46.1895 O.2       1 ALC1        0.0000 
     42 O          10.2570  -45.8610   45.3630 O.2       5 ALP1        0.0000 
     43 OD1        12.9290  -42.5295   45.1695 O.co2     3 ASC3        0.0000 
     44 OD1        13.7310  -42.9650   46.8930 O.co2    11 ASL3        0.0000 
     45 OD1        12.1270  -42.0940   43.4460 O.co2     7 ASP3        0.0000 
     46 OD1        13.5535  -42.0215   45.9195 O.co2     3 ASC3        0.0000 
     47 OD1        13.3760  -41.0780   44.9460 O.co2     7 ASP3        0.0000 
     48 CA         16.6245  -43.9450   47.0070 C.3       4 GLC5        0.0000 
     49 CA         15.0780  -42.8110   47.5040 C.3      12 GLL5        0.0000 
     50 CA         18.1710  -45.0790   46.5100 C.3       8 GLP5        0.0000 
     51 CA         16.3055  -42.0480   45.9800 C.3       4 GLC5        0.0000 
     52 CA         17.5330  -41.2850   44.4560 C.3       8 GLP5        0.0000 
     53 CA         14.5235  -42.2580   52.1850 C.3       4 GLC5        0.0000 
     54 CA         15.8370  -43.7150   51.1710 C.3      12 GLL5        0.0000 
     55 CA         13.2100  -40.8010   53.1990 C.3       8 GLP5        0.0000 
     56 CA         14.5265  -41.3870   51.0365 C.3       4 GLC5        0.0000 
     57 CA         15.5840  -42.9750   49.9970 C.3      12 GLL5        0.0000 
     58 CA         13.4690  -39.7990   52.0760 C.3       8 GLP5        0.0000 
     59 CA         17.0500  -48.1475   47.1235 C.3       4 GLC5        0.0000 
     60 CA         16.2120  -47.8900   48.8450 C.3      12 GLL5        0.0000 
     61 CA         17.8880  -48.4050   45.4020 C.3       8 GLP5        0.0000 
     62 CA         17.1915  -46.4845   47.6775 C.3       4 GLC5        0.0000 
     63 CA         13.1545  -47.9240   48.0210 C.3       4 GLC5        0.0000 
     64 CA         13.9070  -47.7830   49.7240 C.3      12 GLL5        0.0000 
     65 CA         12.4020  -48.0650   46.3180 C.3       8 GLP5        0.0000 
     66 CA         12.8520  -48.7015   50.8270 C.3       4 GLC5        0.0000 
     67 CA         11.7970  -49.6200   51.9300 C.3       8 GLP5        0.0000 
     68 CA         12.4050  -46.8250   49.9075 C.3       4 GLC5        0.0000 
     69 CA         10.9030  -45.8670   50.0910 C.3       8 GLP5        0.0000 
     70 N          11.9080  -41.5625   51.4765 N.am      2 SEC2        0.0000 
     71 N          11.0060  -41.0380   50.2980 N.am     10 SEL2        0.0000 
     72 N          12.8100  -42.0870   52.6550 N.am      6 SEP2        0.0000 
     73 N          10.9365  -40.8165   52.0220 N.am      2 SEC2        0.0000 
     74 N          10.8670  -40.5950   53.7460 N.am      6 SEP2        0.0000 
     75 CA          9.9095  -38.6185   52.2775 C.3       4 GLC5        0.0000 
     76 CA         10.7840  -38.2620   50.4400 C.3      12 GLL5        0.0000 
     77 CA          9.0350  -38.9750   54.1150 C.3       8 GLP5        0.0000 
     78 CA          8.3805  -39.2970   52.2070 C.3       4 GLC5        0.0000 
     79 CA          7.7260  -39.6190   50.2990 C.3      12 GLL5        0.0000 
     80 CA         11.9460  -39.2318   50.9780 C.3       4 GLC5        0.0000 
     81 CA         10.2045  -44.4793   49.0430 C.3       4 GLC5        0.0000 
     82 CA         10.1510  -42.7510   48.2650 C.3      12 GLL5        0.0000 
     83 CA          5.6067  -45.1478   49.4035 C.3       4 GLC5        0.0000 
     84 CA          3.0018  -42.7398   47.7485 C.3       4 GLC5        0.0000 
     85 CA          1.2850  -43.7230   47.7130 C.3       8 GLP5        0.0000 
     86 CA          3.6292  -42.2182   45.5830 C.3       4 GLC5        0.0000 
     87 CA          4.7950  -41.5320   47.0540 C.3      12 GLL5        0.0000 
     88 CA          2.8550  -43.5530   44.2290 C.3       8 GLP5        0.0000 
     89 CA          2.5553  -38.9615   46.3115 C.3       4 GLC5        0.0000 
     90 CA          0.8560  -38.2690   45.3430 C.3       8 GLP5        0.0000 
     91 CA          2.5438  -39.8460   48.2475 C.3       4 GLC5        0.0000 
     92 CA         11.4543  -44.3017   48.8077 C.3       4 GLC5        0.0000 
     93 CA         13.9917  -44.4248   52.0057 C.3       4 GLC5        0.0000 
     94 CA         15.7720  -45.1220   51.1420 C.3      12 GLL5        0.0000 
     95 CA         12.1790  -44.4310   52.8550 C.3       8 GLP5        0.0000 
@<TRIPOS>BOND
@<TRIPOS>SUBSTRUCTURE
     1 ALC1        4 GROUP        1 X    ALC  0     ROOT ALC X 1
     2 SEC2       28 GROUP        1 X    SEC  0     **** SEC X 2
     3 ASC3       43 GROUP        1 X    ASC  0     **** ASC X 3
     4 GLC5        1 GROUP        1 X    GLC  0     **** GLC X 6
     5 ALP1        6 GROUP        1 Y    ALP  0     ROOT ALP Y 8
     6 SEP2       30 GROUP        1 Y    SEP  0     **** SEP Y 9
     7 ASP3       45 GROUP        1 Y    ASP  0     **** ASP Y 10
     8 GLP5        3 GROUP        1 Y    GLP  0     **** GLP Y 13
     9 ALL1        5 GROUP        1 Z    ALL  0     ROOT ALL Z 15
    10 SEL2       29 GROUP        1 Z    SEL  0     **** SEL Z 16
    11 ASL3       44 GROUP        1 Z    ASL  0     **** ASL Z 17
    12 GLL5        2 GROUP        1 Z    GLL  0     **** GLL Z 20
@<TRIPOS>SET

