#    Name: 3dv5_BAV_3_ligand
#    Modification time : Tue Mar 25 00:28:24 2014

@<TRIPOS>MOLECULE
3dv5_BAV_3_ligand
   83    84     1     0     0
SMALL
NO_CHARGES


@<TRIPOS>ATOM
      1 N1          8.6070  -38.8650   49.3770 N.am      1 BAV501      0.0000 
      2 C2         10.0620  -39.0670   49.3200 C.3       1 BAV501      0.0000 
      3 C4         10.3710  -40.5660   49.3620 C.2       1 BAV501      0.0000 
      4 N5          9.8990  -41.3000   48.3180 N.am      1 BAV501      0.0000 
      5 C7         10.1510  -42.7510   48.2650 C.3       1 BAV501      0.0000 
      6 C9          8.8610  -43.4320   47.7250 C.3       1 BAV501      0.0000 
      7 C12         7.6070  -42.9980   48.5160 C.3       1 BAV501      0.0000 
      8 C14         6.4030  -43.8470   47.9690 C.3       1 BAV501      0.0000 
      9 C17         5.0420  -43.5000   48.6370 C.3       1 BAV501      0.0000 
     10 C20         4.6420  -41.9810   48.5140 C.3       1 BAV501      0.0000 
     11 C23         4.7950  -41.5320   47.0540 C.3       1 BAV501      0.0000 
     12 C26         4.0120  -40.2350   46.8200 C.3       1 BAV501      0.0000 
     13 C29         4.4970  -39.0730   47.7400 C.3       1 BAV501      0.0000 
     14 C32         6.0370  -38.8630   47.5670 C.3       1 BAV501      0.0000 
     15 C35         6.5610  -37.7400   48.5370 C.3       1 BAV501      0.0000 
     16 C38         8.0600  -37.9220   48.5530 C.2       1 BAV501      0.0000 
     17 O39         8.7450  -37.2090   47.8270 O.2       1 BAV501      0.0000 
     18 C40         7.8290  -43.2620   50.0280 C.3       1 BAV501      0.0000 
     19 C44        11.3390  -43.0170   47.2630 C.3       1 BAV501      0.0000 
     20 O46        11.5740  -44.4020   47.0160 O.3       1 BAV501      0.0000 
     21 C48        12.6720  -42.4560   47.7860 C.3       1 BAV501      0.0000 
     22 N51        13.7310  -42.9650   46.8930 N.4       1 BAV501      0.0000 
     23 C53        15.0780  -42.8110   47.5040 C.3       1 BAV501      0.0000 
     24 C56        15.2770  -43.6390   48.7940 C.ar      1 BAV501      0.0000 
     25 C57        15.1640  -45.0460   48.7760 C.ar      1 BAV501      0.0000 
     26 C59        15.4230  -45.7880   49.9510 C.ar      1 BAV501      0.0000 
     27 C60        15.7720  -45.1220   51.1420 C.ar      1 BAV501      0.0000 
     28 C62        15.8370  -43.7150   51.1710 C.ar      1 BAV501      0.0000 
     29 C64        15.5840  -42.9750   49.9970 C.ar      1 BAV501      0.0000 
     30 C66        15.3360  -47.3260   49.9610 C.3       1 BAV501      0.0000 
     31 C68        16.2120  -47.8900   48.8450 C.3       1 BAV501      0.0000 
     32 C72        13.9070  -47.7830   49.7240 C.3       1 BAV501      0.0000 
     33 O76        11.0060  -41.0380   50.2980 O.2       1 BAV501      0.0000 
     34 C77        10.7840  -38.2620   50.4400 C.3       1 BAV501      0.0000 
     35 C81         7.7260  -39.6190   50.2990 C.3       1 BAV501      0.0000 
     36 H          10.4326  -38.6824   48.3570 H         1 BAV501      0.0000 
     37 H           9.3662  -40.8935   47.5486 H         1 BAV501      0.0000 
     38 H          10.3933  -43.1456   49.2010 H         1 BAV501      0.0000 
     39 H           8.9765  -44.5115   47.8015 H         1 BAV501      0.0000 
     40 H           8.7347  -43.1626   46.6781 H         1 BAV501      0.0000 
     41 H           7.4163  -41.9783   48.3428 H         1 BAV501      0.0000 
     42 H           6.6227  -44.9047   48.1364 H         1 BAV501      0.0000 
     43 H           6.3242  -43.6793   46.8917 H         1 BAV501      0.0000 
     44 H           5.0894  -43.7571   49.6989 H         1 BAV501      0.0000 
     45 H           4.2536  -44.1006   48.1746 H         1 BAV501      0.0000 
     46 H           5.2963  -41.4058   49.1463 H         1 BAV501      0.0000 
     47 H           3.6174  -41.8738   48.8264 H         1 BAV501      0.0000 
     48 H           4.4108  -42.3061   46.3999 H         1 BAV501      0.0000 
     49 H           5.8438  -41.3615   46.8406 H         1 BAV501      0.0000 
     50 H           2.9520  -40.4096   47.0142 H         1 BAV501      0.0000 
     51 H           4.1269  -39.9229   45.7802 H         1 BAV501      0.0000 
     52 H           4.2909  -39.3256   48.7671 H         1 BAV501      0.0000 
     53 H           3.9862  -38.1656   47.4626 H         1 BAV501      0.0000 
     54 H           6.2415  -38.5655   46.5493 H         1 BAV501      0.0000 
     55 H           6.5481  -39.7860   47.7968 H         1 BAV501      0.0000 
     56 H           6.1486  -37.9110   49.4988 H         1 BAV501      0.0000 
     57 H           6.2984  -36.7974   48.1286 H         1 BAV501      0.0000 
     58 H          11.1161  -42.4930   46.3372 H         1 BAV501      0.0000 
     59 H          12.8171  -42.8030   48.7957 H         1 BAV501      0.0000 
     60 H          12.6256  -41.3799   47.7574 H         1 BAV501      0.0000 
     61 H          15.2657  -41.7507   47.7498 H         1 BAV501      0.0000 
     62 H          15.8595  -43.1126   46.7841 H         1 BAV501      0.0000 
     63 H          14.8961  -45.5270   47.9175 H         1 BAV501      0.0000 
     64 H          15.9785  -45.6603   51.9868 H         1 BAV501      0.0000 
     65 H          16.0669  -43.2308   52.0402 H         1 BAV501      0.0000 
     66 H          15.6240  -41.9527   50.0210 H         1 BAV501      0.0000 
     67 H          15.6819  -47.6939   50.8974 H         1 BAV501      0.0000 
     68 H           8.0013  -44.2292   50.2148 H         1 BAV501      0.0000 
     69 H           8.6117  -42.7509   50.3832 H         1 BAV501      0.0000 
     70 H           7.0335  -42.9956   50.5723 H         1 BAV501      0.0000 
     71 H          17.1703  -47.6265   48.9559 H         1 BAV501      0.0000 
     72 H          16.1839  -48.8893   48.8199 H         1 BAV501      0.0000 
     73 H          15.9212  -47.5658   47.9448 H         1 BAV501      0.0000 
     74 H          13.8308  -48.7801   49.7259 H         1 BAV501      0.0000 
     75 H          13.2858  -47.4402   50.4287 H         1 BAV501      0.0000 
     76 H          13.5562  -47.4639   48.8436 H         1 BAV501      0.0000 
     77 H          11.7754  -38.3886   50.4081 H         1 BAV501      0.0000 
     78 H          10.6112  -37.2801   50.3619 H         1 BAV501      0.0000 
     79 H          10.4820  -38.5411   51.3515 H         1 BAV501      0.0000 
     80 H           7.7751  -40.6045   50.1367 H         1 BAV501      0.0000 
     81 H           7.9729  -39.4669   51.2560 H         1 BAV501      0.0000 
     82 H           6.7675  -39.3526   50.1977 H         1 BAV501      0.0000 
     83 H          10.8804  -44.6666   46.3460 H         1 BAV501      0.0000 
@<TRIPOS>BOND
     1    2    1 1    
     2   16    1 am   
     3   35    1 1    
     4    3    2 1    
     5   34    2 1    
     6   36    2 1    
     7    4    3 am   
     8   33    3 2    
     9    5    4 1    
    10   37    4 1    
    11    6    5 1    
    12   19    5 1    
    13   38    5 1    
    14    7    6 1    
    15   39    6 1    
    16   40    6 1    
    17    8    7 1    
    18   18    7 1    
    19   41    7 1    
    20    9    8 1    
    21   42    8 1    
    22   43    8 1    
    23   10    9 1    
    24   44    9 1    
    25   45    9 1    
    26   11   10 1    
    27   46   10 1    
    28   47   10 1    
    29   12   11 1    
    30   48   11 1    
    31   49   11 1    
    32   13   12 1    
    33   50   12 1    
    34   51   12 1    
    35   14   13 1    
    36   52   13 1    
    37   53   13 1    
    38   15   14 1    
    39   54   14 1    
    40   55   14 1    
    41   16   15 1    
    42   56   15 1    
    43   57   15 1    
    44   17   16 2    
    45   68   18 1    
    46   69   18 1    
    47   70   18 1    
    48   20   19 1    
    49   21   19 1    
    50   58   19 1    
    51   83   20 1    
    52   22   21 1    
    53   59   21 1    
    54   60   21 1    
    55   23   22 1    
    56   24   23 1    
    57   61   23 1    
    58   62   23 1    
    59   25   24 ar   
    60   29   24 ar   
    61   26   25 ar   
    62   63   25 1    
    63   27   26 ar   
    64   30   26 1    
    65   28   27 ar   
    66   64   27 1    
    67   29   28 ar   
    68   65   28 1    
    69   66   29 1    
    70   31   30 1    
    71   32   30 1    
    72   67   30 1    
    73   71   31 1    
    74   72   31 1    
    75   73   31 1    
    76   74   32 1    
    77   75   32 1    
    78   76   32 1    
    79   77   34 1    
    80   78   34 1    
    81   79   34 1    
    82   80   35 1    
    83   81   35 1    
    84   82   35 1    
@<TRIPOS>SUBSTRUCTURE
     1 BAV501      1 GROUP   
@<TRIPOS>SET

