#    Name: 2zff_53U_1_INTS_M
#    Modification time : Tue Mar 25 10:40:49 2014

@<TRIPOS>MOLECULE
2zff_53U_1_INTS_M
   57     0     9     0     0
SMALL
NO_CHARGES


@<TRIPOS>ATOM
      1 O          15.3185  -15.0430   23.8000 O.2       1 ALC1        0.0000 
      2 O          16.3900  -15.7830   23.1600 O.2       7 ALL1        0.0000 
      3 O          14.2470  -14.3030   24.4400 O.2       4 ALP1        0.0000 
      4 N          15.5755  -12.3315   24.0060 N.am      2 SEC2        0.0000 
      5 N          16.5060  -12.9450   23.0320 N.am      8 SEL2        0.0000 
      6 N          14.6450  -11.7180   24.9800 N.am      5 SEP2        0.0000 
      7 CA         17.6175  -13.4930   26.1205 C.3       3 GLC5        0.0000 
      8 CA         18.1720  -14.9170   24.5950 C.3       9 GLL5        0.0000 
      9 CA         17.0630  -12.0690   27.6460 C.3       6 GLP5        0.0000 
     10 CA         20.9190  -11.2070   24.2520 C.3       3 GLC5        0.0000 
     11 CA         21.1010  -12.7410   25.6970 C.3       9 GLL5        0.0000 
     12 CA         20.7370   -9.6730   22.8070 C.3       6 GLP5        0.0000 
     13 CA         22.6905  -11.7565   23.8240 C.3       3 GLC5        0.0000 
     14 CA         22.1890  -13.3330   25.0460 C.3       9 GLL5        0.0000 
     15 CA         23.1920  -10.1800   22.6020 C.3       6 GLP5        0.0000 
     16 CA         17.7265  -11.1655   22.8930 C.3       3 GLC5        0.0000 
     17 CA         18.0280  -11.8220   21.0620 C.3       9 GLL5        0.0000 
     18 CA         17.4250  -10.5090   24.7240 C.3       6 GLP5        0.0000 
     19 O          16.5540   -9.5325   21.5040 O.2       1 ALC1        0.0000 
     20 O          15.9710  -10.5760   20.7540 O.2       7 ALL1        0.0000 
     21 O          17.1370   -8.4890   22.2540 O.2       4 ALP1        0.0000 
     22 CA         15.0010   -8.8115   18.7815 C.3       3 GLC5        0.0000 
     23 CA         14.6590  -10.4300   20.1130 C.3       9 GLL5        0.0000 
     24 CA         15.3430   -7.1930   17.4500 C.3       6 GLP5        0.0000 
     25 CA         10.2205  -12.8865   21.6675 C.3       3 GLC5        0.0000 
     26 CA         11.7790  -11.6630   22.3090 C.3       9 GLL5        0.0000 
     27 CA          8.6620  -14.1100   21.0260 C.3       6 GLP5        0.0000 
     28 CA         19.1750  -14.8560   26.6913 C.3       3 GLC5        0.0000 
     29 CA         19.4680  -15.0680   28.7130 C.3       6 GLP5        0.0000 
     30 CA         19.9648  -14.0315   27.1685 C.3       3 GLC5        0.0000 
     31 CA         19.8220  -13.2490   25.5510 C.3       9 GLL5        0.0000 
     32 CA         22.9040  -12.1995   26.5403 C.3       3 GLC5        0.0000 
     33 CA         24.1630  -11.3620   27.7090 C.3       6 GLP5        0.0000 
     34 CA         18.9145  -11.8923   25.0731 C.3       3 GLC5        0.0000 
     35 CA         18.8400  -10.3022   19.2883 C.3       3 GLC5        0.0000 
     36 CA         19.1940   -8.7460   18.1440 C.3       6 GLP5        0.0000 
     37 CA         21.6360  -13.6380   20.2410 C.3       3 GLC5        0.0000 
     38 CA         20.1040  -12.7670   20.3170 C.3       9 GLL5        0.0000 
     39 CA         23.5320  -13.9230   19.8120 C.3       6 GLP5        0.0000 
     40 CA         20.0160  -10.9929   21.5909 C.3       3 GLC5        0.0000 
     41 CA         19.0345  -13.9930   19.0048 C.3       3 GLC5        0.0000 
     42 CA         18.9440  -11.8950   19.8030 C.3       9 GLL5        0.0000 
     43 CA         18.6190  -14.8510   17.4680 C.3       6 GLP5        0.0000 
     44 CA         15.0960  -10.1920   22.4688 C.3       3 GLC5        0.0000 
     45 CA         16.0790   -9.9230   24.2860 C.3       6 GLP5        0.0000 
     46 CA         12.7385   -7.6905   21.9855 C.3       3 GLC5        0.0000 
     47 CA         13.3860   -9.3970   22.0370 C.3       9 GLL5        0.0000 
     48 CA         12.5830   -5.9610   21.4450 C.3       6 GLP5        0.0000 
     49 CA         14.4865   -9.6715   23.4060 C.3       3 GLC5        0.0000 
     50 CA         10.6223   -8.7050   22.6088 C.3       3 GLC5        0.0000 
     51 CA         12.4020   -9.4430   23.0150 C.3       9 GLL5        0.0000 
     52 CA          9.2490   -7.4050   22.1280 C.3       6 GLP5        0.0000 
     53 CA         12.7346  -11.6050   24.2181 C.3       3 GLC5        0.0000 
     54 CA         13.5820  -12.3760   25.7370 C.3       6 GLP5        0.0000 
     55 CA         10.5615  -11.1965   20.8914 C.3       3 GLC5        0.0000 
     56 CA         11.5890  -10.5670   23.1640 C.3       9 GLL5        0.0000 
     57 CA          8.8960  -11.0290   19.7510 C.3       6 GLP5        0.0000 
@<TRIPOS>BOND
@<TRIPOS>SUBSTRUCTURE
     1 ALC1        1 GROUP        1 X    ALC  0     ROOT ALC X 1
     2 SEC2        4 GROUP        1 X    SEC  0     **** SEC X 2
     3 GLC5        7 GROUP        1 X    GLC  0     **** GLC X 6
     4 ALP1        3 GROUP        1 Y    ALP  0     ROOT ALP Y 8
     5 SEP2        6 GROUP        1 Y    SEP  0     **** SEP Y 9
     6 GLP5        9 GROUP        1 Y    GLP  0     **** GLP Y 13
     7 ALL1        2 GROUP        1 Z    ALL  0     ROOT ALL Z 15
     8 SEL2        5 GROUP        1 Z    SEL  0     **** SEL Z 16
     9 GLL5        8 GROUP        1 Z    GLL  0     **** GLL Z 20
@<TRIPOS>SET

