#    Name: 2zff_53U_1_ligand
#    Modification time : Tue Mar 25 10:40:49 2014

@<TRIPOS>MOLECULE
2zff_53U_1_ligand
   52    54     1     0     0
SMALL
NO_CHARGES


@<TRIPOS>ATOM
      1 N1         16.3900  -15.7830   23.1600 N.4       1 53U2001     0.0000 
      2 C2         17.6570  -15.0120   23.1460 C.3       1 53U2001     0.0000 
      3 C3         17.4360  -13.6310   22.5680 C.2       1 53U2001     0.0000 
      4 O1         16.5060  -12.9450   23.0320 O.2       1 53U2001     0.0000 
      5 C1         18.1720  -14.9170   24.5950 C.3       1 53U2001     0.0000 
      6 C16        19.5920  -14.3710   24.7440 C.ar      1 53U2001     0.0000 
      7 C17        20.6910  -14.9640   24.0890 C.ar      1 53U2001     0.0000 
      8 C21        19.8220  -13.2490   25.5510 C.ar      1 53U2001     0.0000 
      9 C18        21.9860  -14.4540   24.2350 C.ar      1 53U2001     0.0000 
     10 C20        21.1010  -12.7410   25.6970 C.ar      1 53U2001     0.0000 
     11 C19        22.1890  -13.3330   25.0460 C.ar      1 53U2001     0.0000 
     12 N2         18.2450  -13.1710   21.5890 N.am      1 53U2001     0.0000 
     13 C7         18.0280  -11.8220   21.0620 C.3       1 53U2001     0.0000 
     14 C8         16.6090  -11.7290   20.5280 C.2       1 53U2001     0.0000 
     15 O2         16.2150  -12.7280   19.9260 O.2       1 53U2001     0.0000 
     16 C6         18.9440  -11.8950   19.8030 C.3       1 53U2001     0.0000 
     17 C5         20.1040  -12.7670   20.3170 C.3       1 53U2001     0.0000 
     18 C4         19.3760  -13.9390   21.0230 C.3       1 53U2001     0.0000 
     19 N3         15.9710  -10.5760   20.7540 N.am      1 53U2001     0.0000 
     20 C9         14.6590  -10.4300   20.1130 C.3       1 53U2001     0.0000 
     21 C10        13.5670  -10.4920   21.1900 C.ar      1 53U2001     0.0000 
     22 C11        13.3860   -9.3970   22.0370 C.ar      1 53U2001     0.0000 
     23 C12        12.4020   -9.4430   23.0150 C.ar      1 53U2001     0.0000 
     24 C13        11.5890  -10.5670   23.1640 C.ar      1 53U2001     0.0000 
     25 C14        11.7790  -11.6630   22.3090 C.ar      1 53U2001     0.0000 
     26 C15        12.7700  -11.6130   21.3270 C.ar      1 53U2001     0.0000 
     27 H          18.3946  -15.5328   22.5647 H         1 53U2001     0.0000 
     28 H          18.1241  -15.9234   25.0511 H         1 53U2001     0.0000 
     29 H          17.4786  -14.2777   25.1726 H         1 53U2001     0.0000 
     30 H          20.5323  -15.7908   23.4908 H         1 53U2001     0.0000 
     31 H          19.0285  -12.8045   26.0359 H         1 53U2001     0.0000 
     32 H          22.7709  -14.8943   23.7561 H         1 53U2001     0.0000 
     33 H          21.2620  -11.9119   26.2945 H         1 53U2001     0.0000 
     34 H          23.1297  -12.9467   25.1632 H         1 53U2001     0.0000 
     35 H          18.3049  -11.0858   21.6561 H         1 53U2001     0.0000 
     36 H          19.2912  -10.9349   19.5716 H         1 53U2001     0.0000 
     37 H          18.4356  -12.3903   19.0335 H         1 53U2001     0.0000 
     38 H          20.6709  -12.2290   21.0239 H         1 53U2001     0.0000 
     39 H          20.6608  -13.1388   19.5032 H         1 53U2001     0.0000 
     40 H          19.0558  -14.6187   20.2998 H         1 53U2001     0.0000 
     41 H          19.9967  -14.3170   21.7708 H         1 53U2001     0.0000 
     42 H          16.3114   -9.8226   21.3136 H         1 53U2001     0.0000 
     43 H          14.4816  -11.2320   19.4005 H         1 53U2001     0.0000 
     44 H          14.5794   -9.4741   19.6008 H         1 53U2001     0.0000 
     45 H          13.9775   -8.5665   21.9345 H         1 53U2001     0.0000 
     46 H          12.2669   -8.6329   23.6447 H         1 53U2001     0.0000 
     47 H          10.8670  -10.5950   23.8820 H         1 53U2001     0.0000 
     48 H          11.1911  -12.4954   22.4074 H         1 53U2001     0.0000 
     49 H          12.9039  -12.4231   20.7010 H         1 53U2001     0.0000 
     50 H          15.5938  -15.1871   23.2644 H         1 53U2001     0.0000 
     51 H          16.2604  -16.2998   22.3137 H         1 53U2001     0.0000 
     52 H          16.3641  -16.4412   23.9123 H         1 53U2001     0.0000 
@<TRIPOS>BOND
     1    2    1 1    
     2   50    1 1    
     3   51    1 1    
     4   52    1 1    
     5    3    2 1    
     6    5    2 1    
     7   27    2 1    
     8    4    3 2    
     9   12    3 am   
    10    6    5 1    
    11   28    5 1    
    12   29    5 1    
    13    7    6 ar   
    14    8    6 ar   
    15    9    7 ar   
    16   30    7 1    
    17   10    8 ar   
    18   31    8 1    
    19   11    9 ar   
    20   32    9 1    
    21   11   10 ar   
    22   33   10 1    
    23   34   11 1    
    24   13   12 1    
    25   18   12 1    
    26   14   13 1    
    27   16   13 1    
    28   35   13 1    
    29   15   14 2    
    30   19   14 am   
    31   17   16 1    
    32   36   16 1    
    33   37   16 1    
    34   18   17 1    
    35   38   17 1    
    36   39   17 1    
    37   40   18 1    
    38   41   18 1    
    39   20   19 1    
    40   42   19 1    
    41   21   20 1    
    42   43   20 1    
    43   44   20 1    
    44   22   21 ar   
    45   26   21 ar   
    46   23   22 ar   
    47   45   22 1    
    48   24   23 ar   
    49   46   23 1    
    50   25   24 ar   
    51   47   24 1    
    52   26   25 ar   
    53   48   25 1    
    54   49   26 1    
@<TRIPOS>SUBSTRUCTURE
     1 53U2001     1 GROUP   
@<TRIPOS>SET

