#    Name: 3o50_LJE_2_INTS_M
#    Modification time : Tue Mar 25 03:15:14 2014

@<TRIPOS>MOLECULE
3o50_LJE_2_INTS_M
   74     0     6     0     0
SMALL
NO_CHARGES


@<TRIPOS>ATOM
      1 CA         48.9085   71.0065   22.9575 C.3       2 GLC5        0.0000 
      2 CA         47.4110   70.2740   22.1380 C.3       6 GLL5        0.0000 
      3 CA         50.4060   71.7390   23.7770 C.3       4 GLP5        0.0000 
      4 CA         48.6785   69.4225   20.6890 C.3       2 GLC5        0.0000 
      5 CA         49.9460   68.5710   19.2400 C.3       4 GLP5        0.0000 
      6 CA         44.4550   69.8670   24.8620 C.3       2 GLC5        0.0000 
      7 CA         46.1190   70.1200   23.7550 C.3       6 GLL5        0.0000 
      8 CA         42.7910   69.6140   25.9690 C.3       4 GLP5        0.0000 
      9 CA         46.2960   70.7485   25.2415 C.3       2 GLC5        0.0000 
     10 CA         46.4730   71.3770   26.7280 C.3       4 GLP5        0.0000 
     11 N          29.1155   68.0390   19.8815 N.am      1 SEC2        0.0000 
     12 N          30.1520   68.4930   20.8240 N.am      5 SEL2        0.0000 
     13 N          28.0790   67.5850   18.9390 N.am      3 SEP2        0.0000 
     14 CA         44.6140   73.1385   22.3770 C.3       2 GLC5        0.0000 
     15 CA         46.0210   71.8950   22.5100 C.3       6 GLL5        0.0000 
     16 CA         43.2070   74.3820   22.2440 C.3       4 GLP5        0.0000 
     17 CA         46.4380   73.5000   22.8245 C.3       2 GLC5        0.0000 
     18 CA         46.8550   75.1050   23.1390 C.3       4 GLP5        0.0000 
     19 CA         47.8780   72.4845   23.2955 C.3       2 GLC5        0.0000 
     20 CA         49.7350   73.0740   24.0810 C.3       4 GLP5        0.0000 
     21 CA         43.2130   69.9950   23.9525 C.3       2 GLC5        0.0000 
     22 CA         43.6350   70.3760   21.9360 C.3       6 GLL5        0.0000 
     23 CA         43.4210   72.3790   22.0900 C.3       2 GLC5        0.0000 
     24 CA         29.2085   66.8565   20.9635 C.3       2 GLC5        0.0000 
     25 CA         29.8180   68.3600   22.1210 C.3       6 GLL5        0.0000 
     26 CA         28.5990   65.3530   19.8060 C.3       4 GLP5        0.0000 
     27 CA         31.1225   67.0035   21.5755 C.3       2 GLC5        0.0000 
     28 CA         32.4270   65.6470   21.0300 C.3       4 GLP5        0.0000 
     29 CA         29.8305   69.2380   18.9760 C.3       2 GLC5        0.0000 
     30 CA         31.3600   68.8980   20.3720 C.3       6 GLL5        0.0000 
     31 CA         28.3010   69.5780   17.5800 C.3       4 GLP5        0.0000 
     32 CA         31.1555   71.0370   25.0105 C.3       2 GLC5        0.0000 
     33 CA         32.6700   69.5820   25.0890 C.3       6 GLL5        0.0000 
     34 CA         29.6410   72.4920   24.9320 C.3       4 GLP5        0.0000 
     35 CA         33.2065   71.4515   24.5100 C.3       2 GLC5        0.0000 
     36 CA         33.7430   73.3210   23.9310 C.3       4 GLP5        0.0000 
     37 CA         34.8150   70.9955   23.8070 C.3       2 GLC5        0.0000 
     38 CA         34.4950   69.2620   23.5420 C.3       6 GLL5        0.0000 
     39 CA         35.1350   72.7290   24.0720 C.3       4 GLP5        0.0000 
     40 CA         36.7735   70.2920   26.8720 C.3       2 GLC5        0.0000 
     41 CA         35.0080   69.6890   25.9070 C.3       6 GLL5        0.0000 
     42 CA         38.5390   70.8950   27.8370 C.3       4 GLP5        0.0000 
     43 CA         36.0290   71.3770   22.7245 C.3       2 GLC5        0.0000 
     44 CA         36.9230   70.0250   21.3770 C.3       6 GLL5        0.0000 
     45 CA         36.8955   64.4875   23.5200 C.3       2 GLC5        0.0000 
     46 CA         36.6190   66.5560   23.1250 C.3       6 GLL5        0.0000 
     47 CA         37.1720   62.4190   23.9150 C.3       4 GLP5        0.0000 
     48 CA         43.0900   67.4232   18.5905 C.3       2 GLC5        0.0000 
     49 CA         42.9090   68.6370   20.2310 C.3       6 GLL5        0.0000 
     50 CA         42.6020   66.4240   17.0580 C.3       4 GLP5        0.0000 
     51 CA         45.7880   71.7552   24.4203 C.3       2 GLC5        0.0000 
     52 CA         46.1810   70.5820   22.5390 C.3       6 GLL5        0.0000 
     53 CA         45.4750   72.2720   26.3160 C.3       4 GLP5        0.0000 
     54 CA         31.3353   70.9288   19.9995 C.3       2 GLC5        0.0000 
     55 CA         32.4010   69.2210   21.2540 C.3       6 GLL5        0.0000 
     56 CA         30.7900   72.7980   19.1860 C.3       4 GLP5        0.0000 
     57 CA         33.0738   68.0138   19.4670 C.3       2 GLC5        0.0000 
     58 CA         34.2670   66.9680   18.1210 C.3       4 GLP5        0.0000 
     59 CA         32.1135   67.3364   21.0969 C.3       2 GLC5        0.0000 
     60 CA         32.6367   70.8460   27.2145 C.3       2 GLC5        0.0000 
     61 CA         32.1380   72.0210   28.8060 C.3       4 GLP5        0.0000 
     62 CA         34.7197   71.2268   25.0520 C.3       2 GLC5        0.0000 
     63 CA         33.6010   69.7600   26.1570 C.3       6 GLL5        0.0000 
     64 CA         32.9160   71.1149   22.7081 C.3       2 GLC5        0.0000 
     65 CA         33.0840   69.3240   23.7350 C.3       6 GLL5        0.0000 
     66 CA         33.1700   72.9910   22.5710 C.3       4 GLP5        0.0000 
     67 CA         36.6451   70.3115   19.8321 C.3       2 GLC5        0.0000 
     68 CA         38.2930   69.9720   21.1100 C.3       6 GLL5        0.0000 
     69 CA         35.8170   70.9100   18.2530 C.3       4 GLP5        0.0000 
     70 CA         38.2259   71.4060   21.8600 C.3       2 GLC5        0.0000 
     71 CA         38.6430   73.1010   22.3780 C.3       4 GLP5        0.0000 
     72 CA         36.7904   65.9383   21.3578 C.3       2 GLC5        0.0000 
     73 CA         37.1740   67.7130   22.4480 C.3       6 GLL5        0.0000 
     74 CA         36.3370   64.7510   19.9980 C.3       4 GLP5        0.0000 
@<TRIPOS>BOND
@<TRIPOS>SUBSTRUCTURE
     1 SEC2       11 GROUP        1 X    SEC  0     ROOT SEC X 2
     2 GLC5        1 GROUP        1 X    GLC  0     **** GLC X 6
     3 SEP2       13 GROUP        1 Y    SEP  0     ROOT SEP Y 9
     4 GLP5        3 GROUP        1 Y    GLP  0     **** GLP Y 13
     5 SEL2       12 GROUP        1 Z    SEL  0     ROOT SEL Z 16
     6 GLL5        2 GROUP        1 Z    GLL  0     **** GLL Z 20
@<TRIPOS>SET

