#    Name: 3o50_LJE_2_ligand
#    Modification time : Tue Mar 25 03:15:14 2014

@<TRIPOS>MOLECULE
3o50_LJE_2_ligand
   50    53     1     0     0
SMALL
NO_CHARGES


@<TRIPOS>ATOM
      1 C1         44.2470   68.2080   20.0150 C.ar      1 LJE1        0.0000 
      2 F1         47.4110   70.2740   22.1380 F         1 LJE1        0.0000 
      3 N1         30.7760   68.6570   23.0320 N.ar      1 LJE1        0.0000 
      4 O1         35.0280   69.0010   22.2750 O.3       1 LJE1        0.0000 
      5 C2         45.2810   68.8810   20.7820 C.ar      1 LJE1        0.0000 
      6 F2         46.1190   70.1200   23.7550 F         1 LJE1        0.0000 
      7 N2         30.1520   68.4930   20.8240 N.ar      1 LJE1        0.0000 
      8 O2         40.8000   71.1440   21.6160 O.2       1 LJE1        0.0000 
      9 C3         45.0210   69.9500   21.7370 C.ar      1 LJE1        0.0000 
     10 F3         46.0210   71.8950   22.5100 F         1 LJE1        0.0000 
     11 N3         35.3530   69.4450   24.6160 N.ar      1 LJE1        0.0000 
     12 C4         43.6350   70.3760   21.9360 C.ar      1 LJE1        0.0000 
     13 N4         40.4330   68.8450   21.2510 N.am      1 LJE1        0.0000 
     14 C5         42.6020   69.6900   21.1680 C.ar      1 LJE1        0.0000 
     15 C6         42.9090   68.6370   20.2310 C.ar      1 LJE1        0.0000 
     16 C7         46.1810   70.5820   22.5390 C.3       1 LJE1        0.0000 
     17 C8         41.2130   70.0020   21.3610 C.2       1 LJE1        0.0000 
     18 C9         32.0790   69.0860   22.6570 C.ar      1 LJE1        0.0000 
     19 C10        29.8180   68.3600   22.1210 C.ar      1 LJE1        0.0000 
     20 C11        31.3600   68.8980   20.3720 C.ar      1 LJE1        0.0000 
     21 C12        32.4010   69.2210   21.2540 C.ar      1 LJE1        0.0000 
     22 C13        33.6010   69.7600   26.1570 C.ar      1 LJE1        0.0000 
     23 C14        32.6700   69.5820   25.0890 C.ar      1 LJE1        0.0000 
     24 C15        33.0840   69.3240   23.7350 C.ar      1 LJE1        0.0000 
     25 C16        34.4950   69.2620   23.5420 C.ar      1 LJE1        0.0000 
     26 C17        35.0080   69.6890   25.9070 C.ar      1 LJE1        0.0000 
     27 C18        36.3840   68.8830   22.0480 C.ar      1 LJE1        0.0000 
     28 C19        37.1740   67.7130   22.4480 C.ar      1 LJE1        0.0000 
     29 C20        38.5630   67.6770   22.1720 C.ar      1 LJE1        0.0000 
     30 C21        39.0960   68.8220   21.5040 C.ar      1 LJE1        0.0000 
     31 C22        38.2930   69.9720   21.1100 C.ar      1 LJE1        0.0000 
     32 C23        36.9230   70.0250   21.3770 C.ar      1 LJE1        0.0000 
     33 C24        36.6190   66.5560   23.1250 C.3       1 LJE1        0.0000 
     34 H          44.4779   67.4878   19.3770 H         1 LJE1        0.0000 
     35 H          46.2640   68.5838   20.6425 H         1 LJE1        0.0000 
     36 H          43.4101   71.1006   22.5668 H         1 LJE1        0.0000 
     37 H          40.9193   67.9574   20.9571 H         1 LJE1        0.0000 
     38 H          42.1421   68.1958   19.7160 H         1 LJE1        0.0000 
     39 H          28.8895   68.0508   22.4088 H         1 LJE1        0.0000 
     40 H          31.5434   68.9790   19.3481 H         1 LJE1        0.0000 
     41 H          33.2904   69.5189   20.9620 H         1 LJE1        0.0000 
     42 H          33.2637   69.9381   27.1002 H         1 LJE1        0.0000 
     43 H          31.6590   69.6398   25.2913 H         1 LJE1        0.0000 
     44 H          35.6571   69.8142   26.6489 H         1 LJE1        0.0000 
     45 H          39.1333   66.9099   22.4236 H         1 LJE1        0.0000 
     46 H          38.7666   70.7440   20.6289 H         1 LJE1        0.0000 
     47 H          36.3514   70.7914   21.1261 H         1 LJE1        0.0000 
     48 H          37.3176   65.8659   23.3142 H         1 LJE1        0.0000 
     49 H          36.2048   66.8018   24.0014 H         1 LJE1        0.0000 
     50 H          35.9084   66.1118   22.5793 H         1 LJE1        0.0000 
@<TRIPOS>BOND
     1    5    1 ar   
     2   15    1 ar   
     3   34    1 1    
     4   16    2 1    
     5   18    3 ar   
     6   19    3 ar   
     7   25    4 1    
     8   27    4 1    
     9    9    5 ar   
    10   35    5 1    
    11   16    6 1    
    12   19    7 ar   
    13   20    7 ar   
    14   17    8 2    
    15   12    9 ar   
    16   16    9 1    
    17   16   10 1    
    18   25   11 ar   
    19   26   11 ar   
    20   14   12 ar   
    21   36   12 1    
    22   17   13 am   
    23   30   13 1    
    24   37   13 1    
    25   15   14 ar   
    26   17   14 1    
    27   38   15 1    
    28   21   18 ar   
    29   24   18 1    
    30   39   19 1    
    31   21   20 ar   
    32   40   20 1    
    33   41   21 1    
    34   23   22 ar   
    35   26   22 ar   
    36   42   22 1    
    37   24   23 ar   
    38   43   23 1    
    39   25   24 ar   
    40   44   26 1    
    41   28   27 ar   
    42   32   27 ar   
    43   29   28 ar   
    44   33   28 1    
    45   30   29 ar   
    46   45   29 1    
    47   31   30 ar   
    48   32   31 ar   
    49   46   31 1    
    50   47   32 1    
    51   48   33 1    
    52   49   33 1    
    53   50   33 1    
@<TRIPOS>SUBSTRUCTURE
     1 LJE1        1 GROUP   
@<TRIPOS>SET

