#    Name: 3B7U_2_CAVITY_N1_6.mol2
#    Modification time : Tue Mar 11 10:52:15 2014

@<TRIPOS>MOLECULE
3B7U_2_CAVITY_N1_6.mol2
  170     0     7     0     0
SMALL
NO_CHARGES


@<TRIPOS>ATOM
      1 NZ         36.9019   10.6222    6.1483 N.2       4 LYS4        0.0000 
      2 O          36.8489   11.4043    4.1771 O.2       2 ALA2        0.0000 
      3 O          35.8316   11.1771    5.2558 O.2       2 ALA2        0.0000 
      4 NZ         34.8143   10.9500    6.3345 N.2       4 LYS4        0.0000 
      5 NZ         33.7970   10.7228    7.4131 N.2       4 LYS4        0.0000 
      6 OD1        35.7786   11.9592    3.2846 O.3       3 ASP3        0.0000 
      7 DU         34.7613   11.7320    4.3633 H         7 CUB7        0.0000 
      8 DU         33.7441   11.5049    5.4420 H         7 CUB7        0.0000 
      9 NZ         32.7268   11.2777    6.5206 N.2       4 LYS4        0.0000 
     10 OD1        33.6911   12.2869    3.4708 O.3       3 ASP3        0.0000 
     11 DU         32.6738   12.0598    4.5495 H         7 CUB7        0.0000 
     12 NZ         31.6565   11.8326    5.6281 N.2       4 LYS4        0.0000 
     13 OD1        32.6208   12.8418    2.5783 O.3       3 ASP3        0.0000 
     14 OG         31.6035   12.6147    3.6569 O.2       1 SER1        0.0000 
     15 OG         30.5862   12.3875    4.7356 O.2       1 SER1        0.0000 
     16 CA         31.5505   13.3968    1.6858 C.3       6 GLY6        0.0000 
     17 OG         30.5332   13.1696    2.7644 O.2       1 SER1        0.0000 
     18 CA         30.4802   13.9517    0.7932 C.3       6 GLY6        0.0000 
     19 OG         29.4629   13.7245    1.8719 O.2       1 SER1        0.0000 
     20 CA         29.4099   14.5066   -0.0993 C.3       6 GLY6        0.0000 
     21 OG         28.3927   14.2794    0.9794 O.2       1 SER1        0.0000 
     22 CA         37.6553    9.4744    4.5312 C.3       6 GLY6        0.0000 
     23 O          36.6380    9.2472    5.6099 O.2       2 ALA2        0.0000 
     24 NZ         35.6207    9.0201    6.6886 N.2       4 LYS4        0.0000 
     25 CA         37.6023   10.2565    2.5600 C.3       6 GLY6        0.0000 
     26 CA         36.5850   10.0293    3.6387 C.3       6 GLY6        0.0000 
     27 DU         35.5677    9.8022    4.7174 H         7 CUB7        0.0000 
     28 CZ         34.5504    9.5750    5.7961 C.ar      5 PHE5        0.0000 
     29 CZ         33.5332    9.3479    6.8747 C.ar      5 PHE5        0.0000 
     30 O          36.5320   10.8114    1.6675 O.2       2 ALA2        0.0000 
     31 DU         35.5147   10.5842    2.7462 H         7 CUB7        0.0000 
     32 DU         34.4974   10.3571    3.8249 H         7 CUB7        0.0000 
     33 CZ         33.4802   10.1299    4.9036 C.ar      5 PHE5        0.0000 
     34 CZ         32.4629    9.9028    5.9822 C.ar      5 PHE5        0.0000 
     35 OD1        34.4445   11.1391    1.8537 O.3       3 ASP3        0.0000 
     36 DU         33.4272   10.9120    2.9324 H         7 CUB7        0.0000 
     37 DU         32.4099   10.6848    4.0110 H         7 CUB7        0.0000 
     38 CZ         31.3926   10.4577    5.0897 C.ar      5 PHE5        0.0000 
     39 CA         33.3742   11.6940    0.9612 C.3       6 GLY6        0.0000 
     40 OD1        32.3569   11.4669    2.0399 O.3       3 ASP3        0.0000 
     41 OG         31.3396   11.2397    3.1185 O.2       1 SER1        0.0000 
     42 OG         30.3223   11.0126    4.1972 O.2       1 SER1        0.0000 
     43 CA         31.2866   12.0218    1.1473 C.3       6 GLY6        0.0000 
     44 OG         30.2693   11.7947    2.2260 O.2       1 SER1        0.0000 
     45 CA         30.2163   12.5767    0.2548 C.3       6 GLY6        0.0000 
     46 OG         29.1991   12.3496    1.3335 O.2       1 SER1        0.0000 
     47 CA         29.1461   13.1316   -0.6377 C.3       6 GLY6        0.0000 
     48 OG         28.1288   12.9045    0.4410 O.2       1 SER1        0.0000 
     49 OG         27.1115   12.6773    1.5197 O.2       1 SER1        0.0000 
     50 N          28.0758   13.6865   -1.5302 N.2       2 ALA2        0.0000 
     51 DU         27.0585   13.4594   -0.4515 H         7 CUB7        0.0000 
     52 CA         37.3914    8.0995    3.9928 C.3       6 GLY6        0.0000 
     53 O          36.3741    7.8723    5.0715 O.2       2 ALA2        0.0000 
     54 CA         37.3384    8.8815    2.0216 C.3       6 GLY6        0.0000 
     55 DU         36.3211    8.6544    3.1003 H         7 CUB7        0.0000 
     56 N          35.3038    8.4272    4.1790 N.2       2 ALA2        0.0000 
     57 CA         36.2681    9.4364    1.1291 C.3       6 GLY6        0.0000 
     58 DU         35.2508    9.2093    2.2078 H         7 CUB7        0.0000 
     59 CZ         34.2336    8.9821    3.2865 C.ar      5 PHE5        0.0000 
     60 CZ         33.2163    8.7550    4.3651 C.ar      5 PHE5        0.0000 
     61 O          35.1978    9.9913    0.2366 O.2       2 ALA2        0.0000 
     62 DU         34.1806    9.7642    1.3153 H         7 CUB7        0.0000 
     63 DU         33.1633    9.5370    2.3940 H         7 CUB7        0.0000 
     64 CZ         32.1460    9.3099    3.4726 C.ar      5 PHE5        0.0000 
     65 CZ         31.1287    9.0827    4.5513 C.ar      5 PHE5        0.0000 
     66 O          34.1276   10.5463   -0.6559 O.2       2 ALA2        0.0000 
     67 CA         33.1103   10.3191    0.4228 C.3       6 GLY6        0.0000 
     68 DU         32.0930   10.0920    1.5014 H         7 CUB7        0.0000 
     69 DU         31.0757    9.8648    2.5801 H         7 CUB7        0.0000 
     70 OG         30.0584    9.6377    3.6588 O.2       1 SER1        0.0000 
     71 CA         32.0400   10.8740   -0.4697 C.3       6 GLY6        0.0000 
     72 DU         31.0227   10.6469    0.6089 H         7 CUB7        0.0000 
     73 OG         30.0054   10.4197    1.6876 O.2       1 SER1        0.0000 
     74 CA         29.9524   11.2018   -0.2836 C.3       6 GLY6        0.0000 
     75 OG         28.9352   10.9746    0.7951 O.2       1 SER1        0.0000 
     76 CA         28.8822   11.7567   -1.1761 C.3       6 GLY6        0.0000 
     77 DU         27.8649   11.5295   -0.0974 H         7 CUB7        0.0000 
     78 OG         26.8476   11.3024    0.9812 O.2       1 SER1        0.0000 
     79 CA         27.8119   12.3116   -2.0686 C.3       6 GLY6        0.0000 
     80 DU         26.7946   12.0845   -0.9899 H         7 CUB7        0.0000 
     81 O          37.0745    7.5066    1.4832 O.2       2 ALA2        0.0000 
     82 NZ         36.0572    7.2794    2.5619 N.2       4 LYS4        0.0000 
     83 N          35.0399    7.0523    3.6406 N.2       2 ALA2        0.0000 
     84 O          36.0042    8.0615    0.5907 O.2       2 ALA2        0.0000 
     85 DU         34.9870    7.8343    1.6694 H         7 CUB7        0.0000 
     86 CZ         33.9697    7.6072    2.7481 C.ar      5 PHE5        0.0000 
     87 O          34.9340    8.6164   -0.3018 O.2       2 ALA2        0.0000 
     88 OG         33.9167    8.3892    0.7769 O.2       1 SER1        0.0000 
     89 OG         32.8994    8.1621    1.8555 O.2       1 SER1        0.0000 
     90 CZ         31.8821    7.9349    2.9342 C.ar      5 PHE5        0.0000 
     91 O          33.8637    9.1713   -1.1943 O.2       2 ALA2        0.0000 
     92 OG         32.8464    8.9442   -0.1156 O.2       1 SER1        0.0000 
     93 OG         31.8291    8.7170    0.9630 O.2       1 SER1        0.0000 
     94 OG         30.8118    8.4899    2.0417 O.2       1 SER1        0.0000 
     95 CA         32.7934    9.7262   -2.0868 C.3       6 GLY6        0.0000 
     96 OG         31.7761    9.4991   -1.0082 O.2       1 SER1        0.0000 
     97 OG         30.7588    9.2719    0.0705 O.2       1 SER1        0.0000 
     98 CZ         29.7416    9.0448    1.1492 C.ar      5 PHE5        0.0000 
     99 O          30.7058   10.0540   -1.9007 O.2       2 ALA2        0.0000 
    100 CZ         29.6886    9.8268   -0.8220 C.ar      5 PHE5        0.0000 
    101 CZ         28.6713    9.5997    0.2567 C.ar      5 PHE5        0.0000 
    102 O          27.6540    9.3725    1.3353 O.2       2 ALA2        0.0000 
    103 O          29.6356   10.6089   -2.7932 O.2       2 ALA2        0.0000 
    104 CA         28.6183   10.3817   -1.7145 C.3       6 GLY6        0.0000 
    105 CZ         27.6010   10.1546   -0.6358 C.ar      5 PHE5        0.0000 
    106 CA         26.5837    9.9274    0.4428 C.3       6 GLY6        0.0000 
    107 O          28.5653   11.1638   -3.6857 O.2       2 ALA2        0.0000 
    108 DU         27.5480   10.9367   -2.6070 H         7 CUB7        0.0000 
    109 DU         26.5307   10.7095   -1.5283 H         7 CUB7        0.0000 
    110 NZ         35.7933    5.9045    2.0235 N.2       4 LYS4        0.0000 
    111 OD1        34.7761    5.6773    3.1022 O.3       3 ASP3        0.0000 
    112 O          35.7403    6.6865    0.0523 O.2       2 ALA2        0.0000 
    113 N          34.7231    6.4594    1.1310 N.2       2 ALA2        0.0000 
    114 OG         33.7058    6.2322    2.2096 O.2       1 SER1        0.0000 
    115 O          34.6701    7.2415   -0.8402 O.2       2 ALA2        0.0000 
    116 OG         33.6528    7.0143    0.2385 O.2       1 SER1        0.0000 
    117 O          33.5998    7.7964   -1.7327 O.2       2 ALA2        0.0000 
    118 OG         32.5825    7.5692   -0.6541 O.2       1 SER1        0.0000 
    119 CZ         32.5295    8.3513   -2.6252 C.ar      5 PHE5        0.0000 
    120 OG         31.5122    8.1241   -1.5466 O.2       1 SER1        0.0000 
    121 N          31.4592    8.9062   -3.5178 N.2       2 ALA2        0.0000 
    122 CZ         30.4420    8.6790   -2.4391 C.ar      5 PHE5        0.0000 
    123 CA         29.3717    9.2340   -3.3316 C.3       6 GLY6        0.0000 
    124 CZ         28.3544    9.0068   -2.2529 C.ar      5 PHE5        0.0000 
    125 CZ         27.3371    8.7797   -1.1742 C.ar      5 PHE5        0.0000 
    126 CA         28.3014    9.7889   -4.2241 C.3       6 GLY6        0.0000 
    127 O          27.2841    9.5617   -3.1454 O.2       2 ALA2        0.0000 
    128 N          26.2668    9.3346   -2.0668 N.2       2 ALA2        0.0000 
    129 N          35.5295    4.5295    1.4851 N.2       2 ALA2        0.0000 
    130 OD1        34.5122    4.3024    2.5637 O.3       3 ASP3        0.0000 
    131 N          34.4592    5.0844    0.5926 N.2       2 ALA2        0.0000 
    132 CZ         33.3889    5.6394   -0.3000 C.ar      5 PHE5        0.0000 
    133 CA         29.1078    7.8590   -3.8700 C.3       6 GLY6        0.0000 
    134 O          27.0202    8.1868   -3.6838 O.2       2 ALA2        0.0000 
    135 N          35.2656    3.1546    0.9467 N.2       2 ALA2        0.0000 
    136 OD1        34.2483    2.9274    2.0253 O.3       3 ASP3        0.0000 
    137 N          34.1953    3.7095    0.0541 N.2       2 ALA2        0.0000 
    138 OG         33.1780    3.4823    1.1328 O.2       1 SER1        0.0000 
    139 O          37.6936   14.7470    7.7636 O.2       2 ALA2        0.0000 
    140 O          36.6763   14.5199    8.8422 O.2       2 ALA2        0.0000 
    141 N          38.6579   15.7562    4.7137 N.2       2 ALA2        0.0000 
    142 O          37.6406   15.5291    5.7924 O.2       2 ALA2        0.0000 
    143 O          36.6233   15.3019    6.8710 O.2       2 ALA2        0.0000 
    144 O          35.6060   15.0748    7.9497 O.2       2 ALA2        0.0000 
    145 NZ         37.5876   16.3112    3.8212 N.2       4 LYS4        0.0000 
    146 DU         36.5703   16.0840    4.8999 H         7 CUB7        0.0000 
    147 DU         35.5530   15.8569    5.9785 H         7 CUB7        0.0000 
    148 DU         34.5357   15.6297    7.0572 H         7 CUB7        0.0000 
    149 OD1        35.5000   16.6389    4.0073 O.3       3 ASP3        0.0000 
    150 DU         34.4827   16.4118    5.0860 H         7 CUB7        0.0000 
    151 O          36.3594   13.9270    6.3326 O.2       2 ALA2        0.0000 
    152 O          35.3421   13.6998    7.4113 O.2       2 ALA2        0.0000 
    153 NZ         37.3237   14.9362    3.2828 N.2       4 LYS4        0.0000 
    154 OD1        36.3064   14.7091    4.3614 O.3       3 ASP3        0.0000 
    155 DU         35.2891   14.4819    5.4401 H         7 CUB7        0.0000 
    156 O          34.2718   14.2548    6.5188 O.2       2 ALA2        0.0000 
    157 O          33.2545   14.0276    7.5975 O.2       2 ALA2        0.0000 
    158 OD1        34.2188   15.0368    4.5476 O.3       3 ASP3        0.0000 
    159 CA         33.2016   14.8097    5.6263 C.3       6 GLY6        0.0000 
    160 OD1        33.1486   15.5917    3.6551 O.3       3 ASP3        0.0000 
    161 O          36.0955   12.5521    5.7942 O.2       2 ALA2        0.0000 
    162 O          35.0782   12.3249    6.8729 O.2       2 ALA2        0.0000 
    163 OD1        36.0425   13.3341    3.8230 O.3       3 ASP3        0.0000 
    164 OD1        35.0252   13.1070    4.9017 O.3       3 ASP3        0.0000 
    165 NZ         34.0079   12.8798    5.9804 N.2       4 LYS4        0.0000 
    166 OD1        33.9549   13.6619    4.0092 O.3       3 ASP3        0.0000 
    167 DU         32.9377   13.4347    5.0879 H         7 CUB7        0.0000 
    168 NZ         31.9204   13.2076    6.1665 N.2       4 LYS4        0.0000 
    169 NZ         31.8674   13.9896    4.1954 N.2       4 LYS4        0.0000 
    170 CA         30.7441   15.3266    1.3317 C.3       6 GLY6        0.0000 
@<TRIPOS>BOND
@<TRIPOS>SUBSTRUCTURE
     1 SER1       14 GROUP   
     2 ALA2        2 GROUP   
     3 ASP3        6 GROUP   
     4 LYS4        1 GROUP   
     5 PHE5       28 GROUP   
     6 GLY6       16 GROUP   
     7 CUB7        7 GROUP   
@<TRIPOS>SET

