#    Name: 3b7u_KEL_2_INTS_M
#    Modification time : Mon Mar 24 19:07:24 2014

@<TRIPOS>MOLECULE
3b7u_KEL_2_INTS_M
   61     0    15     0     0
SMALL
NO_CHARGES


@<TRIPOS>ATOM
      1 Zn         34.6300    3.7800    4.1640 Zn        4 ZIC7        0.0000 
      2 Zn         34.2250    4.1510    3.2940 Zn       14 ZIL7        0.0000 
      3 Zn         35.0350    3.4090    5.0340 Zn        9 ZIP7        0.0000 
      4 N          32.9570    4.5705    3.2280 N.am      2 SEC2        0.0000 
      5 N          34.2250    4.1510    3.2940 N.am     12 SEL2        0.0000 
      6 N          31.6890    4.9900    3.1620 N.am      7 SEP2        0.0000 
      7 O          36.6870    3.9750    0.8675 O.2       1 ALC1        0.0000 
      8 O          36.1930    3.7320    2.3050 O.2      11 ALL1        0.0000 
      9 O          37.1810    4.2180   -0.5700 O.2       6 ALP1        0.0000 
     10 Zn         35.8000    3.2550    4.1620 Zn        4 ZIC7        0.0000 
     11 Zn         36.5650    3.1010    3.2900 Zn       14 ZIL7        0.0000 
     12 N          35.3260    2.2135    2.6700 N.am      2 SEC2        0.0000 
     13 N          36.5650    3.1010    3.2900 N.am     12 SEL2        0.0000 
     14 N          34.0870    1.3260    2.0500 N.am      7 SEP2        0.0000 
     15 O          37.8665    2.9830    2.9895 O.2       1 ALC1        0.0000 
     16 O          36.5650    3.1010    3.2900 O.2      11 ALL1        0.0000 
     17 O          39.1680    2.8650    2.6890 O.2       6 ALP1        0.0000 
     18 CA         33.5775    5.2520   -0.7890 C.3       5 GLC5        0.0000 
     19 CA         34.6280    5.1670    1.1870 C.3      15 GLL5        0.0000 
     20 CA         32.5270    5.3370   -2.7650 C.3      10 GLP5        0.0000 
     21 CA         33.4570    6.4075    3.4255 C.3       5 GLC5        0.0000 
     22 CA         34.7120    6.6060    1.7070 C.3      15 GLL5        0.0000 
     23 CA         32.2020    6.2090    5.1440 C.3      10 GLP5        0.0000 
     24 N          35.6510    7.9045   -1.4790 N.am      2 SEC2        0.0000 
     25 N          34.9820    7.5130   -0.4490 N.am     12 SEL2        0.0000 
     26 N          36.3200    8.2960   -2.5090 N.am      7 SEP2        0.0000 
     27 N          36.6115    7.0780   -0.8380 N.am      2 SEC2        0.0000 
     28 N          38.2410    6.6430   -1.2270 N.am      7 SEP2        0.0000 
     29 CA         32.6445    7.2095   -1.5465 C.3       5 GLC5        0.0000 
     30 CA         32.7620    9.0820   -0.3280 C.3      15 GLL5        0.0000 
     31 CA         30.2050    8.1685   -0.2150 C.3       5 GLC5        0.0000 
     32 CA         31.4610    9.7930    0.0080 C.3      15 GLL5        0.0000 
     33 CA         28.9490    6.5440   -0.4380 C.3      10 GLP5        0.0000 
     34 CA         31.8105   11.3775   -1.4360 C.3       5 GLC5        0.0000 
     35 CA         32.1600   12.9620   -2.8800 C.3      10 GLP5        0.0000 
     36 NZ         35.0940   11.0160   -2.4705 N.4       3 LYC4        0.0000 
     37 NZ         34.0600   10.2010   -1.9530 N.4      13 LYL4        0.0000 
     38 NZ         36.9340   12.4570   -2.1190 N.4       8 LYP4        0.0000 
     39 N          35.1900    9.2485   -2.2310 N.am      2 SEC2        0.0000 
     40 N          34.0600   10.2010   -1.9530 N.am     12 SEL2        0.0000 
     41 N          35.0940   11.0160   -2.4705 N.am      2 SEC2        0.0000 
     42 N          36.1280   11.8310   -2.9880 N.am      7 SEP2        0.0000 
     43 NZ         35.6360   11.4170   -0.3740 N.4       3 LYC4        0.0000 
     44 NZ         34.5630   10.5940    0.0960 N.4      13 LYL4        0.0000 
     45 N          35.6360   11.4170   -0.3740 N.am      2 SEC2        0.0000 
     46 N          34.5630   10.5940    0.0960 N.am     12 SEL2        0.0000 
     47 N          36.7090   12.2400   -0.8440 N.am      7 SEP2        0.0000 
     48 CA         38.3400    8.6075    2.0955 C.3       5 GLC5        0.0000 
     49 CA         36.2490    8.3270    2.8280 C.3      15 GLL5        0.0000 
     50 CA         40.4310    8.8880    1.3630 C.3      10 GLP5        0.0000 
     51 CA         37.0230    9.1935    0.0370 C.3       5 GLC5        0.0000 
     52 CA         36.4720    9.5150    2.0890 C.3      15 GLL5        0.0000 
     53 CA         37.5740    8.8720   -2.0150 C.3      10 GLP5        0.0000 
     54 CA         36.7840    6.4740    3.9907 C.3       5 GLC5        0.0000 
     55 CA         37.3660    5.3090    5.4870 C.3      10 GLP5        0.0000 
     56 CA         37.0125    7.6507    5.4227 C.3       5 GLC5        0.0000 
     57 CA         36.1310    8.4110    4.2070 C.3      15 GLL5        0.0000 
     58 CA         37.8480    6.2620    6.3270 C.3      10 GLP5        0.0000 
     59 CA         38.1770   10.7058    2.4567 C.3       5 GLC5        0.0000 
     60 CA         36.4050   10.8440    4.1220 C.3      15 GLL5        0.0000 
     61 CA         39.8800   11.2520    2.1570 C.3      10 GLP5        0.0000 
@<TRIPOS>BOND
@<TRIPOS>SUBSTRUCTURE
     1 ALC1        7 GROUP        1 X    ALC  0     ROOT ALC X 1
     2 SEC2        4 GROUP        1 X    SEC  0     **** SEC X 2
     3 LYC4       36 GROUP        1 X    LYC  0     **** LYC X 4
     4 ZIC7        1 GROUP        1 X    ZIC  0     **** ZIC X 5
     5 GLC5       18 GROUP        1 X    GLC  0     **** GLC X 6
     6 ALP1        9 GROUP        1 Y    ALP  0     ROOT ALP Y 8
     7 SEP2        6 GROUP        1 Y    SEP  0     **** SEP Y 9
     8 LYP4       38 GROUP        1 Y    LYP  0     **** LYP Y 11
     9 ZIP7        3 GROUP        1 Y    ZIP  0     **** ZIP Y 12
    10 GLP5       20 GROUP        1 Y    GLP  0     **** GLP Y 13
    11 ALL1        8 GROUP        1 Z    ALL  0     ROOT ALL Z 15
    12 SEL2        5 GROUP        1 Z    SEL  0     **** SEL Z 16
    13 LYL4       37 GROUP        1 Z    LYL  0     **** LYL Z 18
    14 ZIL7        2 GROUP        1 Z    ZIL  0     **** ZIL Z 19
    15 GLL5       19 GROUP        1 Z    GLL  0     **** GLL Z 20
@<TRIPOS>SET

