#    Name: 3b7u_KEL_2_ligand
#    Modification time : Mon Mar 24 19:07:24 2014

@<TRIPOS>MOLECULE
3b7u_KEL_2_ligand
   38    38     1     0     0
SMALL
NO_CHARGES


@<TRIPOS>ATOM
      1 O21        34.2250    4.1510    3.2940 O.2       1 KEL707      0.0000 
      2 C18        34.9880    4.2810    2.3510 C.2       1 KEL707      0.0000 
      3 N19        36.1930    3.7320    2.3050 N.am      1 KEL707      0.0000 
      4 O20        36.5650    3.1010    3.2900 O.3       1 KEL707      0.0000 
      5 C17        34.6280    5.1670    1.1870 C.3       1 KEL707      0.0000 
      6 C8         34.7120    6.6060    1.7070 C.3       1 KEL707      0.0000 
      7 C9         34.3180    7.5110    0.5820 C.2       1 KEL707      0.0000 
      8 O16        34.9820    7.5130   -0.4490 O.2       1 KEL707      0.0000 
      9 N10        33.2310    8.2680    0.7570 N.am      1 KEL707      0.0000 
     10 C11        32.7620    9.0820   -0.3280 C.3       1 KEL707      0.0000 
     11 C15        31.4610    9.7930    0.0080 C.3       1 KEL707      0.0000 
     12 C12        33.8560   10.0410   -0.7530 C.2       1 KEL707      0.0000 
     13 O14        34.0600   10.2010   -1.9530 O.co2     1 KEL707      0.0000 
     14 O13        34.5630   10.5940    0.0960 O.co2     1 KEL707      0.0000 
     15 C16        36.1550    6.9510    2.1610 C.3       1 KEL707      0.0000 
     16 C23        36.2490    8.3270    2.8280 C.ar      1 KEL707      0.0000 
     17 C24        36.1310    8.4110    4.2070 C.ar      1 KEL707      0.0000 
     18 C19        36.2230    9.6680    4.8300 C.ar      1 KEL707      0.0000 
     19 C20        36.4050   10.8440    4.1220 C.ar      1 KEL707      0.0000 
     20 C21        36.5470   10.7640    2.7260 C.ar      1 KEL707      0.0000 
     21 C22        36.4720    9.5150    2.0890 C.ar      1 KEL707      0.0000 
     22 H          36.7713    3.8594    1.4367 H         1 KEL707      0.0000 
     23 H          33.6266    4.9667    0.8639 H         1 KEL707      0.0000 
     24 H          35.3327    5.0382    0.3906 H         1 KEL707      0.0000 
     25 H          34.0467    6.7269    2.5236 H         1 KEL707      0.0000 
     26 H          32.7069    8.2985    1.6379 H         1 KEL707      0.0000 
     27 H          32.5582    8.4276   -1.2039 H         1 KEL707      0.0000 
     28 H          36.8107    6.9266    1.2864 H         1 KEL707      0.0000 
     29 H          36.4921    6.1840    2.8634 H         1 KEL707      0.0000 
     30 H          35.9788    7.5737    4.7720 H         1 KEL707      0.0000 
     31 H          36.1498    9.7072    5.8731 H         1 KEL707      0.0000 
     32 H          36.4364   11.7437    4.5893 H         1 KEL707      0.0000 
     33 H          36.7041   11.6115    2.1776 H         1 KEL707      0.0000 
     34 H          36.5803    9.4556    1.0664 H         1 KEL707      0.0000 
     35 H          31.5598   10.3925    0.8023 H         1 KEL707      0.0000 
     36 H          31.1418   10.3614   -0.7503 H         1 KEL707      0.0000 
     37 H          30.7279    9.1462    0.2183 H         1 KEL707      0.0000 
     38 H          37.5505    2.9854    3.1661 H         1 KEL707      0.0000 
@<TRIPOS>BOND
     1    2    1 2    
     2    3    2 am   
     3    5    2 1    
     4    4    3 1    
     5   22    3 1    
     6   38    4 1    
     7    6    5 1    
     8   23    5 1    
     9   24    5 1    
    10    7    6 1    
    11   15    6 1    
    12   25    6 1    
    13    8    7 2    
    14    9    7 am   
    15   10    9 1    
    16   26    9 1    
    17   11   10 1    
    18   12   10 1    
    19   27   10 1    
    20   35   11 1    
    21   36   11 1    
    22   37   11 1    
    23   13   12 ar   
    24   14   12 ar   
    25   16   15 1    
    26   28   15 1    
    27   29   15 1    
    28   17   16 ar   
    29   21   16 ar   
    30   18   17 ar   
    31   30   17 1    
    32   19   18 ar   
    33   31   18 1    
    34   20   19 ar   
    35   32   19 1    
    36   21   20 ar   
    37   33   20 1    
    38   34   21 1    
@<TRIPOS>SUBSTRUCTURE
     1 KEL707      1 GROUP   
@<TRIPOS>SET

