#    Name: 2O28_1_CAVITY_N1_6.mol2
#    Modification time : Tue Mar 11 01:29:30 2014

@<TRIPOS>MOLECULE
2O28_1_CAVITY_N1_6.mol2
   95     0     6     0     0
SMALL
NO_CHARGES


@<TRIPOS>ATOM
      1 DU        -10.4126   30.6496   20.1191 H         6 CUB7        0.0000 
      2 O          -7.2729   31.1806   21.1729 O.2       2 ALA2        0.0000 
      3 O          -8.0245   31.0815   19.1916 O.2       2 ALA2        0.0000 
      4 CA         -8.3394   30.3839   20.4816 C.3       5 GLY6        0.0000 
      5 DU         -8.6544   29.6864   21.7717 H         6 CUB7        0.0000 
      6 CA         -9.0910   30.2848   18.5004 C.3       5 GLY6        0.0000 
      7 CA         -9.4060   29.5873   19.7904 C.3       5 GLY6        0.0000 
      8 DU         -9.7210   28.8897   21.0804 H         6 CUB7        0.0000 
      9 CA         -4.4482   31.0140   23.5166 C.3       5 GLY6        0.0000 
     10 O          -4.8848   31.6125   20.2454 O.2       2 ALA2        0.0000 
     11 O          -5.1998   30.9149   21.5354 O.2       2 ALA2        0.0000 
     12 DU         -5.5147   30.2173   22.8254 H         6 CUB7        0.0000 
     13 O          -5.9513   30.8158   19.5541 O.2       2 ALA2        0.0000 
     14 O          -6.2663   30.1183   20.8442 O.2       2 ALA2        0.0000 
     15 DU         -6.5813   29.4207   22.1342 H         6 CUB7        0.0000 
     16 O          -7.0178   30.0192   18.8629 O.2       2 ALA2        0.0000 
     17 DU         -7.3328   29.3216   20.1529 H         6 CUB7        0.0000 
     18 CZ         -7.6478   28.6240   21.4430 C.ar      4 PHE5        0.0000 
     19 CZ         -7.9628   27.9264   22.7330 C.ar      4 PHE5        0.0000 
     20 CA         -8.0844   29.2225   18.1717 C.3       5 GLY6        0.0000 
     21 CA         -8.3993   28.5249   19.4617 C.3       5 GLY6        0.0000 
     22 CZ         -8.7143   27.8273   20.7517 C.ar      4 PHE5        0.0000 
     23 CA         -3.1266   30.6492   21.8979 C.3       5 GLY6        0.0000 
     24 CA         -3.4416   29.9517   23.1879 C.3       5 GLY6        0.0000 
     25 DU         -3.7566   29.2541   24.4780 H         6 CUB7        0.0000 
     26 CA         -3.8781   30.5501   19.9167 C.3       5 GLY6        0.0000 
     27 CA         -4.1931   29.8526   21.2067 C.3       5 GLY6        0.0000 
     28 DU         -4.5081   29.1550   22.4967 H         6 CUB7        0.0000 
     29 DU         -4.8231   28.4574   23.7867 H         6 CUB7        0.0000 
     30 O          -4.9447   29.7535   19.2254 O.2       2 ALA2        0.0000 
     31 CA         -5.2597   29.0559   20.5155 C.3       5 GLY6        0.0000 
     32 CZ         -5.5746   28.3583   21.8055 C.ar      4 PHE5        0.0000 
     33 CZ         -5.8896   27.6607   23.0955 C.ar      4 PHE5        0.0000 
     34 CZ         -6.2046   26.9631   24.3855 C.ar      4 PHE5        0.0000 
     35 CZ         -6.3262   28.2592   19.8242 C.ar      4 PHE5        0.0000 
     36 OD1        -0.6169   29.7851   25.5317 O.3       3 ASP3        0.0000 
     37 O          -1.0534   30.3836   22.2605 O.2       2 ALA2        0.0000 
     38 O          -1.3684   29.6860   23.5505 O.2       2 ALA2        0.0000 
     39 O          -1.6834   28.9884   24.8405 O.2       2 ALA2        0.0000 
     40 CA         -2.1200   29.5869   21.5692 C.3       5 GLY6        0.0000 
     41 DU         -2.4350   28.8893   22.8592 H         6 CUB7        0.0000 
     42 DU         -2.7499   28.1917   24.1493 H         6 CUB7        0.0000 
     43 DU         -3.0649   27.4941   25.4393 H         6 CUB7        0.0000 
     44 CA         -3.1865   28.7902   20.8780 C.3       5 GLY6        0.0000 
     45 DU         -3.5015   28.0926   22.1680 H         6 CUB7        0.0000 
     46 DU         -3.8165   27.3950   23.4580 H         6 CUB7        0.0000 
     47 DU         -4.1315   26.6974   24.7480 H         6 CUB7        0.0000 
     48 CA         -4.2530   27.9935   20.1868 C.3       5 GLY6        0.0000 
     49 CZ         -4.5680   27.2959   21.4768 C.ar      4 PHE5        0.0000 
     50 CZ         -4.8830   26.5983   22.7668 C.ar      4 PHE5        0.0000 
     51 CZ         -5.1980   25.9007   24.0568 C.ar      4 PHE5        0.0000 
     52 CA         -5.5130   25.2031   25.3468 C.3       5 GLY6        0.0000 
     53 O           0.7047   29.4203   23.9130 O.2       2 ALA2        0.0000 
     54 O           0.3897   28.7227   25.2030 O.2       2 ALA2        0.0000 
     55 O          -0.3618   28.6236   23.2218 O.2       2 ALA2        0.0000 
     56 DU         -0.6768   27.9260   24.5118 H         6 CUB7        0.0000 
     57 O          -0.9918   27.2284   25.8018 O.2       2 ALA2        0.0000 
     58 O          -1.1133   28.5245   21.2405 O.2       2 ALA2        0.0000 
     59 DU         -1.4283   27.8269   22.5305 H         6 CUB7        0.0000 
     60 DU         -1.7433   27.1293   23.8206 H         6 CUB7        0.0000 
     61 O          -2.0583   26.4317   25.1106 O.2       2 ALA2        0.0000 
     62 CA         -2.1799   27.7278   20.5493 C.3       5 GLY6        0.0000 
     63 DU         -2.4949   27.0302   21.8393 H         6 CUB7        0.0000 
     64 DU         -2.8098   26.3326   23.1293 H         6 CUB7        0.0000 
     65 O          -3.1248   25.6350   24.4193 O.2       2 ALA2        0.0000 
     66 CA         -3.2464   26.9311   19.8581 C.3       5 GLY6        0.0000 
     67 CZ         -3.5614   26.2335   21.1481 C.ar      4 PHE5        0.0000 
     68 CZ         -3.8764   25.5359   22.4381 C.ar      4 PHE5        0.0000 
     69 CZ         -4.1914   24.8383   23.7281 C.ar      4 PHE5        0.0000 
     70 CA         -4.5063   24.1407   25.0181 C.3       5 GLY6        0.0000 
     71 N           2.4629   28.4570   25.5656 N.2       2 ALA2        0.0000 
     72 CA          1.7114   28.3579   23.5843 C.3       5 GLY6        0.0000 
     73 N           1.3964   27.6603   24.8743 N.2       2 ALA2        0.0000 
     74 DU          1.0814   26.9627   26.1643 H         6 CUB7        0.0000 
     75 O           0.7664   26.2651   27.4544 O.2       2 ALA2        0.0000 
     76 N           0.6448   27.5612   22.8931 N.2       2 ALA2        0.0000 
     77 N           0.3298   26.8636   24.1831 N.2       2 ALA2        0.0000 
     78 O           0.0149   26.1660   25.4731 O.2       2 ALA2        0.0000 
     79 CA         -0.1067   27.4621   20.9118 C.3       5 GLY6        0.0000 
     80 N          -0.4217   26.7645   22.2018 N.2       2 ALA2        0.0000 
     81 N          -0.7367   26.0669   23.4919 N.2       2 ALA2        0.0000 
     82 O          -1.0517   25.3693   24.7819 O.2       2 ALA2        0.0000 
     83 CA         -1.1732   26.6654   20.2206 C.3       5 GLY6        0.0000 
     84 CA         -1.4882   25.9678   21.5106 C.3       5 GLY6        0.0000 
     85 OG         -1.8032   25.2702   22.8006 O.2       1 SER1        0.0000 
     86 O          -2.1182   24.5726   24.0906 O.2       2 ALA2        0.0000 
     87 CZ         -2.5548   25.1711   20.8194 C.ar      4 PHE5        0.0000 
     88 CZ         -3.1847   23.7760   23.3994 C.ar      4 PHE5        0.0000 
     89 CA          3.1545   26.6970   26.5269 C.3       5 GLY6        0.0000 
     90 CA          2.4030   26.5979   24.5456 C.3       5 GLY6        0.0000 
     91 CA          2.0880   25.9003   25.8356 C.3       5 GLY6        0.0000 
     92 O           1.0215   25.1036   25.1444 O.2       2 ALA2        0.0000 
     93 N           0.2699   25.0045   23.1631 N.2       2 ALA2        0.0000 
     94 O          -0.0450   24.3069   24.4532 O.2       2 ALA2        0.0000 
     95 OG         -0.7966   24.2079   22.4719 O.2       1 SER1        0.0000 
@<TRIPOS>BOND
@<TRIPOS>SUBSTRUCTURE
     1 SER1       85 GROUP   
     2 ALA2        2 GROUP   
     3 ASP3       36 GROUP   
     4 PHE5       18 GROUP   
     5 GLY6        4 GROUP   
     6 CUB7        1 GROUP   
@<TRIPOS>SET

