#    Name: 2o28_COA_1_INTS_M
#    Modification time : Tue Mar 25 21:53:24 2014

@<TRIPOS>MOLECULE
2o28_COA_1_INTS_M
   81     0    12     0     0
SMALL
NO_CHARGES


@<TRIPOS>ATOM
      1 CA         -9.4400   22.4565   26.3885 C.3       4 GLC5        0.0000 
      2 CA         -8.8980   24.3280   26.5280 C.3      12 GLL5        0.0000 
      3 CA         -9.9820   20.5850   26.2490 C.3       8 GLP5        0.0000 
      4 CA         -8.4815   23.3495   25.0190 C.3       4 GLC5        0.0000 
      5 CA         -8.0650   22.3710   23.5100 C.3       8 GLP5        0.0000 
      6 CA         -5.8365   23.8080   27.2575 C.3       4 GLC5        0.0000 
      7 CA         -6.8680   25.5660   26.7320 C.3      12 GLL5        0.0000 
      8 CA         -4.8050   22.0500   27.7830 C.3       8 GLP5        0.0000 
      9 O          -5.8935   24.6475   28.6140 O.2       1 ALC1        0.0000 
     10 O          -5.7250   25.7510   27.3620 O.2       9 ALL1        0.0000 
     11 O          -6.0620   23.5440   29.8660 O.2       5 ALP1        0.0000 
     12 CA         -8.4130   26.0205   22.5220 C.3       4 GLC5        0.0000 
     13 CA         -9.8610   27.2790   23.3310 C.3      12 GLL5        0.0000 
     14 CA         -6.9650   24.7620   21.7130 C.3       8 GLP5        0.0000 
     15 CA        -10.7550   25.8440   22.6820 C.3       4 GLC5        0.0000 
     16 CA        -11.6490   24.4090   22.0330 C.3       8 GLP5        0.0000 
     17 N         -12.7690   26.2240   22.3145 N.am      2 SEC2        0.0000 
     18 N         -12.4380   27.9070   22.1490 N.am     10 SEL2        0.0000 
     19 N         -13.1000   24.5410   22.4800 N.am      6 SEP2        0.0000 
     20 NZ        -13.8940   25.8375   21.8600 N.4       3 LYC4        0.0000 
     21 NZ        -14.6880   27.1340   21.2400 N.4      11 LYL4        0.0000 
     22 NZ        -13.1000   24.5410   22.4800 N.4       7 LYP4        0.0000 
     23 N         -13.8940   25.8375   21.8600 N.am      2 SEC2        0.0000 
     24 N         -14.6880   27.1340   21.2400 N.am     10 SEL2        0.0000 
     25 NZ        -12.5550   28.0215   18.4535 N.4       3 LYC4        0.0000 
     26 NZ        -12.9240   27.6850   19.6330 N.4      11 LYL4        0.0000 
     27 NZ        -12.1860   28.3580   17.2740 N.4       7 LYP4        0.0000 
     28 N         -12.5550   28.0215   18.4535 N.am      2 SEC2        0.0000 
     29 N         -12.9240   27.6850   19.6330 N.am     10 SEL2        0.0000 
     30 N         -12.1860   28.3580   17.2740 N.am      6 SEP2        0.0000 
     31 CA        -10.3725   27.3330   19.3720 C.3       4 GLC5        0.0000 
     32 CA        -10.2720   28.1790   21.2360 C.3      12 GLL5        0.0000 
     33 CA        -10.4730   26.4870   17.5080 C.3       8 GLP5        0.0000 
     34 CA        -10.1010   28.6220   18.8390 C.3       4 GLC5        0.0000 
     35 CA         -9.4370   29.3250   20.6850 C.3      12 GLL5        0.0000 
     36 CA        -10.7650   27.9190   16.9930 C.3       8 GLP5        0.0000 
     37 N          -7.7885   31.6150   17.9235 N.am      2 SEC2        0.0000 
     38 N          -7.7740   31.1270   19.2520 N.am     10 SEL2        0.0000 
     39 N          -7.8030   32.1030   16.5950 N.am      6 SEP2        0.0000 
     40 N          -6.3130   27.9115   17.4225 N.am      2 SEC2        0.0000 
     41 N          -6.6220   29.1120   18.1220 N.am     10 SEL2        0.0000 
     42 N          -6.0040   26.7110   16.7230 N.am      6 SEP2        0.0000 
     43 N          -5.6505   32.6305   20.4245 N.am      2 SEC2        0.0000 
     44 N          -4.6860   31.4070   20.1970 N.am     10 SEL2        0.0000 
     45 N          -6.6150   33.8540   20.6520 N.am      6 SEP2        0.0000 
     46 CA         -5.3280   26.6960   21.2845 C.3       4 GLC5        0.0000 
     47 CA         -4.1570   28.1000   22.0570 C.3      12 GLL5        0.0000 
     48 CA         -6.4990   25.2920   20.5120 C.3       8 GLP5        0.0000 
     49 CA         -2.6320   31.1505   23.8830 C.3       4 GLC5        0.0000 
     50 CA         -3.0460   29.3270   24.0670 C.3      12 GLL5        0.0000 
     51 CA         -2.2180   32.9740   23.6990 C.3       8 GLP5        0.0000 
     52 CA         -1.5280   29.2995   20.3975 C.3       4 GLC5        0.0000 
     53 CA         -1.7850   28.4290   22.2780 C.3      12 GLL5        0.0000 
     54 CA         -1.2710   30.1700   18.5170 C.3       8 GLP5        0.0000 
     55 N           0.8150   29.7455   21.4115 N.am      2 SEC2        0.0000 
     56 N           0.4850   29.3870   22.6090 N.am     10 SEL2        0.0000 
     57 N           1.1450   30.1040   20.2140 N.am      6 SEP2        0.0000 
     58 CA          3.1475   26.6900   24.8760 C.3       4 GLC5        0.0000 
     59 CA          1.6010   27.8490   24.9370 C.3      12 GLL5        0.0000 
     60 CA          4.6940   25.5310   24.8150 C.3       8 GLP5        0.0000 
     61 CA          2.7055   28.8525   23.5765 C.3       4 GLC5        0.0000 
     62 CA          3.8100   29.8560   22.2160 C.3       8 GLP5        0.0000 
     63 N          -0.3910   24.8145   26.6070 N.am      2 SEC2        0.0000 
     64 N           0.6630   26.0930   26.2580 N.am     10 SEL2        0.0000 
     65 N          -1.4450   23.5360   26.9560 N.am      6 SEP2        0.0000 
     66 O           1.8095   25.6520   22.8955 O.2       1 ALC1        0.0000 
     67 O           1.2480   25.5780   24.0950 O.2       9 ALL1        0.0000 
     68 O           2.3710   25.7260   21.6960 O.2       5 ALP1        0.0000 
     69 CA          0.9930   23.9905   21.9690 C.3       4 GLC5        0.0000 
     70 CA          0.6140   24.2630   24.0870 C.3      12 GLL5        0.0000 
     71 CA          1.3720   23.7180   19.8510 C.3       8 GLP5        0.0000 
     72 CA         -0.1945   20.2755   25.7170 C.3       4 GLC5        0.0000 
     73 CA          0.8190   21.5670   24.9700 C.3      12 GLL5        0.0000 
     74 CA         -1.2080   18.9840   26.4640 C.3       8 GLP5        0.0000 
     75 CA         -0.9425   21.0445   24.2190 C.3       4 GLC5        0.0000 
     76 CA         -2.7040   20.5220   23.4680 C.3       8 GLP5        0.0000 
     77 CA         -7.0766   24.5591   24.8664 C.3       4 GLC5        0.0000 
     78 CA         -7.2920   26.4290   25.7260 C.3      12 GLL5        0.0000 
     79 CA         -6.7670   23.1770   23.6520 C.3       8 GLP5        0.0000 
     80 CA        -11.2175   26.4392   21.8750 C.3       4 GLC5        0.0000 
     81 CA          2.8638   24.6495   24.6538 C.3       4 GLC5        0.0000 
@<TRIPOS>BOND
@<TRIPOS>SUBSTRUCTURE
     1 ALC1        9 GROUP        1 X    ALC  0     ROOT ALC X 1
     2 SEC2       17 GROUP        1 X    SEC  0     **** SEC X 2
     3 LYC4       20 GROUP        1 X    LYC  0     **** LYC X 4
     4 GLC5        1 GROUP        1 X    GLC  0     **** GLC X 6
     5 ALP1       11 GROUP        1 Y    ALP  0     ROOT ALP Y 8
     6 SEP2       19 GROUP        1 Y    SEP  0     **** SEP Y 9
     7 LYP4       22 GROUP        1 Y    LYP  0     **** LYP Y 11
     8 GLP5        3 GROUP        1 Y    GLP  0     **** GLP Y 13
     9 ALL1       10 GROUP        1 Z    ALL  0     ROOT ALL Z 15
    10 SEL2       18 GROUP        1 Z    SEL  0     **** SEL Z 16
    11 LYL4       21 GROUP        1 Z    LYL  0     **** LYL Z 18
    12 GLL5        2 GROUP        1 Z    GLL  0     **** GLL Z 20
@<TRIPOS>SET

