#    Name: 2o28_COA_1_ligand
#    Modification time : Tue Mar 25 21:53:24 2014

@<TRIPOS>MOLECULE
2o28_COA_1_ligand
   79    81     1     0     0
SMALL
NO_CHARGES


@<TRIPOS>ATOM
      1 N1A        -7.6930   24.5360   27.1540 N.ar      1 COA401      0.0000 
      2 C2A        -8.8980   24.3280   26.5280 C.ar      1 COA401      0.0000 
      3 N3A        -9.3140   25.1730   25.5070 N.ar      1 COA401      0.0000 
      4 C4A        -8.5170   26.2040   25.1330 C.ar      1 COA401      0.0000 
      5 C5A        -7.2920   26.4290   25.7260 C.ar      1 COA401      0.0000 
      6 C6A        -6.8680   25.5660   26.7320 C.ar      1 COA401      0.0000 
      7 N6A        -5.7250   25.7510   27.3620 N.pl3     1 COA401      0.0000 
      8 N7A        -6.7290   27.5050   25.1090 N.2       1 COA401      0.0000 
      9 C8A        -7.5510   27.9620   24.1670 C.2       1 COA401      0.0000 
     10 N9A        -8.6710   27.1530   24.1770 N.pl3     1 COA401      0.0000 
     11 C1B        -9.8610   27.2790   23.3310 C.3       1 COA401      0.0000 
     12 C2B       -10.6160   28.6070   23.5370 C.3       1 COA401      0.0000 
     13 O2B       -11.5950   28.5520   24.5650 O.3       1 COA401      0.0000 
     14 C3B       -11.3000   28.7600   22.1980 C.3       1 COA401      0.0000 
     15 O3B       -12.4380   27.9070   22.1490 O.3       1 COA401      0.0000 
     16 P3B       -13.5250   28.0200   20.9660 P.3       1 COA401      0.0000 
     17 O7A       -13.9770   29.4560   20.8660 O.co2     1 COA401      0.0000 
     18 O8A       -14.6880   27.1340   21.2400 O.co2     1 COA401      0.0000 
     19 O9A       -12.9240   27.6850   19.6330 O.co2     1 COA401      0.0000 
     20 C4B       -10.2720   28.1790   21.2360 C.3       1 COA401      0.0000 
     21 O4B        -9.4900   27.2420   21.9730 O.3       1 COA401      0.0000 
     22 C5B        -9.4370   29.3250   20.6850 C.3       1 COA401      0.0000 
     23 O5B        -8.5670   28.7870   19.7080 O.3       1 COA401      0.0000 
     24 P1A        -7.3140   29.6910   19.3530 P.3       1 COA401      0.0000 
     25 O1A        -7.7740   31.1270   19.2520 O.co2     1 COA401      0.0000 
     26 O2A        -6.6220   29.1120   18.1220 O.co2     1 COA401      0.0000 
     27 O3A        -6.4360   29.5740   20.6700 O.3       1 COA401      0.0000 
     28 P2A        -5.1100   30.3050   21.0970 P.3       1 COA401      0.0000 
     29 O4A        -5.3670   30.7930   22.4840 O.co2     1 COA401      0.0000 
     30 O5A        -4.6860   31.4070   20.1970 O.co2     1 COA401      0.0000 
     31 O6A        -4.0340   29.1250   21.0800 O.3       1 COA401      0.0000 
     32 CBP        -3.0120   28.1550   23.0640 C.3       1 COA401      0.0000 
     33 CCP        -4.1570   28.1000   22.0570 C.3       1 COA401      0.0000 
     34 CDP        -3.0460   29.3270   24.0670 C.3       1 COA401      0.0000 
     35 CEP        -2.9160   26.7880   23.7400 C.3       1 COA401      0.0000 
     36 CAP        -1.7850   28.4290   22.2780 C.3       1 COA401      0.0000 
     37 OAP        -1.6170   27.3270   21.3890 O.3       1 COA401      0.0000 
     38 C9P        -0.6550   28.8840   23.1780 C.2       1 COA401      0.0000 
     39 O9P         0.4850   29.3870   22.6090 O.2       1 COA401      0.0000 
     40 N8P        -0.7140   28.7900   24.5180 N.am      1 COA401      0.0000 
     41 C7P         0.4740   28.8050   25.3590 C.3       1 COA401      0.0000 
     42 C6P         1.6010   27.8490   24.9370 C.3       1 COA401      0.0000 
     43 C5P         1.1340   26.4240   25.1430 C.2       1 COA401      0.0000 
     44 O5P         0.6630   26.0930   26.2580 O.2       1 COA401      0.0000 
     45 N4P         1.2480   25.5780   24.0950 N.am      1 COA401      0.0000 
     46 C3P         0.6140   24.2630   24.0870 C.3       1 COA401      0.0000 
     47 C2P         1.4530   23.2730   24.8980 C.3       1 COA401      0.0000 
     48 S1P         0.8190   21.5670   24.9700 S.3       1 COA401      0.0000 
     49 H          -9.5035   23.5401   26.8134 H         1 COA401      0.0000 
     50 H          -5.1727   26.5254   27.0533 H         1 COA401      0.0000 
     51 H          -5.5142   25.1001   28.0913 H         1 COA401      0.0000 
     52 H          -7.4197   28.7044   23.5808 H         1 COA401      0.0000 
     53 H         -10.5631   26.4799   23.5489 H         1 COA401      0.0000 
     54 H          -9.9073   29.3790   23.6344 H         1 COA401      0.0000 
     55 H         -11.4688   29.7432   21.9795 H         1 COA401      0.0000 
     56 H         -10.8047   27.7140   20.4317 H         1 COA401      0.0000 
     57 H          -8.8956   29.7750   21.5166 H         1 COA401      0.0000 
     58 H         -10.1185   30.0656   20.2676 H         1 COA401      0.0000 
     59 H          -4.1490   27.0961   21.5989 H         1 COA401      0.0000 
     60 H          -5.1011   28.1855   22.6220 H         1 COA401      0.0000 
     61 H          -2.0710   29.3414   21.6440 H         1 COA401      0.0000 
     62 H          -1.6264   28.7010   25.0195 H         1 COA401      0.0000 
     63 H           0.2082   28.5595   26.4162 H         1 COA401      0.0000 
     64 H           0.9092   29.8332   25.4031 H         1 COA401      0.0000 
     65 H           2.4731   28.0427   25.5453 H         1 COA401      0.0000 
     66 H           1.8308   28.0145   23.8940 H         1 COA401      0.0000 
     67 H           1.7940   25.8289   23.2471 H         1 COA401      0.0000 
     68 H           0.5223   23.8781   23.0683 H         1 COA401      0.0000 
     69 H          -0.3845   24.3064   24.5292 H         1 COA401      0.0000 
     70 H           1.5244   23.5324   25.9505 H         1 COA401      0.0000 
     71 H           2.4515   23.1265   24.4959 H         1 COA401      0.0000 
     72 H          -2.2681   29.3012   24.6949 H         1 COA401      0.0000 
     73 H          -3.0197   30.2130   23.6040 H         1 COA401      0.0000 
     74 H          -3.8748   29.3132   24.6264 H         1 COA401      0.0000 
     75 H          -2.7359   26.0590   23.0797 H         1 COA401      0.0000 
     76 H          -2.1801   26.7591   24.4165 H         1 COA401      0.0000 
     77 H          -3.7620   26.5492   24.2168 H         1 COA401      0.0000 
     78 H         -12.4510   28.3351   24.0957 H         1 COA401      0.0000 
     79 H          -0.6622   27.3747   21.0955 H         1 COA401      0.0000 
@<TRIPOS>BOND
     1    2    1 ar   
     2    6    1 ar   
     3    3    2 ar   
     4   49    2 1    
     5    4    3 ar   
     6    5    4 ar   
     7   10    4 1    
     8    6    5 ar   
     9    8    5 1    
    10    7    6 1    
    11   50    7 1    
    12   51    7 1    
    13    9    8 2    
    14   10    9 1    
    15   52    9 1    
    16   11   10 1    
    17   12   11 1    
    18   21   11 1    
    19   53   11 1    
    20   13   12 1    
    21   14   12 1    
    22   54   12 1    
    23   78   13 1    
    24   15   14 1    
    25   20   14 1    
    26   55   14 1    
    27   16   15 1    
    28   17   16 ar   
    29   18   16 ar   
    30   19   16 ar   
    31   21   20 1    
    32   22   20 1    
    33   56   20 1    
    34   23   22 1    
    35   57   22 1    
    36   58   22 1    
    37   24   23 1    
    38   25   24 ar   
    39   26   24 ar   
    40   27   24 1    
    41   28   27 1    
    42   29   28 ar   
    43   30   28 ar   
    44   31   28 1    
    45   33   31 1    
    46   33   32 1    
    47   34   32 1    
    48   35   32 1    
    49   36   32 1    
    50   59   33 1    
    51   60   33 1    
    52   72   34 1    
    53   73   34 1    
    54   74   34 1    
    55   75   35 1    
    56   76   35 1    
    57   77   35 1    
    58   37   36 1    
    59   38   36 1    
    60   61   36 1    
    61   79   37 1    
    62   39   38 2    
    63   40   38 am   
    64   41   40 1    
    65   62   40 1    
    66   42   41 1    
    67   63   41 1    
    68   64   41 1    
    69   43   42 1    
    70   65   42 1    
    71   66   42 1    
    72   44   43 2    
    73   45   43 am   
    74   46   45 1    
    75   67   45 1    
    76   47   46 1    
    77   68   46 1    
    78   69   46 1    
    79   48   47 1    
    80   70   47 1    
    81   71   47 1    
@<TRIPOS>SUBSTRUCTURE
     1 COA401      1 GROUP   
@<TRIPOS>SET

