#    Name: 4oab_ATP_1_INTS_M
#    Modification time : Tue Mar 25 13:34:31 2014

@<TRIPOS>MOLECULE
4oab_ATP_1_INTS_M
   48     0    12     0     0
SMALL
NO_CHARGES


@<TRIPOS>ATOM
      1 NZ         43.8605   29.5445   21.0180 N.4       3 LYC4        0.0000 
      2 NZ         42.6180   30.0110   22.0460 N.4      11 LYL4        0.0000 
      3 NZ         45.1030   29.0780   19.9900 N.4       7 LYP4        0.0000 
      4 N          43.8605   29.5445   21.0180 N.am      2 SEC2        0.0000 
      5 N          42.6180   30.0110   22.0460 N.am     10 SEL2        0.0000 
      6 N          45.1030   29.0780   19.9900 N.am      6 SEP2        0.0000 
      7 N          42.3565   28.8540   22.1980 N.am      2 SEC2        0.0000 
      8 N          42.0950   27.6970   22.3500 N.am      6 SEP2        0.0000 
      9 CA         38.7030   34.1895   22.3120 C.3       4 GLC5        0.0000 
     10 CA         37.7480   32.5950   23.5450 C.3      12 GLL5        0.0000 
     11 CA         39.6580   35.7840   21.0790 C.3       8 GLP5        0.0000 
     12 CA         36.5700   34.0270   22.5650 C.3       4 GLC5        0.0000 
     13 CA         35.3920   35.4590   21.5850 C.3       8 GLP5        0.0000 
     14 CA         37.1570   34.4170   25.4530 C.3       4 GLC5        0.0000 
     15 CA         36.8420   32.4020   24.7930 C.3      12 GLL5        0.0000 
     16 CA         37.4720   36.4320   26.1130 C.3       8 GLP5        0.0000 
     17 CA         36.6650   28.2390   25.2380 C.3       4 GLC5        0.0000 
     18 CA         35.8440   30.2150   24.8110 C.3      12 GLL5        0.0000 
     19 CA         37.4860   26.2630   25.6650 C.3       8 GLP5        0.0000 
     20 CA         35.3760   28.4170   23.7565 C.3       4 GLC5        0.0000 
     21 CA         34.9080   26.6190   22.7020 C.3       8 GLP5        0.0000 
     22 CA         33.3110   32.6080   25.3890 C.3       4 GLC5        0.0000 
     23 CA         34.7360   31.2810   24.6830 C.3      12 GLL5        0.0000 
     24 CA         31.8860   33.9350   26.0950 C.3       8 GLP5        0.0000 
     25 CA         33.9610   33.1430   23.7075 C.3       4 GLC5        0.0000 
     26 CA         33.1860   35.0050   22.7320 C.3       8 GLP5        0.0000 
     27 CA         28.5970   29.6205   22.6100 C.3       4 GLC5        0.0000 
     28 CA         30.7320   29.7050   22.1850 C.3      12 GLL5        0.0000 
     29 CA         26.4620   29.5360   23.0350 C.3       8 GLP5        0.0000 
     30 CA         30.0915   27.7675   22.1195 C.3       4 GLC5        0.0000 
     31 CA         29.4510   25.8300   22.0540 C.3       8 GLP5        0.0000 
     32 O          28.8165   29.2315   20.7435 O.2       1 ALC1        0.0000 
     33 O          30.2030   29.5660   20.9350 O.2       9 ALL1        0.0000 
     34 O          27.4300   28.8970   20.5520 O.2       5 ALP1        0.0000 
     35 N          29.0000   28.5045   23.5160 N.am      2 SEC2        0.0000 
     36 N          30.0760   29.3160   23.3220 N.am     10 SEL2        0.0000 
     37 N          27.9240   27.6930   23.7100 N.am      6 SEP2        0.0000 
     38 CA         28.5515   29.4895   23.7870 C.3       4 GLC5        0.0000 
     39 CA         30.6410   29.4430   24.5390 C.3      12 GLL5        0.0000 
     40 CA         30.0825   27.6700   24.0595 C.3       4 GLC5        0.0000 
     41 CA         29.5240   25.8970   23.5800 C.3       8 GLP5        0.0000 
     42 CA         32.2390   32.1750   24.8950 C.3       4 GLC5        0.0000 
     43 CA         32.5920   30.4150   23.6950 C.3      12 GLL5        0.0000 
     44 CA         30.7741   31.6305   22.4209 C.3       4 GLC5        0.0000 
     45 CA         32.0650   30.2890   22.3200 C.3      12 GLL5        0.0000 
     46 CA         29.5530   33.0550   21.8680 C.3       8 GLP5        0.0000 
     47 CA         32.4906   28.6850   22.0894 C.3       4 GLC5        0.0000 
     48 CA         32.9860   27.1640   21.2050 C.3       8 GLP5        0.0000 
@<TRIPOS>BOND
@<TRIPOS>SUBSTRUCTURE
     1 ALC1       32 GROUP        1 X    ALC  0     ROOT ALC X 1
     2 SEC2        4 GROUP        1 X    SEC  0     **** SEC X 2
     3 LYC4        1 GROUP        1 X    LYC  0     **** LYC X 4
     4 GLC5        9 GROUP        1 X    GLC  0     **** GLC X 6
     5 ALP1       34 GROUP        1 Y    ALP  0     ROOT ALP Y 8
     6 SEP2        6 GROUP        1 Y    SEP  0     **** SEP Y 9
     7 LYP4        3 GROUP        1 Y    LYP  0     **** LYP Y 11
     8 GLP5       11 GROUP        1 Y    GLP  0     **** GLP Y 13
     9 ALL1       33 GROUP        1 Z    ALL  0     ROOT ALL Z 15
    10 SEL2        5 GROUP        1 Z    SEL  0     **** SEL Z 16
    11 LYL4        2 GROUP        1 Z    LYL  0     **** LYL Z 18
    12 GLL5       10 GROUP        1 Z    GLL  0     **** GLL Z 20
@<TRIPOS>SET

