#    Name: 4oab_ATP_1_ligand
#    Modification time : Tue Mar 25 13:34:31 2014

@<TRIPOS>MOLECULE
4oab_ATP_1_ligand
   43    45     1     0     0
SMALL
NO_CHARGES


@<TRIPOS>ATOM
      1 PG         42.4460   31.1870   23.0070 P.3       1 ATP1200     0.0000 
      2 O1G        43.7590   31.7090   23.5720 O.co2     1 ATP1200     0.0000 
      3 O2G        41.4250   30.9970   24.1250 O.co2     1 ATP1200     0.0000 
      4 O3G        42.6180   30.0110   22.0460 O.co2     1 ATP1200     0.0000 
      5 PB         40.8970   32.0590   20.7360 P.3       1 ATP1200     0.0000 
      6 O1B        41.1910   33.1750   19.7640 O.co2     1 ATP1200     0.0000 
      7 O2B        40.9210   30.5660   20.2800 O.co2     1 ATP1200     0.0000 
      8 O3B        41.8860   32.3440   22.0120 O.3       1 ATP1200     0.0000 
      9 PA         38.0580   31.6990   20.9590 P.3       1 ATP1200     0.0000 
     10 O1A        38.2990   30.2270   20.5920 O.co2     1 ATP1200     0.0000 
     11 O2A        37.3730   32.5010   19.8920 O.co2     1 ATP1200     0.0000 
     12 O3A        39.4390   32.4830   21.3350 O.3       1 ATP1200     0.0000 
     13 O5'        37.2940   31.8030   22.4160 O.3       1 ATP1200     0.0000 
     14 C5'        37.7480   32.5950   23.5450 C.3       1 ATP1200     0.0000 
     15 C4'        36.8420   32.4020   24.7930 C.3       1 ATP1200     0.0000 
     16 O4'        35.4350   32.5370   24.4700 O.3       1 ATP1200     0.0000 
     17 C3'        36.9580   31.0220   25.4320 C.3       1 ATP1200     0.0000 
     18 O3'        36.6890   31.0350   26.8650 O.3       1 ATP1200     0.0000 
     19 C2'        35.8440   30.2150   24.8110 C.3       1 ATP1200     0.0000 
     20 O2'        35.5480   29.1280   25.6920 O.3       1 ATP1200     0.0000 
     21 C1'        34.7360   31.2810   24.6830 C.3       1 ATP1200     0.0000 
     22 N9         33.7960   30.9700   23.5730 N.pl3     1 ATP1200     0.0000 
     23 C8         34.0310   31.1980   22.2430 C.2       1 ATP1200     0.0000 
     24 N7         32.9990   30.7900   21.4740 N.2       1 ATP1200     0.0000 
     25 C5         32.0650   30.2890   22.3200 C.ar      1 ATP1200     0.0000 
     26 C6         30.7320   29.7050   22.1850 C.ar      1 ATP1200     0.0000 
     27 N6         30.2030   29.5660   20.9350 N.pl3     1 ATP1200     0.0000 
     28 N1         30.0760   29.3160   23.3220 N.ar      1 ATP1200     0.0000 
     29 C2         30.6410   29.4430   24.5390 C.ar      1 ATP1200     0.0000 
     30 N3         31.8480   29.9680   24.7200 N.ar      1 ATP1200     0.0000 
     31 C4         32.5920   30.4150   23.6950 C.ar      1 ATP1200     0.0000 
     32 H          37.7507   33.6687   23.3060 H         1 ATP1200     0.0000 
     33 H          38.7723   32.3227   23.8395 H         1 ATP1200     0.0000 
     34 H          37.1147   33.1362   25.5405 H         1 ATP1200     0.0000 
     35 H          37.8743   30.5824   25.1891 H         1 ATP1200     0.0000 
     36 H          36.1518   29.9288   23.8451 H         1 ATP1200     0.0000 
     37 H          34.2136   31.3080   25.6262 H         1 ATP1200     0.0000 
     38 H          34.8558   31.6100   21.9001 H         1 ATP1200     0.0000 
     39 H          30.7732   29.8848   20.1779 H         1 ATP1200     0.0000 
     40 H          29.2916   29.1574   20.8858 H         1 ATP1200     0.0000 
     41 H          30.0906   29.1062   25.3856 H         1 ATP1200     0.0000 
     42 H          36.0689   30.2657   27.0188 H         1 ATP1200     0.0000 
     43 H          34.5693   28.9593   25.5749 H         1 ATP1200     0.0000 
@<TRIPOS>BOND
     1    2    1 ar   
     2    3    1 ar   
     3    4    1 ar   
     4    8    1 1    
     5    6    5 ar   
     6    7    5 ar   
     7    8    5 1    
     8   12    5 1    
     9   10    9 ar   
    10   11    9 ar   
    11   12    9 1    
    12   13    9 1    
    13   14   13 1    
    14   15   14 1    
    15   32   14 1    
    16   33   14 1    
    17   16   15 1    
    18   17   15 1    
    19   34   15 1    
    20   21   16 1    
    21   18   17 1    
    22   19   17 1    
    23   35   17 1    
    24   42   18 1    
    25   20   19 1    
    26   21   19 1    
    27   36   19 1    
    28   43   20 1    
    29   22   21 1    
    30   37   21 1    
    31   23   22 1    
    32   31   22 1    
    33   24   23 2    
    34   38   23 1    
    35   25   24 1    
    36   26   25 ar   
    37   31   25 ar   
    38   27   26 1    
    39   28   26 ar   
    40   39   27 1    
    41   40   27 1    
    42   29   28 ar   
    43   30   29 ar   
    44   41   29 1    
    45   31   30 ar   
@<TRIPOS>SUBSTRUCTURE
     1 ATP1200     1 GROUP   
@<TRIPOS>SET

