#    Name: 1m7a_MQU_2_INTS_M
#    Modification time : Mon Apr  7 14:31:56 2014

@<TRIPOS>MOLECULE
1m7a_MQU_2_INTS_M
   52     0     9     0     0
SMALL
NO_CHARGES


@<TRIPOS>ATOM
      1 CA         15.9085   38.0860   20.0415 C.3       3 GLC5        0.0000 
      2 CA         13.8610   37.9350   20.5630 C.3       9 GLL5        0.0000 
      3 CA         17.9560   38.2370   19.5200 C.3       6 GLP5        0.0000 
      4 CA         15.2175   37.0350   22.0520 C.3       3 GLC5        0.0000 
      5 CA         16.5740   36.1350   23.5410 C.3       6 GLP5        0.0000 
      6 CA         15.1640   37.7010   22.9925 C.3       3 GLC5        0.0000 
      7 CA         13.7540   39.2670   22.4440 C.3       9 GLL5        0.0000 
      8 CA         15.3055   37.2570   16.2010 C.3       3 GLC5        0.0000 
      9 CA         14.8360   39.3140   16.7680 C.3       9 GLL5        0.0000 
     10 CA         15.7750   35.2000   15.6340 C.3       6 GLP5        0.0000 
     11 CA         16.4280   39.9415   15.6935 C.3       3 GLC5        0.0000 
     12 CA         18.0200   40.5690   14.6190 C.3       6 GLP5        0.0000 
     13 CA         16.3960   38.7755   18.1440 C.3       3 GLC5        0.0000 
     14 N           5.8910   37.1390   19.5935 N.am      2 SEC2        0.0000 
     15 N           6.7830   36.1780   19.2740 N.am      8 SEL2        0.0000 
     16 N           4.9990   38.1000   19.9130 N.am      5 SEP2        0.0000 
     17 O           4.2920   35.5795   19.5120 O.2       1 ALC1        0.0000 
     18 O           5.1300   34.6010   18.9630 O.2       7 ALL1        0.0000 
     19 O           3.4540   36.5580   20.0610 O.2       4 ALP1        0.0000 
     20 O           3.8400   33.5055   19.0860 O.2       1 ALC1        0.0000 
     21 O           2.5500   32.4100   19.2090 O.2       4 ALP1        0.0000 
     22 O           8.6130   32.2065   17.0645 O.2       1 ALC1        0.0000 
     23 O           9.3620   33.4280   17.5440 O.2       7 ALL1        0.0000 
     24 O           7.8640   30.9850   16.5850 O.2       4 ALP1        0.0000 
     25 O           9.2775   32.8305   16.0245 O.2       1 ALC1        0.0000 
     26 O           9.1930   32.2330   14.5050 O.2       4 ALP1        0.0000 
     27 CA          6.0940   32.9950   19.3070 C.3       3 GLC5        0.0000 
     28 CA          6.4060   34.9440   18.7930 C.3       9 GLL5        0.0000 
     29 CA          5.7820   31.0460   19.8210 C.3       6 GLP5        0.0000 
     30 CA          6.0710   33.7910   17.1430 C.3       3 GLC5        0.0000 
     31 CA          5.7360   32.6380   15.4930 C.3       6 GLP5        0.0000 
     32 CA          5.3070   36.0135   17.4895 C.3       3 GLC5        0.0000 
     33 CA          4.2080   37.0830   16.1860 C.3       6 GLP5        0.0000 
     34 CA          6.9025   35.1580   20.7855 C.3       3 GLC5        0.0000 
     35 CA          7.3990   35.3720   22.7780 C.3       6 GLP5        0.0000 
     36 CA          7.1435   33.5240   16.8220 C.3       3 GLC5        0.0000 
     37 CA          8.5510   34.4100   18.1510 C.3       9 GLL5        0.0000 
     38 CA         12.0375   33.3220   18.3355 C.3       3 GLC5        0.0000 
     39 CA         11.7000   35.4650   18.0900 C.3       9 GLL5        0.0000 
     40 CA         12.3750   31.1790   18.5810 C.3       6 GLP5        0.0000 
     41 CA         14.2220   35.8320   17.0055 C.3       3 GLC5        0.0000 
     42 CA         12.6690   36.4640   18.3770 C.3       9 GLL5        0.0000 
     43 CA          8.1945   39.6785   20.8140 C.3       3 GLC5        0.0000 
     44 CA          8.4840   37.8700   19.5820 C.3       9 GLL5        0.0000 
     45 CA          7.9050   41.4870   22.0460 C.3       6 GLP5        0.0000 
     46 CA          8.0810   38.4128   17.6920 C.3       3 GLC5        0.0000 
     47 CA          8.1520   36.5530   19.1800 C.3       9 GLL5        0.0000 
     48 CA          7.8440   39.6140   16.0030 C.3       6 GLP5        0.0000 
     49 CA          7.8585   36.2917   21.0795 C.3       3 GLC5        0.0000 
     50 CA          9.9620   38.7785   17.7235 C.3       3 GLC5        0.0000 
     51 CA          9.8260   38.1790   19.6760 C.3       9 GLL5        0.0000 
     52 CA          9.6390   39.7980   16.0370 C.3       6 GLP5        0.0000 
@<TRIPOS>BOND
@<TRIPOS>SUBSTRUCTURE
     1 ALC1       17 GROUP        1 X    ALC  0     ROOT ALC X 1
     2 SEC2       14 GROUP        1 X    SEC  0     **** SEC X 2
     3 GLC5        1 GROUP        1 X    GLC  0     **** GLC X 6
     4 ALP1       19 GROUP        1 Y    ALP  0     ROOT ALP Y 8
     5 SEP2       16 GROUP        1 Y    SEP  0     **** SEP Y 9
     6 GLP5        3 GROUP        1 Y    GLP  0     **** GLP Y 13
     7 ALL1       18 GROUP        1 Z    ALL  0     ROOT ALL Z 15
     8 SEL2       15 GROUP        1 Z    SEL  0     **** SEL Z 16
     9 GLL5        2 GROUP        1 Z    GLL  0     **** GLL Z 20
@<TRIPOS>SET

