#    Name: 1m7a_MQU_2_ligand
#    Modification time : Mon Apr  7 14:31:56 2014

@<TRIPOS>MOLECULE
1m7a_MQU_2_ligand
   41    43     1     0     0
SMALL
NO_CHARGES


@<TRIPOS>ATOM
      1 C1         12.8000   38.5780   19.6890 C.3       1 MQU196      0.0000 
      2 C2         13.8610   37.9350   20.5630 C.3       1 MQU196      0.0000 
      3 O8         13.4050   37.9970   21.8850 O.3       1 MQU196      0.0000 
      4 C14        13.7540   39.2670   22.4440 C.3       1 MQU196      0.0000 
      5 C5         13.4140   39.4970   18.6220 C.3       1 MQU196      0.0000 
      6 O11        14.3610   38.6830   17.9430 O.3       1 MQU196      0.0000 
      7 C18        14.8360   39.3140   16.7680 C.3       1 MQU196      0.0000 
      8 N22         6.7830   36.1780   19.2740 N.ar      1 MQU196      0.0000 
      9 N23         7.2730   34.0710   18.3100 N.ar      1 MQU196      0.0000 
     10 N24        12.1260   37.5340   18.9700 N.pl3     1 MQU196      0.0000 
     11 N25         5.1300   34.6010   18.9630 N.pl3     1 MQU196      0.0000 
     12 N26         9.3620   33.4280   17.5440 N.pl3     1 MQU196      0.0000 
     13 C27         8.1520   36.5530   19.1800 C.ar      1 MQU196      0.0000 
     14 C28         6.4060   34.9440   18.7930 C.ar      1 MQU196      0.0000 
     15 C29         8.5510   34.4100   18.1510 C.ar      1 MQU196      0.0000 
     16 C30         9.0680   35.6570   18.5890 C.ar      1 MQU196      0.0000 
     17 C31        10.4480   36.0680   18.5810 C.ar      1 MQU196      0.0000 
     18 C32        11.7000   35.4650   18.0900 C.2       1 MQU196      0.0000 
     19 C33        12.6690   36.4640   18.3770 C.2       1 MQU196      0.0000 
     20 C34        10.7440   37.3390   19.1440 C.ar      1 MQU196      0.0000 
     21 C35         9.8260   38.1790   19.6760 C.ar      1 MQU196      0.0000 
     22 C36         8.4840   37.8700   19.5820 C.ar      1 MQU196      0.0000 
     23 H          12.1246   39.1362   20.2810 H         1 MQU196      0.0000 
     24 H          14.7921   38.4839   20.4149 H         1 MQU196      0.0000 
     25 H          14.0021   36.9103   20.2162 H         1 MQU196      0.0000 
     26 H          13.8721   40.3298   19.1275 H         1 MQU196      0.0000 
     27 H          12.6193   39.8316   17.9775 H         1 MQU196      0.0000 
     28 H           4.5611   35.2554   19.4611 H         1 MQU196      0.0000 
     29 H           4.8560   33.7200   18.5772 H         1 MQU196      0.0000 
     30 H           8.9154   32.8483   16.8624 H         1 MQU196      0.0000 
     31 H          10.3144   33.3952   17.8470 H         1 MQU196      0.0000 
     32 H          11.7925   34.6643   17.7096 H         1 MQU196      0.0000 
     33 H          13.6127   36.3417   18.1500 H         1 MQU196      0.0000 
     34 H          10.1154   39.0494   20.1521 H         1 MQU196      0.0000 
     35 H           7.7609   38.5381   19.7862 H         1 MQU196      0.0000 
     36 H          14.7429   39.4157   22.4393 H         1 MQU196      0.0000 
     37 H          13.3415   40.0227   21.9353 H         1 MQU196      0.0000 
     38 H          13.4494   39.3515   23.3927 H         1 MQU196      0.0000 
     39 H          15.2850   40.1845   16.9695 H         1 MQU196      0.0000 
     40 H          15.5018   38.7458   16.2845 H         1 MQU196      0.0000 
     41 H          14.0949   39.5083   16.1253 H         1 MQU196      0.0000 
@<TRIPOS>BOND
     1    2    1 1    
     2    5    1 1    
     3   10    1 1    
     4   23    1 1    
     5    3    2 1    
     6   24    2 1    
     7   25    2 1    
     8    4    3 1    
     9   36    4 1    
    10   37    4 1    
    11   38    4 1    
    12    6    5 1    
    13   26    5 1    
    14   27    5 1    
    15    7    6 1    
    16   39    7 1    
    17   40    7 1    
    18   41    7 1    
    19   13    8 ar   
    20   14    8 ar   
    21   14    9 ar   
    22   15    9 ar   
    23   19   10 1    
    24   20   10 1    
    25   14   11 1    
    26   28   11 1    
    27   29   11 1    
    28   15   12 1    
    29   30   12 1    
    30   31   12 1    
    31   16   13 ar   
    32   22   13 ar   
    33   16   15 ar   
    34   17   16 ar   
    35   18   17 1    
    36   20   17 ar   
    37   19   18 2    
    38   32   18 1    
    39   33   19 1    
    40   21   20 ar   
    41   22   21 ar   
    42   34   21 1    
    43   35   22 1    
@<TRIPOS>SUBSTRUCTURE
     1 MQU196      1 GROUP   
@<TRIPOS>SET

