#    Name: 3ha3_SAH_1_INTS_M
#    Modification time : Tue Mar 25 13:47:35 2014

@<TRIPOS>MOLECULE
3ha3_SAH_1_INTS_M
   52     0     9     0     0
SMALL
NO_CHARGES


@<TRIPOS>ATOM
      1 O          26.4430    7.3250   22.2170 O.2       1 ALC1        0.0000 
      2 O          25.2660    7.6520   21.5130 O.2       7 ALL1        0.0000 
      3 O          27.6200    6.9980   22.9210 O.2       4 ALP1        0.0000 
      4 O          25.5390    7.1245   20.1430 O.2       1 ALC1        0.0000 
      5 O          25.8120    6.5970   18.7730 O.2       4 ALP1        0.0000 
      6 N          22.6155    9.2620   18.8615 N.am      2 SEC2        0.0000 
      7 N          23.3960    9.1100   19.8780 N.am      8 SEL2        0.0000 
      8 N          21.8350    9.4140   17.8450 N.am      5 SEP2        0.0000 
      9 N          23.4895   12.1280   19.9575 N.am      2 SEC2        0.0000 
     10 N          23.8060   10.9720   20.7520 N.am      8 SEL2        0.0000 
     11 N          23.1730   13.2840   19.1630 N.am      5 SEP2        0.0000 
     12 CA         29.8400    7.6810   18.5775 C.3       3 GLC5        0.0000 
     13 CA         29.5630    9.4130   19.3030 C.3       9 GLL5        0.0000 
     14 CA         30.1170    5.9490   17.8520 C.3       6 GLP5        0.0000 
     15 CA         30.8515    8.9940   17.8110 C.3       3 GLC5        0.0000 
     16 CA         32.1400    8.5750   16.3190 C.3       6 GLP5        0.0000 
     17 CA         29.9885    7.6500   21.9030 C.3       3 GLC5        0.0000 
     18 CA         30.1120    9.0990   20.6770 C.3       9 GLL5        0.0000 
     19 CA         29.8650    6.2010   23.1290 C.3       6 GLP5        0.0000 
     20 CA         30.2425    7.2070   19.9500 C.3       3 GLC5        0.0000 
     21 CA         30.3730    5.3150   19.2230 C.3       6 GLP5        0.0000 
     22 N          30.5070   11.0940   23.9470 N.am      2 SEC2        0.0000 
     23 N          30.6140   10.0750   22.7540 N.am      8 SEL2        0.0000 
     24 N          30.4000   12.1130   25.1400 N.am      5 SEP2        0.0000 
     25 CA         31.0460    7.2860   22.1890 C.3       3 GLC5        0.0000 
     26 CA         32.2270    8.3710   21.2490 C.3       9 GLL5        0.0000 
     27 CA         31.3000    6.8430   20.2360 C.3       3 GLC5        0.0000 
     28 CA         36.4380    4.4055   23.0920 C.3       3 GLC5        0.0000 
     29 CA         35.6380    4.9460   21.3200 C.3       9 GLL5        0.0000 
     30 CA         37.2380    3.8650   24.8640 C.3       6 GLP5        0.0000 
     31 O          37.6255    3.3115   21.4035 O.2       1 ALC1        0.0000 
     32 O          36.7210    4.4850   20.6550 O.2       7 ALL1        0.0000 
     33 O          38.5300    2.1380   22.1520 O.2       4 ALP1        0.0000 
     34 N          35.6800    3.0425   23.3900 N.am      2 SEC2        0.0000 
     35 N          35.1390    4.3400   22.4580 N.am      8 SEL2        0.0000 
     36 N          36.2210    1.7450   24.3220 N.am      5 SEP2        0.0000 
     37 CA         32.8015    3.3300   22.7760 C.3       3 GLC5        0.0000 
     38 CA         34.0160    4.8290   23.1400 C.3       9 GLL5        0.0000 
     39 CA         31.5870    1.8310   22.4120 C.3       6 GLP5        0.0000 
     40 CA         31.9405    5.5150   23.1345 C.3       3 GLC5        0.0000 
     41 CA         33.2810    4.3155   25.0535 C.3       3 GLC5        0.0000 
     42 CA         32.5460    3.8020   26.9670 C.3       6 GLP5        0.0000 
     43 CA         35.6270    4.3470   24.0020 C.3       3 GLC5        0.0000 
     44 CA         31.8610    6.3665   22.3255 C.3       3 GLC5        0.0000 
     45 CA         33.8570    6.5320   21.5220 C.3       9 GLL5        0.0000 
     46 CA         32.1150    5.9235   20.3725 C.3       3 GLC5        0.0000 
     47 CA         26.5635   10.2895   23.1060 C.3       3 GLC5        0.0000 
     48 CA         26.5370    9.7920   21.1380 C.3       9 GLL5        0.0000 
     49 CA         27.2590   11.1040   24.8690 C.3       6 GLP5        0.0000 
     50 CA         35.9997    7.1010   21.8061 C.3       3 GLC5        0.0000 
     51 CA         34.9660    6.0620   20.8330 C.3       9 GLL5        0.0000 
     52 CA         37.4200    8.1840   22.3130 C.3       6 GLP5        0.0000 
@<TRIPOS>BOND
@<TRIPOS>SUBSTRUCTURE
     1 ALC1        1 GROUP        1 X    ALC  0     ROOT ALC X 1
     2 SEC2        6 GROUP        1 X    SEC  0     **** SEC X 2
     3 GLC5       12 GROUP        1 X    GLC  0     **** GLC X 6
     4 ALP1        3 GROUP        1 Y    ALP  0     ROOT ALP Y 8
     5 SEP2        8 GROUP        1 Y    SEP  0     **** SEP Y 9
     6 GLP5       14 GROUP        1 Y    GLP  0     **** GLP Y 13
     7 ALL1        2 GROUP        1 Z    ALL  0     ROOT ALL Z 15
     8 SEL2        7 GROUP        1 Z    SEL  0     **** SEL Z 16
     9 GLL5       13 GROUP        1 Z    GLL  0     **** GLL Z 20
@<TRIPOS>SET

