#    Name: 3ha3_SAH_1_ligand
#    Modification time : Tue Mar 25 13:47:35 2014

@<TRIPOS>MOLECULE
3ha3_SAH_1_ligand
   46    48     1     0     0
SMALL
NO_CHARGES


@<TRIPOS>ATOM
      1 N          25.2660    7.6520   21.5130 N.4       1 SAH302      0.0000 
      2 CA         25.1990    9.1580   21.5480 C.3       1 SAH302      0.0000 
      3 CB         26.5370    9.7920   21.1380 C.3       1 SAH302      0.0000 
      4 CG         26.8340    9.9260   19.6250 C.3       1 SAH302      0.0000 
      5 SD         28.3700   10.7960   19.2660 S.3       1 SAH302      0.0000 
      6 C          24.0610    9.7580   20.6910 C.2       1 SAH302      0.0000 
      7 O          23.3960    9.1100   19.8780 O.co2     1 SAH302      0.0000 
      8 OXT        23.8060   10.9720   20.7520 O.co2     1 SAH302      0.0000 
      9 C5'        29.5630    9.4130   19.3030 C.3       1 SAH302      0.0000 
     10 C4'        30.1120    9.0990   20.6770 C.3       1 SAH302      0.0000 
     11 O4'        31.0690    8.0880   20.4620 O.3       1 SAH302      0.0000 
     12 C3'        30.8840   10.2240   21.3850 C.3       1 SAH302      0.0000 
     13 O3'        30.6140   10.0750   22.7540 O.3       1 SAH302      0.0000 
     14 C2'        32.3630    9.8780   21.1640 C.3       1 SAH302      0.0000 
     15 O2'        33.2780   10.3280   22.1500 O.3       1 SAH302      0.0000 
     16 C1'        32.2270    8.3710   21.2490 C.3       1 SAH302      0.0000 
     17 N9         33.4220    7.6120   20.8160 N.pl3     1 SAH302      0.0000 
     18 C8         34.2500    7.8120   19.7320 C.2       1 SAH302      0.0000 
     19 N7         35.1950    6.8480   19.7450 N.2       1 SAH302      0.0000 
     20 C5         34.9660    6.0620   20.8330 C.ar      1 SAH302      0.0000 
     21 C6         35.6380    4.9460   21.3200 C.ar      1 SAH302      0.0000 
     22 N6         36.7210    4.4850   20.6550 N.pl3     1 SAH302      0.0000 
     23 N1         35.1390    4.3400   22.4580 N.ar      1 SAH302      0.0000 
     24 C2         34.0160    4.8290   23.1400 C.ar      1 SAH302      0.0000 
     25 N3         33.3820    5.9580   22.6610 N.ar      1 SAH302      0.0000 
     26 C4         33.8570    6.5320   21.5220 C.ar      1 SAH302      0.0000 
     27 H          25.0115    9.4754   22.5932 H         1 SAH302      0.0000 
     28 H          27.3652    9.2069   21.6040 H         1 SAH302      0.0000 
     29 H          26.6046   10.8073   21.5964 H         1 SAH302      0.0000 
     30 H          26.0986   10.5140   19.1068 H         1 SAH302      0.0000 
     31 H          26.9782    8.9762   19.1433 H         1 SAH302      0.0000 
     32 H          30.3115    9.7499   18.5983 H         1 SAH302      0.0000 
     33 H          28.9819    8.6103   18.8691 H         1 SAH302      0.0000 
     34 H          29.3362    8.7462   21.3135 H         1 SAH302      0.0000 
     35 H          30.6553   11.1254   20.9742 H         1 SAH302      0.0000 
     36 H          32.6083   10.1086   20.1646 H         1 SAH302      0.0000 
     37 H          31.9984    8.1396   22.3002 H         1 SAH302      0.0000 
     38 H          34.1570    8.5170   19.0910 H         1 SAH302      0.0000 
     39 H          37.1493    3.6622   21.0285 H         1 SAH302      0.0000 
     40 H          36.9976    5.0077   19.8486 H         1 SAH302      0.0000 
     41 H          33.6798    4.3507   23.9769 H         1 SAH302      0.0000 
     42 H          25.0052    7.2893   20.6183 H         1 SAH302      0.0000 
     43 H          26.1877    7.3166   21.7079 H         1 SAH302      0.0000 
     44 H          24.6546    7.2373   22.1870 H         1 SAH302      0.0000 
     45 H          31.4776    9.7713   23.1564 H         1 SAH302      0.0000 
     46 H          33.6423   11.1876   21.7917 H         1 SAH302      0.0000 
@<TRIPOS>BOND
     1    2    1 1    
     2   42    1 1    
     3   43    1 1    
     4   44    1 1    
     5    3    2 1    
     6    6    2 1    
     7   27    2 1    
     8    4    3 1    
     9   28    3 1    
    10   29    3 1    
    11    5    4 1    
    12   30    4 1    
    13   31    4 1    
    14    9    5 1    
    15    7    6 ar   
    16    8    6 ar   
    17   10    9 1    
    18   32    9 1    
    19   33    9 1    
    20   11   10 1    
    21   12   10 1    
    22   34   10 1    
    23   16   11 1    
    24   13   12 1    
    25   14   12 1    
    26   35   12 1    
    27   45   13 1    
    28   15   14 1    
    29   16   14 1    
    30   36   14 1    
    31   46   15 1    
    32   17   16 1    
    33   37   16 1    
    34   18   17 1    
    35   26   17 1    
    36   19   18 2    
    37   38   18 1    
    38   20   19 1    
    39   21   20 ar   
    40   26   20 ar   
    41   22   21 1    
    42   23   21 ar   
    43   39   22 1    
    44   40   22 1    
    45   24   23 ar   
    46   25   24 ar   
    47   41   24 1    
    48   26   25 ar   
@<TRIPOS>SUBSTRUCTURE
     1 SAH302      1 GROUP   
@<TRIPOS>SET

