#    Name: 1w5x_BE5_1_INTS_M
#    Modification time : Tue Mar 25 08:40:31 2014

@<TRIPOS>MOLECULE
1w5x_BE5_1_INTS_M
  138     0     9     0     0
SMALL
NO_CHARGES


@<TRIPOS>ATOM
      1 CA         11.4510   21.6490    2.7065 C.3       3 GLC5        0.0000 
      2 CA         11.2900   23.4910    2.1270 C.3       9 GLL5        0.0000 
      3 CA         11.6120   19.8070    3.2860 C.3       6 GLP5        0.0000 
      4 CA         11.3270   25.1980    0.8350 C.3       3 GLC5        0.0000 
      5 CA         11.3640   26.9050   -0.4570 C.3       6 GLP5        0.0000 
      6 CA         10.0515   23.3570    0.4230 C.3       3 GLC5        0.0000 
      7 CA          8.8130   23.2230   -1.2810 C.3       6 GLP5        0.0000 
      8 CA         11.7740   21.9435    3.9310 C.3       3 GLC5        0.0000 
      9 CA         11.9360   24.0800    4.5760 C.3       9 GLL5        0.0000 
     10 CA         16.8525   23.9215    5.3135 C.3       3 GLC5        0.0000 
     11 CA         15.2290   22.7270    5.9590 C.3       9 GLL5        0.0000 
     12 CA         18.4760   25.1160    4.6680 C.3       6 GLP5        0.0000 
     13 O          17.3480   21.6835    5.3065 O.2       1 ALC1        0.0000 
     14 O          16.3400   20.5850    5.4280 O.2       7 ALL1        0.0000 
     15 O          18.3560   22.7820    5.1850 O.2       4 ALP1        0.0000 
     16 N          15.4750   25.3025    3.4850 N.am      2 SEC2        0.0000 
     17 N          14.8430   24.7450    4.5190 N.am      8 SEL2        0.0000 
     18 N          16.1070   25.8600    2.4510 N.am      5 SEP2        0.0000 
     19 O          15.1735   25.4230    5.6505 O.2       1 ALC1        0.0000 
     20 O          14.8430   24.7450    4.5190 O.2       7 ALL1        0.0000 
     21 O          15.5040   26.1010    6.7820 O.2       4 ALP1        0.0000 
     22 O          14.3205   25.4495    6.6625 O.2       1 ALC1        0.0000 
     23 O          13.1370   24.7980    6.5430 O.2       7 ALL1        0.0000 
     24 O          10.7195   26.4005    4.3890 O.2       1 ALC1        0.0000 
     25 O          10.0490   25.4100    5.3700 O.2       7 ALL1        0.0000 
     26 O          11.3900   27.3910    3.4080 O.2       4 ALP1        0.0000 
     27 CA          8.3745   23.4060    6.1410 C.3       3 GLC5        0.0000 
     28 CA          8.8310   25.6050    6.1290 C.3       9 GLL5        0.0000 
     29 CA          7.9180   21.2070    6.1530 C.3       6 GLP5        0.0000 
     30 CA          6.6740   26.3900    9.3510 C.3       3 GLC5        0.0000 
     31 CA          8.0090   27.1450    7.8030 C.3       9 GLL5        0.0000 
     32 CA          5.3390   25.6350   10.8990 C.3       6 GLP5        0.0000 
     33 CA         12.2095   26.0875   10.0890 C.3       3 GLC5        0.0000 
     34 CA         10.4140   27.0640    9.5120 C.3       9 GLL5        0.0000 
     35 CA         14.0050   25.1110   10.6660 C.3       6 GLP5        0.0000 
     36 CA          8.0415   28.8105   11.5065 C.3       3 GLC5        0.0000 
     37 CA          9.2560   27.9000    9.8740 C.3       9 GLL5        0.0000 
     38 CA          6.8270   29.7210   13.1390 C.3       6 GLP5        0.0000 
     39 N           9.1950   28.8765    5.2975 N.am      2 SEC2        0.0000 
     40 N           8.4830   27.6460    4.8890 N.am      8 SEL2        0.0000 
     41 N           9.9070   30.1070    5.7060 N.am      5 SEP2        0.0000 
     42 O           7.4600   28.6425    4.4925 O.2       1 ALC1        0.0000 
     43 O           8.4830   27.6460    4.8890 O.2       7 ALL1        0.0000 
     44 O           6.4370   29.6390    4.0960 O.2       4 ALP1        0.0000 
     45 CA          6.5030   27.5050   10.1690 C.3       3 GLC5        0.0000 
     46 CA          8.0440   27.9540    9.0340 C.3       9 GLL5        0.0000 
     47 CA          4.9620   27.0560   11.3040 C.3       6 GLP5        0.0000 
     48 CA          7.3040   29.0685    6.1270 C.3       3 GLC5        0.0000 
     49 CA          6.9400   27.0110    6.7890 C.3       9 GLL5        0.0000 
     50 CA          7.6680   31.1260    5.4650 C.3       6 GLP5        0.0000 
     51 CA         13.5620   19.5495    2.9955 C.3       3 GLC5        0.0000 
     52 CA         15.5120   19.2920    2.7050 C.3       9 GLL5        0.0000 
     53 N          19.4615   20.0155    4.0030 N.am      2 SEC2        0.0000 
     54 N          18.8120   19.6620    5.3430 N.am      8 SEL2        0.0000 
     55 N          20.1110   20.3690    2.6630 N.am      5 SEP2        0.0000 
     56 O          18.5840   21.2220    5.2640 O.2       1 ALC1        0.0000 
     57 O          18.8120   19.6620    5.3430 O.2       7 ALL1        0.0000 
     58 CA         17.1445   15.2460    2.2850 C.3       3 GLC5        0.0000 
     59 CA         17.4490   17.1030    2.1620 C.3       9 GLL5        0.0000 
     60 CA         16.8400   13.3890    2.4080 C.3       6 GLP5        0.0000 
     61 CA         19.9215   18.0200    4.0085 C.3       3 GLC5        0.0000 
     62 CA         18.0230   17.3530    4.7830 C.3       9 GLL5        0.0000 
     63 CA         21.8200   18.6870    3.2340 C.3       6 GLP5        0.0000 
     64 CA         14.4370   20.2210   11.2320 C.3       3 GLC5        0.0000 
     65 CA         14.3510   20.9740    9.5930 C.3       9 GLL5        0.0000 
     66 CA         14.5230   19.4680   12.8710 C.3       6 GLP5        0.0000 
     67 CA         15.9115   21.8945   10.7810 C.3       3 GLC5        0.0000 
     68 CA         17.4720   22.8150   11.9690 C.3       6 GLP5        0.0000 
     69 CA         14.1780   23.0425   10.1295 C.3       3 GLC5        0.0000 
     70 CA         13.6055   19.4485    8.6990 C.3       3 GLC5        0.0000 
     71 CA         12.8600   17.9230    7.8050 C.3       6 GLP5        0.0000 
     72 CA         12.7100   20.4980    9.9890 C.3       3 GLC5        0.0000 
     73 CA         11.0690   20.0220   10.3850 C.3       6 GLP5        0.0000 
     74 CA          8.5305   21.3835    4.6370 C.3       3 GLC5        0.0000 
     75 CA          9.1430   21.5600    3.1210 C.3       9 GLL5        0.0000 
     76 CA          8.2555   20.1475    2.1680 C.3       3 GLC5        0.0000 
     77 CA          7.3680   18.7350    1.2150 C.3       6 GLP5        0.0000 
     78 CA         10.7495   21.2865    1.5970 C.3       3 GLC5        0.0000 
     79 CA         12.3560   21.0130    0.0730 C.3       6 GLP5        0.0000 
     80 CA         15.1308   23.8712    9.6098 C.3       3 GLC5        0.0000 
     81 CA         16.5670   21.9590    8.7560 C.3       9 GLL5        0.0000 
     82 CA         17.9095   21.4050   10.5635 C.3       3 GLC5        0.0000 
     83 CA         18.7110   20.5610    8.8610 C.3       9 GLL5        0.0000 
     84 CA         16.8293   21.4980   10.7497 C.3       3 GLC5        0.0000 
     85 CA         16.5300   19.5620    9.7020 C.3       9 GLL5        0.0000 
     86 CA          9.0518   23.3075    0.5730 C.3       3 GLC5        0.0000 
     87 CA          9.8110   23.8560    2.1860 C.3       9 GLL5        0.0000 
     88 CA         11.4533   22.3433    1.1147 C.3       3 GLC5        0.0000 
     89 CA         10.2843   21.0255    3.0903 C.3       3 GLC5        0.0000 
     90 CA          7.9873   23.6400    0.5968 C.3       3 GLC5        0.0000 
     91 CA          7.3420   23.3660    2.7040 C.3       9 GLL5        0.0000 
     92 CA         10.1050   25.9976    0.7040 C.3       3 GLC5        0.0000 
     93 CA          8.0690   25.6530    1.7640 C.3       9 GLL5        0.0000 
     94 CA          8.7825   24.3245    0.2370 C.3       3 GLC5        0.0000 
     95 CA          9.4350   25.1990    1.7460 C.3       9 GLL5        0.0000 
     96 CA         18.0755   23.7727    8.3656 C.3       3 GLC5        0.0000 
     97 CA         15.9460   23.3040    8.3510 C.3       9 GLL5        0.0000 
     98 CA         19.5330   24.9570    8.2360 C.3       6 GLP5        0.0000 
     99 CA         17.0450   22.7018   10.2321 C.3       3 GLC5        0.0000 
    100 CA         18.0130   21.7870    8.5230 C.3       9 GLL5        0.0000 
    101 CA         10.4555   27.3475    6.2667 C.3       3 GLC5        0.0000 
    102 CA          9.1430   26.3030    7.4140 C.3       9 GLL5        0.0000 
    103 CA         11.9240   28.7410    5.7620 C.3       6 GLP5        0.0000 
    104 CA         10.2072   25.1538   10.1205 C.3       3 GLC5        0.0000 
    105 CA         10.3610   26.2470    8.2580 C.3       9 GLL5        0.0000 
    106 CA         10.0270   23.6520   11.3560 C.3       6 GLP5        0.0000 
    107 CA         10.7475   27.1015   11.3840 C.3       3 GLC5        0.0000 
    108 CA         11.6600   26.7210   13.0750 C.3       6 GLP5        0.0000 
    109 CA          8.6060   26.5655   11.0710 C.3       3 GLC5        0.0000 
    110 CA          7.3770   25.6490   12.4490 C.3       6 GLP5        0.0000 
    111 CA         11.2579   27.9319    8.2317 C.3       3 GLC5        0.0000 
    112 CA         12.6940   28.5860    7.0840 C.3       6 GLP5        0.0000 
    113 CA          8.3900   29.6990    9.8520 C.3       3 GLC5        0.0000 
    114 CA          8.1300   31.4710   10.2500 C.3       6 GLP5        0.0000 
    115 CA         17.3450   20.4685    3.5175 C.3       3 GLC5        0.0000 
    116 CA         16.4420   19.1560    5.2500 C.3       9 GLL5        0.0000 
    117 CA         18.2890   21.9800    2.5190 C.3       6 GLP5        0.0000 
    118 CA         16.6890   15.6433    3.7612 C.3       3 GLC5        0.0000 
    119 CA         17.3050   17.6880    3.5100 C.3       9 GLL5        0.0000 
    120 CA         15.7140   13.7660    3.3760 C.3       6 GLP5        0.0000 
    121 CA         13.9650   20.0093    1.0453 C.3       3 GLC5        0.0000 
    122 CA         15.1397   16.3968    1.3765 C.3       3 GLC5        0.0000 
    123 CA         16.6010   17.6400    1.0960 C.3       9 GLL5        0.0000 
    124 CA         14.1610   14.6140    1.5400 C.3       6 GLP5        0.0000 
    125 CA         16.7102   20.1149    1.4419 C.3       3 GLC5        0.0000 
    126 CA         17.3330   21.9070    1.3270 C.3       6 GLP5        0.0000 
    127 CA         18.4230   16.9708    0.5055 C.3       3 GLC5        0.0000 
    128 CA         19.8210   16.5700   -0.6180 C.3       6 GLP5        0.0000 
    129 CA         15.9409   16.8786    0.1048 C.3       3 GLC5        0.0000 
    130 CA         15.0980   16.1160   -1.4780 C.3       6 GLP5        0.0000 
    131 CA          7.5518   22.0027    4.5440 C.3       3 GLC5        0.0000 
    132 CA          8.7700   22.9280    2.6680 C.3       9 GLL5        0.0000 
    133 CA          6.4378   21.5753    1.9595 C.3       3 GLC5        0.0000 
    134 CA          6.3150   22.4500    3.1840 C.3       9 GLL5        0.0000 
    135 CA          5.6900   20.3520    0.9840 C.3       6 GLP5        0.0000 
    136 CA         15.2526   19.3912   11.3909 C.3       3 GLC5        0.0000 
    137 CA         14.4211   18.6187    8.8579 C.3       3 GLC5        0.0000 
    138 CA         15.7780   18.4480   10.2910 C.3       9 GLL5        0.0000 
@<TRIPOS>BOND
@<TRIPOS>SUBSTRUCTURE
     1 ALC1       13 GROUP        1 X    ALC  0     ROOT ALC X 1
     2 SEC2       16 GROUP        1 X    SEC  0     **** SEC X 2
     3 GLC5        1 GROUP        1 X    GLC  0     **** GLC X 6
     4 ALP1       15 GROUP        1 Y    ALP  0     ROOT ALP Y 8
     5 SEP2       18 GROUP        1 Y    SEP  0     **** SEP Y 9
     6 GLP5        3 GROUP        1 Y    GLP  0     **** GLP Y 13
     7 ALL1       14 GROUP        1 Z    ALL  0     ROOT ALL Z 15
     8 SEL2       17 GROUP        1 Z    SEL  0     **** SEL Z 16
     9 GLL5        2 GROUP        1 Z    GLL  0     **** GLL Z 20
@<TRIPOS>SET

