#    Name: 1w5x_BE5_1_ligand
#    Modification time : Tue Mar 25 08:40:31 2014

@<TRIPOS>MOLECULE
1w5x_BE5_1_ligand
   88    93     1     0     0
SMALL
NO_CHARGES


@<TRIPOS>ATOM
      1 C01        16.5670   21.9590    8.7560 C.ar      1 BE5501      0.0000 
      2 C02        18.0130   21.7870    8.5230 C.ar      1 BE5501      0.0000 
      3 C03        18.7110   20.5610    8.8610 C.ar      1 BE5501      0.0000 
      4 C04        17.9830   19.4290    9.4550 C.ar      1 BE5501      0.0000 
      5 C05        16.5300   19.5620    9.7020 C.ar      1 BE5501      0.0000 
      6 C06        15.8430   20.8000    9.3590 C.ar      1 BE5501      0.0000 
      7 C07         9.8110   23.8560    2.1860 C.ar      1 BE5501      0.0000 
      8 C08         8.7700   22.9280    2.6680 C.ar      1 BE5501      0.0000 
      9 C09         7.3420   23.3660    2.7040 C.ar      1 BE5501      0.0000 
     10 C10         6.9810   24.7480    2.2450 C.ar      1 BE5501      0.0000 
     11 C11         8.0690   25.6530    1.7640 C.ar      1 BE5501      0.0000 
     12 C12         9.4350   25.1990    1.7460 C.ar      1 BE5501      0.0000 
     13 C13        11.2900   23.4910    2.1270 C.3       1 BE5501      0.0000 
     14 O14        11.7600   23.0610    3.4460 O.3       1 BE5501      0.0000 
     15 C15        11.9360   24.0800    4.5760 C.3       1 BE5501      0.0000 
     16 C16        12.9970   23.6860    5.5660 C.3       1 BE5501      0.0000 
     17 C17        14.2820   23.4650    4.9150 C.3       1 BE5501      0.0000 
     18 C18        15.2290   22.7270    5.9590 C.3       1 BE5501      0.0000 
     19 C19        15.1860   21.2170    5.7920 C.2       1 BE5501      0.0000 
     20 O20        14.1280   20.5720    6.0030 O.2       1 BE5501      0.0000 
     21 N21        16.3400   20.5850    5.4280 N.am      1 BE5501      0.0000 
     22 O22        14.8860   23.0620    7.3730 O.3       1 BE5501      0.0000 
     23 C23        15.9460   23.3040    8.3510 C.3       1 BE5501      0.0000 
     24 O24        14.8430   24.7450    4.5190 O.3       1 BE5501      0.0000 
     25 O25        13.1370   24.7980    6.5430 O.3       1 BE5501      0.0000 
     26 C26        10.6970   24.2170    5.3670 C.2       1 BE5501      0.0000 
     27 O27        10.2670   23.2360    6.0260 O.2       1 BE5501      0.0000 
     28 N28        10.0490   25.4100    5.3700 N.am      1 BE5501      0.0000 
     29 C29         8.8310   25.6050    6.1290 C.3       1 BE5501      0.0000 
     30 C30         9.1430   26.3030    7.4140 C.ar      1 BE5501      0.0000 
     31 C31         8.0090   27.1450    7.8030 C.ar      1 BE5501      0.0000 
     32 C32        10.3610   26.2470    8.2580 C.ar      1 BE5501      0.0000 
     33 C33        10.4140   27.0640    9.5120 C.ar      1 BE5501      0.0000 
     34 C34         9.2560   27.9000    9.8740 C.ar      1 BE5501      0.0000 
     35 C35         7.7660   26.5710    5.5440 C.3       1 BE5501      0.0000 
     36 O36         8.4830   27.6460    4.8890 O.3       1 BE5501      0.0000 
     37 C37         8.0440   27.9540    9.0340 C.ar      1 BE5501      0.0000 
     38 C38         6.9400   27.0110    6.7890 C.3       1 BE5501      0.0000 
     39 C39        16.4420   19.1560    5.2500 C.3       1 BE5501      0.0000 
     40 C40        16.3600   18.7580    3.7820 C.ar      1 BE5501      0.0000 
     41 C41        17.3050   17.6880    3.5100 C.ar      1 BE5501      0.0000 
     42 C42        15.5120   19.2920    2.7050 C.ar      1 BE5501      0.0000 
     43 C43        15.6360   18.7190    1.3300 C.ar      1 BE5501      0.0000 
     44 C44        16.6010   17.6400    1.0960 C.ar      1 BE5501      0.0000 
     45 C45        17.8460   18.6200    5.6380 C.3       1 BE5501      0.0000 
     46 O46        18.8120   19.6620    5.3430 O.3       1 BE5501      0.0000 
     47 C47        17.4490   17.1030    2.1620 C.ar      1 BE5501      0.0000 
     48 C48        18.0230   17.3530    4.7830 C.3       1 BE5501      0.0000 
     49 F49         6.3150   22.4500    3.1840 F         1 BE5501      0.0000 
     50 F50        15.7780   18.4480   10.2910 F         1 BE5501      0.0000 
     51 F51        14.3510   20.9740    9.5930 F         1 BE5501      0.0000 
     52 F52         9.1430   21.5600    3.1210 F         1 BE5501      0.0000 
     53 H          18.5317   22.5630    8.1093 H         1 BE5501      0.0000 
     54 H          19.7008   20.4754    8.6913 H         1 BE5501      0.0000 
     55 H          18.4552   18.5880    9.6877 H         1 BE5501      0.0000 
     56 H           6.0455   25.0504    2.2613 H         1 BE5501      0.0000 
     57 H           7.8215   26.5773    1.4570 H         1 BE5501      0.0000 
     58 H          10.1718   25.8276    1.4172 H         1 BE5501      0.0000 
     59 H          11.8480   24.3668    1.7826 H         1 BE5501      0.0000 
     60 H          11.4193   22.6930    1.3897 H         1 BE5501      0.0000 
     61 H          12.1932   25.0393    4.1569 H         1 BE5501      0.0000 
     62 H          12.6765   22.8039    6.0890 H         1 BE5501      0.0000 
     63 H          14.1711   22.8069    4.0805 H         1 BE5501      0.0000 
     64 H          16.2485   23.0605    5.7525 H         1 BE5501      0.0000 
     65 H          17.2154   21.1378    5.2615 H         1 BE5501      0.0000 
     66 H          16.7317   23.9285    7.9319 H         1 BE5501      0.0000 
     67 H          15.5528   23.7800    9.2465 H         1 BE5501      0.0000 
     68 H          10.4010   26.2206    4.8316 H         1 BE5501      0.0000 
     69 H           8.3298   24.6917    6.3807 H         1 BE5501      0.0000 
     70 H          11.1293   25.6813    8.0026 H         1 BE5501      0.0000 
     71 H          11.2224   27.0354   10.0837 H         1 BE5501      0.0000 
     72 H           9.2919   28.4531   10.7225 H         1 BE5501      0.0000 
     73 H           7.1519   26.0106    4.9010 H         1 BE5501      0.0000 
     74 H           7.2754   28.5191    9.2916 H         1 BE5501      0.0000 
     75 H           6.4870   27.9370    6.5776 H         1 BE5501      0.0000 
     76 H           6.2682   26.2385    7.0327 H         1 BE5501      0.0000 
     77 H          15.7266   18.5966    5.7888 H         1 BE5501      0.0000 
     78 H          14.8642   20.0216    2.8780 H         1 BE5501      0.0000 
     79 H          15.0700   19.0710    0.5976 H         1 BE5501      0.0000 
     80 H          16.6838   17.2500    0.1564 H         1 BE5501      0.0000 
     81 H          17.8121   18.3540    6.6581 H         1 BE5501      0.0000 
     82 H          18.0930   16.3789    1.9920 H         1 BE5501      0.0000 
     83 H          19.0569   17.1980    4.6014 H         1 BE5501      0.0000 
     84 H          17.5570   16.5353    5.2730 H         1 BE5501      0.0000 
     85 H          15.0835   25.1987    5.3771 H         1 BE5501      0.0000 
     86 H          14.0714   25.1329    6.4216 H         1 BE5501      0.0000 
     87 H           7.7749   28.2886    4.5964 H         1 BE5501      0.0000 
     88 H          18.2636   20.4738    5.1425 H         1 BE5501      0.0000 
@<TRIPOS>BOND
     1    2    1 ar   
     2    6    1 ar   
     3   23    1 1    
     4    3    2 ar   
     5   53    2 1    
     6    4    3 ar   
     7   54    3 1    
     8    5    4 ar   
     9   55    4 1    
    10    6    5 ar   
    11   50    5 1    
    12   51    6 1    
    13    8    7 ar   
    14   12    7 ar   
    15   13    7 1    
    16    9    8 ar   
    17   52    8 1    
    18   10    9 ar   
    19   49    9 1    
    20   11   10 ar   
    21   56   10 1    
    22   12   11 ar   
    23   57   11 1    
    24   58   12 1    
    25   14   13 1    
    26   59   13 1    
    27   60   13 1    
    28   15   14 1    
    29   16   15 1    
    30   26   15 1    
    31   61   15 1    
    32   17   16 1    
    33   25   16 1    
    34   62   16 1    
    35   18   17 1    
    36   24   17 1    
    37   63   17 1    
    38   19   18 1    
    39   22   18 1    
    40   64   18 1    
    41   20   19 2    
    42   21   19 am   
    43   39   21 1    
    44   65   21 1    
    45   23   22 1    
    46   66   23 1    
    47   67   23 1    
    48   85   24 1    
    49   86   25 1    
    50   27   26 2    
    51   28   26 am   
    52   29   28 1    
    53   68   28 1    
    54   30   29 1    
    55   35   29 1    
    56   69   29 1    
    57   31   30 ar   
    58   32   30 ar   
    59   37   31 ar   
    60   38   31 1    
    61   33   32 ar   
    62   70   32 1    
    63   34   33 ar   
    64   71   33 1    
    65   37   34 ar   
    66   72   34 1    
    67   36   35 1    
    68   38   35 1    
    69   73   35 1    
    70   87   36 1    
    71   74   37 1    
    72   75   38 1    
    73   76   38 1    
    74   40   39 1    
    75   45   39 1    
    76   77   39 1    
    77   41   40 ar   
    78   42   40 ar   
    79   47   41 ar   
    80   48   41 1    
    81   43   42 ar   
    82   78   42 1    
    83   44   43 ar   
    84   79   43 1    
    85   47   44 ar   
    86   80   44 1    
    87   46   45 1    
    88   48   45 1    
    89   81   45 1    
    90   88   46 1    
    91   82   47 1    
    92   83   48 1    
    93   84   48 1    
@<TRIPOS>SUBSTRUCTURE
     1 BE5501      1 GROUP   
@<TRIPOS>SET

