#    Name: 4hdq_GNP_2_INTS_M
#    Modification time : Tue Mar 25 00:54:09 2014

@<TRIPOS>MOLECULE
4hdq_GNP_2_INTS_M
   62     0    15     0     0
SMALL
NO_CHARGES


@<TRIPOS>ATOM
      1 Zn          1.0910    5.7565   26.8360 Zn        4 ZIC7        0.0000 
      2 Zn          1.2060    5.8840   27.8630 Zn       14 ZIL7        0.0000 
      3 Zn          0.9760    5.6290   25.8090 Zn        9 ZIP7        0.0000 
      4 N           2.5740    6.3795   27.9995 N.am      2 SEC2        0.0000 
      5 N           1.2060    5.8840   27.8630 N.am     12 SEL2        0.0000 
      6 N           3.9420    6.8750   28.1360 N.am      7 SEP2        0.0000 
      7 NZ         -1.9375    5.6045   29.0915 N.4       3 LYC4        0.0000 
      8 NZ         -0.6800    5.5420   29.6030 N.4      13 LYL4        0.0000 
      9 NZ         -3.1950    5.6670   28.5800 N.4       8 LYP4        0.0000 
     10 N          -1.9375    5.6045   29.0915 N.am      2 SEC2        0.0000 
     11 N          -0.6800    5.5420   29.6030 N.am     12 SEL2        0.0000 
     12 N          -3.1950    5.6670   28.5800 N.am      7 SEP2        0.0000 
     13 Zn          0.2780    4.9295   25.8360 Zn        4 ZIC7        0.0000 
     14 Zn         -0.4200    4.2300   25.8630 Zn       14 ZIL7        0.0000 
     15 N          -1.0700    4.5150   24.4855 N.am      2 SEC2        0.0000 
     16 N          -0.4200    4.2300   25.8630 N.am     12 SEL2        0.0000 
     17 N          -1.7200    4.8000   23.1080 N.am      7 SEP2        0.0000 
     18 NZ         -2.8645    4.5385   27.8910 N.4       3 LYC4        0.0000 
     19 NZ         -2.5340    3.4100   27.2020 N.4      13 LYL4        0.0000 
     20 N          -3.1945    2.2135   26.5330 N.am      2 SEC2        0.0000 
     21 N          -2.5340    3.4100   27.2020 N.am     12 SEL2        0.0000 
     22 N          -3.8550    1.0170   25.8640 N.am      7 SEP2        0.0000 
     23 N          -3.1820    3.4705   25.8755 N.am      2 SEC2        0.0000 
     24 N          -3.8300    3.5310   24.5490 N.am      7 SEP2        0.0000 
     25 N          -2.8645    4.5385   27.8910 N.am      2 SEC2        0.0000 
     26 N          -2.3720    1.3630   26.1200 N.am      2 SEC2        0.0000 
     27 N          -0.8890    1.7090   26.3760 N.am     12 SEL2        0.0000 
     28 N          -0.8005    2.1715   22.6240 N.am      2 SEC2        0.0000 
     29 N          -0.5680    1.6850   23.8580 N.am     12 SEL2        0.0000 
     30 N          -1.0330    2.6580   21.3900 N.am      7 SEP2        0.0000 
     31 CA         -0.7630   -0.3150   28.0995 C.3       5 GLC5        0.0000 
     32 CA          0.0600   -0.9860   26.4070 C.3      15 GLL5        0.0000 
     33 CA         -1.5860    0.3560   29.7920 C.3      10 GLP5        0.0000 
     34 N          -1.7620   -3.5045   26.5245 N.am      2 SEC2        0.0000 
     35 N          -0.6110   -3.1460   25.6120 N.am     12 SEL2        0.0000 
     36 N          -2.9130   -3.8630   27.4370 N.am      7 SEP2        0.0000 
     37 O           1.8920   -2.7875   21.7565 O.2       1 ALC1        0.0000 
     38 O           1.3840   -3.4990   22.6670 O.2      11 ALL1        0.0000 
     39 O           2.4000   -2.0760   20.8460 O.2       6 ALP1        0.0000 
     40 CA         -2.2120   -3.5755   25.3850 C.3       5 GLC5        0.0000 
     41 CA         -0.4330   -3.6590   24.3180 C.3      15 GLL5        0.0000 
     42 CA         -3.9910   -3.4920   26.4520 C.3      10 GLP5        0.0000 
     43 N          -4.7245   -1.5460   22.7125 N.am      2 SEC2        0.0000 
     44 N          -3.2810   -2.1700   22.5060 N.am     12 SEL2        0.0000 
     45 N          -6.1680   -0.9220   22.9190 N.am      7 SEP2        0.0000 
     46 CA         -4.7430   -3.7985   23.7020 C.3       5 GLC5        0.0000 
     47 CA         -3.5020   -3.4700   22.3320 C.3      15 GLL5        0.0000 
     48 CA         -5.9840   -4.1270   25.0720 C.3      10 GLP5        0.0000 
     49 CA         -3.7440   -2.2880   20.6225 C.3       5 GLC5        0.0000 
     50 CA         -3.9860   -1.1060   18.9130 C.3      10 GLP5        0.0000 
     51 N          -5.7475   -3.1155   19.8655 N.am      2 SEC2        0.0000 
     52 N          -5.4720   -3.8390   21.0650 N.am     12 SEL2        0.0000 
     53 N          -6.0230   -2.3920   18.6660 N.am      7 SEP2        0.0000 
     54 O          -5.3815   -6.2955   21.2065 O.2       1 ALC1        0.0000 
     55 O          -4.3150   -5.6400   21.7200 O.2      11 ALL1        0.0000 
     56 O          -6.4480   -6.9510   20.6930 O.2       6 ALP1        0.0000 
     57 O          -4.7435   -7.1900   21.2240 O.2       1 ALC1        0.0000 
     58 O          -5.1720   -8.7400   20.7280 O.2       6 ALP1        0.0000 
     59 O          -4.1885   -8.1505   21.6040 O.2       1 ALC1        0.0000 
     60 O          -3.2050   -7.5610   22.4800 O.2      11 ALL1        0.0000 
     61 CA         -3.2085   -3.8520   24.7350 C.3       5 GLC5        0.0000 
     62 CA         -2.4260   -4.2120   23.0180 C.3      15 GLL5        0.0000 
@<TRIPOS>BOND
@<TRIPOS>SUBSTRUCTURE
     1 ALC1       37 GROUP        1 X    ALC  0     ROOT ALC X 1
     2 SEC2        4 GROUP        1 X    SEC  0     **** SEC X 2
     3 LYC4        7 GROUP        1 X    LYC  0     **** LYC X 4
     4 ZIC7        1 GROUP        1 X    ZIC  0     **** ZIC X 5
     5 GLC5       31 GROUP        1 X    GLC  0     **** GLC X 6
     6 ALP1       39 GROUP        1 Y    ALP  0     ROOT ALP Y 8
     7 SEP2        6 GROUP        1 Y    SEP  0     **** SEP Y 9
     8 LYP4        9 GROUP        1 Y    LYP  0     **** LYP Y 11
     9 ZIP7        3 GROUP        1 Y    ZIP  0     **** ZIP Y 12
    10 GLP5       33 GROUP        1 Y    GLP  0     **** GLP Y 13
    11 ALL1       38 GROUP        1 Z    ALL  0     ROOT ALL Z 15
    12 SEL2        5 GROUP        1 Z    SEL  0     **** SEL Z 16
    13 LYL4        8 GROUP        1 Z    LYL  0     **** LYL Z 18
    14 ZIL7        2 GROUP        1 Z    ZIL  0     **** ZIL Z 19
    15 GLL5       32 GROUP        1 Z    GLL  0     **** GLL Z 20
@<TRIPOS>SET

