#    Name: 4hdq_GNP_2_ligand
#    Modification time : Tue Mar 25 00:54:09 2014

@<TRIPOS>MOLECULE
4hdq_GNP_2_ligand
   44    46     1     0     0
SMALL
NO_CHARGES


@<TRIPOS>ATOM
      1 PG          0.4810    4.8940   28.8670 P.3       1 GNP201      0.0000 
      2 O1G         1.2060    5.8840   27.8630 O.co2     1 GNP201      0.0000 
      3 O2G        -0.6800    5.5420   29.6030 O.co2     1 GNP201      0.0000 
      4 O3G         1.6720    4.6750   29.9510 O.co2     1 GNP201      0.0000 
      5 N3B        -0.0490    3.3710   28.2430 N.4       1 GNP201      0.0000 
      6 PB         -1.1000    3.1940   26.8600 P.3       1 GNP201      0.0000 
      7 O1B        -0.4200    4.2300   25.8630 O.co2     1 GNP201      0.0000 
      8 O2B        -2.5340    3.4100   27.2020 O.co2     1 GNP201      0.0000 
      9 O3A        -0.8890    1.7090   26.3760 O.3       1 GNP201      0.0000 
     10 PA          0.1240    1.2800   25.1670 P.3       1 GNP201      0.0000 
     11 O1A        -0.5680    1.6850   23.8580 O.co2     1 GNP201      0.0000 
     12 O2A         1.5300    1.6830   25.5030 O.co2     1 GNP201      0.0000 
     13 O5'        -0.1200   -0.2690   25.1620 O.3       1 GNP201      0.0000 
     14 C5'         0.0600   -0.9860   26.4070 C.3       1 GNP201      0.0000 
     15 C4'         0.5180   -2.4330   26.1170 C.3       1 GNP201      0.0000 
     16 O4'        -0.6110   -3.1460   25.6120 O.3       1 GNP201      0.0000 
     17 C3'         1.5510   -2.6000   24.9980 C.3       1 GNP201      0.0000 
     18 O3'         2.3750   -3.7700   25.1480 O.3       1 GNP201      0.0000 
     19 C2'         0.7220   -2.8440   23.7580 C.3       1 GNP201      0.0000 
     20 O2'         1.3840   -3.4990   22.6670 O.3       1 GNP201      0.0000 
     21 C1'        -0.4330   -3.6590   24.3180 C.3       1 GNP201      0.0000 
     22 N9         -1.6490   -3.3400   23.5370 N.pl3     1 GNP201      0.0000 
     23 C8         -2.1450   -2.1080   23.2080 C.2       1 GNP201      0.0000 
     24 N7         -3.2810   -2.1700   22.5060 N.2       1 GNP201      0.0000 
     25 C5         -3.5020   -3.4700   22.3320 C.2       1 GNP201      0.0000 
     26 C6         -4.4850   -4.3030   21.6410 C.2       1 GNP201      0.0000 
     27 O6         -5.4720   -3.8390   21.0650 O.2       1 GNP201      0.0000 
     28 N1         -4.3150   -5.6400   21.7200 N.am      1 GNP201      0.0000 
     29 C2         -3.2970   -6.2130   22.3900 C.2       1 GNP201      0.0000 
     30 N2         -3.2050   -7.5610   22.4800 N.pl3     1 GNP201      0.0000 
     31 N3         -2.3520   -5.5260   23.0220 N.2       1 GNP201      0.0000 
     32 C4         -2.4260   -4.2120   23.0180 C.2       1 GNP201      0.0000 
     33 H          -0.8702   -1.0410   26.9768 H         1 GNP201      0.0000 
     34 H           0.8215   -0.5169   27.0339 H         1 GNP201      0.0000 
     35 H           0.8787   -2.8898   27.0020 H         1 GNP201      0.0000 
     36 H           2.0916   -1.7143   24.8713 H         1 GNP201      0.0000 
     37 H           0.2922   -1.8811   23.4697 H         1 GNP201      0.0000 
     38 H          -0.2004   -4.6637   24.2934 H         1 GNP201      0.0000 
     39 H          -1.6937   -1.2616   23.4722 H         1 GNP201      0.0000 
     40 H          -5.0186   -6.2688   21.2298 H         1 GNP201      0.0000 
     41 H          -3.9446   -8.0819   22.0539 H         1 GNP201      0.0000 
     42 H          -2.4056   -7.9161   22.9646 H         1 GNP201      0.0000 
     43 H           2.4255   -4.1699   24.2328 H         1 GNP201      0.0000 
     44 H           2.0707   -2.8446   22.3507 H         1 GNP201      0.0000 
@<TRIPOS>BOND
     1    2    1 ar   
     2    3    1 ar   
     3    4    1 ar   
     4    5    1 1    
     5    6    5 1    
     6    7    6 ar   
     7    8    6 ar   
     8    9    6 1    
     9   10    9 1    
    10   11   10 ar   
    11   12   10 ar   
    12   13   10 1    
    13   14   13 1    
    14   15   14 1    
    15   33   14 1    
    16   34   14 1    
    17   16   15 1    
    18   17   15 1    
    19   35   15 1    
    20   21   16 1    
    21   18   17 1    
    22   19   17 1    
    23   36   17 1    
    24   43   18 1    
    25   20   19 1    
    26   21   19 1    
    27   37   19 1    
    28   44   20 1    
    29   22   21 1    
    30   38   21 1    
    31   23   22 1    
    32   32   22 1    
    33   24   23 2    
    34   39   23 1    
    35   25   24 1    
    36   26   25 1    
    37   32   25 2    
    38   27   26 2    
    39   28   26 am   
    40   29   28 1    
    41   40   28 1    
    42   30   29 1    
    43   31   29 2    
    44   41   30 1    
    45   42   30 1    
    46   32   31 1    
@<TRIPOS>SUBSTRUCTURE
     1 GNP201      1 GROUP   
@<TRIPOS>SET

