#    Name: 4b1e_6T6_1_INTS_M
#    Modification time : Tue Mar 25 06:33:29 2014

@<TRIPOS>MOLECULE
4b1e_6T6_1_INTS_M
   42     0     6     0     0
SMALL
NO_CHARGES


@<TRIPOS>ATOM
      1 CA          4.0145    4.6825  -22.1535 C.3       2 GLC5        0.0000 
      2 CA          5.6000    3.1970  -21.8260 C.3       6 GLL5        0.0000 
      3 CA          2.4290    6.1680  -22.4810 C.3       4 GLP5        0.0000 
      4 CA          7.1225    4.0580  -22.2655 C.3       2 GLC5        0.0000 
      5 CA          8.6450    4.9190  -22.7050 C.3       4 GLP5        0.0000 
      6 CA          4.8540    1.7335  -23.1250 C.3       2 GLC5        0.0000 
      7 CA          4.1080    0.2700  -24.4240 C.3       4 GLP5        0.0000 
      8 CA          2.5325    1.7285  -18.4700 C.3       2 GLC5        0.0000 
      9 CA          4.0460    3.1380  -19.0260 C.3       6 GLL5        0.0000 
     10 CA          1.0190    0.3190  -17.9140 C.3       4 GLP5        0.0000 
     11 O           2.9925    2.7450  -20.8470 O.2       1 ALC1        0.0000 
     12 O           4.0690    2.4710  -20.1390 O.2       5 ALL1        0.0000 
     13 O           1.9160    3.0190  -21.5550 O.2       3 ALP1        0.0000 
     14 O           1.7875    3.2655  -19.0485 O.2       1 ALC1        0.0000 
     15 O           2.9210    3.4810  -18.3190 O.2       5 ALL1        0.0000 
     16 O           0.6540    3.0500  -19.7780 O.2       3 ALP1        0.0000 
     17 O           2.4185    3.2500  -19.9370 O.2       1 ALC1        0.0000 
     18 O           2.6505    3.8400  -16.9850 O.2       1 ALC1        0.0000 
     19 O           2.3800    4.1990  -15.6510 O.2       3 ALP1        0.0000 
     20 CA          3.7260    6.9720  -14.9595 C.3       2 GLC5        0.0000 
     21 CA          5.4640    6.1550  -15.9830 C.3       6 GLL5        0.0000 
     22 CA          1.9880    7.7890  -13.9360 C.3       4 GLP5        0.0000 
     23 CA          6.7520   -3.9860  -21.0570 C.3       2 GLC5        0.0000 
     24 CA          6.3390   -1.8680  -21.3220 C.3       6 GLL5        0.0000 
     25 CA          7.1650   -6.1040  -20.7920 C.3       4 GLP5        0.0000 
     26 CA          2.2050   -5.0515  -17.9950 C.3       2 GLC5        0.0000 
     27 CA          4.0600   -4.3470  -17.4510 C.3       6 GLL5        0.0000 
     28 CA          0.3500   -5.7560  -18.5390 C.3       4 GLP5        0.0000 
     29 CA          2.3380   -1.1745  -18.4575 C.3       2 GLC5        0.0000 
     30 CA          3.6570   -2.6680  -19.0010 C.3       6 GLL5        0.0000 
     31 CA          5.1470    0.4627  -22.8953 C.3       2 GLC5        0.0000 
     32 CA          5.7880    0.8530  -20.8260 C.3       6 GLL5        0.0000 
     33 CA          5.3510   -0.5535  -23.0830 C.3       2 GLC5        0.0000 
     34 CA          6.8490   -0.8860  -22.1620 C.3       6 GLL5        0.0000 
     35 CA          3.6130   -1.1473  -21.0682 C.3       2 GLC5        0.0000 
     36 CA          5.5370   -1.5000  -20.2290 C.3       6 GLL5        0.0000 
     37 CA          1.8170   -1.4760  -22.0280 C.3       4 GLP5        0.0000 
     38 CA          3.0797   -2.0370  -20.5832 C.3       2 GLC5        0.0000 
     39 CA          4.0592   -6.2050  -17.9025 C.3       2 GLC5        0.0000 
     40 CA          5.4350   -4.2950  -17.6750 C.3       6 GLL5        0.0000 
     41 CA          3.3710   -8.0890  -18.2420 C.3       4 GLP5        0.0000 
     42 CA          6.3115   -4.8621  -19.5472 C.3       2 GLC5        0.0000 
@<TRIPOS>BOND
@<TRIPOS>SUBSTRUCTURE
     1 ALC1       11 GROUP        1 X    ALC  0     ROOT ALC X 1
     2 GLC5        1 GROUP        1 X    GLC  0     **** GLC X 6
     3 ALP1       13 GROUP        1 Y    ALP  0     ROOT ALP Y 8
     4 GLP5        3 GROUP        1 Y    GLP  0     **** GLP Y 13
     5 ALL1       12 GROUP        1 Z    ALL  0     ROOT ALL Z 15
     6 GLL5        2 GROUP        1 Z    GLL  0     **** GLL Z 20
@<TRIPOS>SET

