#    Name: 4b1e_6T6_1_ligand
#    Modification time : Tue Mar 25 06:33:29 2014

@<TRIPOS>MOLECULE
4b1e_6T6_1_ligand
   44    47     1     0     0
SMALL
NO_CHARGES


@<TRIPOS>ATOM
      1 C1          5.6000    3.1970  -21.8260 C.3       1 6T61503     0.0000 
      2 C2          5.4630    2.3230  -20.5640 C.3       1 6T61503     0.0000 
      3 N3          6.2640    2.9250  -19.4760 N.4       1 6T61503     0.0000 
      4 C4          5.4320    3.4330  -18.6040 C.2       1 6T61503     0.0000 
      5 C5          4.0460    3.1380  -19.0260 C.2       1 6T61503     0.0000 
      6 N6          4.0690    2.4710  -20.1390 N.pl3     1 6T61503     0.0000 
      7 N7          2.9210    3.4810  -18.3190 N.pl3     1 6T61503     0.0000 
      8 C8          5.7420    4.1680  -17.3490 C.ar      1 6T61503     0.0000 
      9 C9          5.2160    5.4640  -17.1650 C.ar      1 6T61503     0.0000 
     10 C10         5.4640    6.1550  -15.9830 C.ar      1 6T61503     0.0000 
     11 C11         6.2350    5.5600  -14.9800 C.ar      1 6T61503     0.0000 
     12 C12         6.7590    4.2770  -15.1550 C.ar      1 6T61503     0.0000 
     13 C13         6.5070    3.5730  -16.3300 C.ar      1 6T61503     0.0000 
     14 C14         5.7880    0.8530  -20.8260 C.ar      1 6T61503     0.0000 
     15 C15         6.5840    0.4580  -21.9070 C.ar      1 6T61503     0.0000 
     16 C16         6.8490   -0.8860  -22.1620 C.ar      1 6T61503     0.0000 
     17 C17         6.3390   -1.8680  -21.3220 C.ar      1 6T61503     0.0000 
     18 C18         5.5370   -1.5000  -20.2290 C.ar      1 6T61503     0.0000 
     19 C19         5.2810   -0.1370  -19.9880 C.ar      1 6T61503     0.0000 
     20 C20         5.0280   -2.5280  -19.2760 C.ar      1 6T61503     0.0000 
     21 C21         5.9340   -3.3630  -18.5840 C.ar      1 6T61503     0.0000 
     22 C22         5.4350   -4.2950  -17.6750 C.ar      1 6T61503     0.0000 
     23 C23         4.0600   -4.3470  -17.4510 C.ar      1 6T61503     0.0000 
     24 N24         3.2290   -3.5430  -18.0970 N.ar      1 6T61503     0.0000 
     25 C25         3.6570   -2.6680  -19.0010 C.ar      1 6T61503     0.0000 
     26 H           3.3588    2.1011  -20.6636 H         1 6T61503     0.0000 
     27 H           3.0149    3.4978  -17.3236 H         1 6T61503     0.0000 
     28 H           2.1056    3.6842  -18.8610 H         1 6T61503     0.0000 
     29 H           4.6518    5.8894  -17.9076 H         1 6T61503     0.0000 
     30 H           5.0840    7.0972  -15.8453 H         1 6T61503     0.0000 
     31 H           6.4178    6.0720  -14.1055 H         1 6T61503     0.0000 
     32 H           7.3315    3.8532  -14.4140 H         1 6T61503     0.0000 
     33 H           6.8743    2.6263  -16.4571 H         1 6T61503     0.0000 
     34 H           6.9842    1.1832  -22.5303 H         1 6T61503     0.0000 
     35 H           7.4232   -1.1495  -22.9737 H         1 6T61503     0.0000 
     36 H           6.5426   -2.8567  -21.4928 H         1 6T61503     0.0000 
     37 H           4.7046    0.1276  -19.1712 H         1 6T61503     0.0000 
     38 H           6.9333   -3.2787  -18.7525 H         1 6T61503     0.0000 
     39 H           6.0646   -4.9273  -17.1828 H         1 6T61503     0.0000 
     40 H           3.7080   -5.0446  -16.7536 H         1 6T61503     0.0000 
     41 H           2.9941   -2.0623  -19.5308 H         1 6T61503     0.0000 
     42 H           6.5501    3.2627  -22.1309 H         1 6T61503     0.0000 
     43 H           5.0713    2.8298  -22.5913 H         1 6T61503     0.0000 
     44 H           5.2777    4.1304  -21.6681 H         1 6T61503     0.0000 
@<TRIPOS>BOND
     1    2    1 1    
     2   42    1 1    
     3   43    1 1    
     4   44    1 1    
     5    3    2 1    
     6    6    2 1    
     7   14    2 1    
     8    4    3 1    
     9    5    4 2    
    10    8    4 1    
    11    6    5 1    
    12    7    5 1    
    13   26    6 1    
    14   27    7 1    
    15   28    7 1    
    16    9    8 ar   
    17   13    8 ar   
    18   10    9 ar   
    19   29    9 1    
    20   11   10 ar   
    21   30   10 1    
    22   12   11 ar   
    23   31   11 1    
    24   13   12 ar   
    25   32   12 1    
    26   33   13 1    
    27   15   14 ar   
    28   19   14 ar   
    29   16   15 ar   
    30   34   15 1    
    31   17   16 ar   
    32   35   16 1    
    33   18   17 ar   
    34   36   17 1    
    35   19   18 ar   
    36   20   18 1    
    37   37   19 1    
    38   21   20 ar   
    39   25   20 ar   
    40   22   21 ar   
    41   38   21 1    
    42   23   22 ar   
    43   39   22 1    
    44   24   23 ar   
    45   40   23 1    
    46   25   24 ar   
    47   41   25 1    
@<TRIPOS>SUBSTRUCTURE
     1 6T61503     1 GROUP   
@<TRIPOS>SET

