#    Name: 1zxb_TN3_2_INTS_M
#    Modification time : Mon Mar 24 17:54:46 2014

@<TRIPOS>MOLECULE
1zxb_TN3_2_INTS_M
   49     0     9     0     0
SMALL
NO_CHARGES


@<TRIPOS>ATOM
      1 CA         11.8535  101.0815   29.2075 C.3       3 GLC5        0.0000 
      2 CA         10.3310  101.2310   28.4900 C.3       9 GLL5        0.0000 
      3 CA         13.3760  100.9320   29.9250 C.3       6 GLP5        0.0000 
      4 CA          9.0640  104.0720   26.1550 C.3       3 GLC5        0.0000 
      5 CA          8.7680  101.9590   26.3360 C.3       9 GLL5        0.0000 
      6 CA          9.3600  106.1850   25.9740 C.3       6 GLP5        0.0000 
      7 CA          6.3195  102.7965   21.4070 C.3       3 GLC5        0.0000 
      8 CA          5.6970  103.6510   22.9030 C.3       9 GLL5        0.0000 
      9 CA          6.9420  101.9420   19.9110 C.3       6 GLP5        0.0000 
     10 N          14.0260  100.0315   26.6070 N.am      2 SEC2        0.0000 
     11 N          13.8390   99.4050   25.5490 N.am      8 SEL2        0.0000 
     12 N          14.2130  100.6580   27.6650 N.am      5 SEP2        0.0000 
     13 O          14.4875   99.7365   24.5585 O.2       1 ALC1        0.0000 
     14 O          13.8390   99.4050   25.5490 O.2       7 ALL1        0.0000 
     15 O          15.1360  100.0680   23.5680 O.2       4 ALP1        0.0000 
     16 CA         15.7025   97.3455   24.7750 C.3       3 GLC5        0.0000 
     17 CA         13.6620   97.0710   24.9850 C.3       9 GLL5        0.0000 
     18 CA         17.7430   97.6200   24.5650 C.3       6 GLP5        0.0000 
     19 CA         11.0350   93.8190   25.0840 C.3       3 GLC5        0.0000 
     20 CA         11.5890   95.9140   25.4820 C.3       9 GLL5        0.0000 
     21 CA         10.4810   91.7240   24.6860 C.3       6 GLP5        0.0000 
     22 CA         14.9415   94.3235   23.1930 C.3       3 GLC5        0.0000 
     23 CA         13.4240   94.4520   24.0720 C.3       9 GLL5        0.0000 
     24 CA         16.4590   94.1950   22.3140 C.3       6 GLP5        0.0000 
     25 CA         12.6570   94.3810   22.1750 C.3       3 GLC5        0.0000 
     26 CA         11.8900   94.3100   20.2780 C.3       6 GLP5        0.0000 
     27 CA         11.9525   93.0880   24.3790 C.3       3 GLC5        0.0000 
     28 CA         14.1030   94.7945   25.8135 C.3       3 GLC5        0.0000 
     29 CA         14.7820   95.1370   27.5550 C.3       6 GLP5        0.0000 
     30 CA         11.7933  100.3180   27.5628 C.3       3 GLC5        0.0000 
     31 CA          9.7620  101.1150   26.7960 C.3       9 GLL5        0.0000 
     32 CA         13.5450   99.9990   28.7430 C.3       6 GLP5        0.0000 
     33 CA          7.7413  100.5960   26.9712 C.3       3 GLC5        0.0000 
     34 CA          6.9390   99.2880   28.2650 C.3       6 GLP5        0.0000 
     35 CA          8.9217   99.0088   23.2355 C.3       3 GLC5        0.0000 
     36 CA          8.8790  100.8890   24.1750 C.3       9 GLL5        0.0000 
     37 CA          8.4610   97.5480   22.0580 C.3       6 GLP5        0.0000 
     38 CA         11.2041  102.2193   26.9301 C.3       3 GLC5        0.0000 
     39 CA         10.3210  100.1590   25.9690 C.3       9 GLL5        0.0000 
     40 CA         12.5440  103.5760   27.3810 C.3       6 GLP5        0.0000 
     41 CA          8.5614   99.9770   27.5355 C.3       3 GLC5        0.0000 
     42 CA         10.5542   97.1927   24.1855 C.3       3 GLC5        0.0000 
     43 CA         11.8260   98.2340   26.0080 C.3       9 GLL5        0.0000 
     44 CA          9.6670   96.7290   22.3600 C.3       6 GLP5        0.0000 
     45 CA         13.0088   99.1188   27.2522 C.3       3 GLC5        0.0000 
     46 CA          9.8335   95.4522   26.0365 C.3       3 GLC5        0.0000 
     47 CA         11.0570   97.0790   26.0140 C.3       9 GLL5        0.0000 
     48 CA          8.3440   94.4080   26.3250 C.3       6 GLP5        0.0000 
     49 CA         10.9527   96.3200   23.7937 C.3       3 GLC5        0.0000 
@<TRIPOS>BOND
@<TRIPOS>SUBSTRUCTURE
     1 ALC1       13 GROUP        1 X    ALC  0     ROOT ALC X 1
     2 SEC2       10 GROUP        1 X    SEC  0     **** SEC X 2
     3 GLC5        1 GROUP        1 X    GLC  0     **** GLC X 6
     4 ALP1       15 GROUP        1 Y    ALP  0     ROOT ALP Y 8
     5 SEP2       12 GROUP        1 Y    SEP  0     **** SEP Y 9
     6 GLP5        3 GROUP        1 Y    GLP  0     **** GLP Y 13
     7 ALL1       14 GROUP        1 Z    ALL  0     ROOT ALL Z 15
     8 SEL2       11 GROUP        1 Z    SEL  0     **** SEL Z 16
     9 GLL5        2 GROUP        1 Z    GLL  0     **** GLL Z 20
@<TRIPOS>SET

