#    Name: 1zxb_TN3_2_ligand
#    Modification time : Mon Mar 24 17:54:46 2014

@<TRIPOS>MOLECULE
1zxb_TN3_2_ligand
   31    32     1     0     0
SMALL
NO_CHARGES


@<TRIPOS>ATOM
      1 CL21       10.3310  101.2310   28.4900 Cl        1 TN3501      0.0000 
      2 C14         9.7620  101.1150   26.7960 C.ar      1 TN3501      0.0000 
      3 C13         8.7680  101.9590   26.3360 C.ar      1 TN3501      0.0000 
      4 C10         8.3190  101.8490   25.0190 C.ar      1 TN3501      0.0000 
      5 C11         7.2440  102.7900   24.5680 C.2       1 TN3501      0.0000 
      6 O13         6.8050  103.6080   25.3510 O.2       1 TN3501      0.0000 
      7 N20         6.7470  102.7620   23.3660 N.am      1 TN3501      0.0000 
      8 C12         5.6970  103.6510   22.9030 C.3       1 TN3501      0.0000 
      9 C9          8.8790  100.8890   24.1750 C.ar      1 TN3501      0.0000 
     10 C8          9.8860  100.0500   24.6510 C.ar      1 TN3501      0.0000 
     11 C7         10.3210  100.1590   25.9690 C.ar      1 TN3501      0.0000 
     12 O9         11.3100   99.3830   26.5240 O.3       1 TN3501      0.0000 
     13 C5         11.8260   98.2340   26.0080 C.ar      1 TN3501      0.0000 
     14 C6         13.1190   98.2430   25.5150 C.ar      1 TN3501      0.0000 
     15 O8         13.8390   99.4050   25.5490 O.3       1 TN3501      0.0000 
     16 C1         13.6620   97.0710   24.9850 C.ar      1 TN3501      0.0000 
     17 C4         11.0570   97.0790   26.0140 C.ar      1 TN3501      0.0000 
     18 C3         11.5890   95.9140   25.4820 C.ar      1 TN3501      0.0000 
     19 C2         12.8880   95.9080   24.9730 C.ar      1 TN3501      0.0000 
     20 CL12       13.4240   94.4520   24.0720 Cl        1 TN3501      0.0000 
     21 H           8.3574  102.6669   26.9572 H         1 TN3501      0.0000 
     22 H           7.0882  102.0706   22.6351 H         1 TN3501      0.0000 
     23 H           8.5505  100.8012   23.2075 H         1 TN3501      0.0000 
     24 H          10.3073   99.3500   24.0268 H         1 TN3501      0.0000 
     25 H          14.6112   97.0636   24.6114 H         1 TN3501      0.0000 
     26 H          10.1122   97.0871   26.4049 H         1 TN3501      0.0000 
     27 H          11.0286   95.0519   25.4609 H         1 TN3501      0.0000 
     28 H           5.9713  104.6110   22.9598 H         1 TN3501      0.0000 
     29 H           5.4522  103.4720   21.9501 H         1 TN3501      0.0000 
     30 H           4.8616  103.5524   23.4437 H         1 TN3501      0.0000 
     31 H          14.5085   99.3162   24.8116 H         1 TN3501      0.0000 
@<TRIPOS>BOND
     1    2    1 1    
     2    3    2 ar   
     3   11    2 ar   
     4    4    3 ar   
     5   21    3 1    
     6    5    4 1    
     7    9    4 ar   
     8    6    5 2    
     9    7    5 am   
    10    8    7 1    
    11   22    7 1    
    12   28    8 1    
    13   29    8 1    
    14   30    8 1    
    15   10    9 ar   
    16   23    9 1    
    17   11   10 ar   
    18   24   10 1    
    19   12   11 1    
    20   13   12 1    
    21   14   13 ar   
    22   17   13 ar   
    23   15   14 1    
    24   16   14 ar   
    25   31   15 1    
    26   19   16 ar   
    27   25   16 1    
    28   18   17 ar   
    29   26   17 1    
    30   19   18 ar   
    31   27   18 1    
    32   20   19 1    
@<TRIPOS>SUBSTRUCTURE
     1 TN3501      1 GROUP   
@<TRIPOS>SET

