#    Name: 1sjw_NGV_1_INTS_M
#    Modification time : Tue Mar 25 02:28:54 2014

@<TRIPOS>MOLECULE
1sjw_NGV_1_INTS_M
   45     0     6     0     0
SMALL
NO_CHARGES


@<TRIPOS>ATOM
      1 N           9.2045    2.0590   11.3180 N.am      1 SEC2        0.0000 
      2 N           9.5710    1.6690   12.4630 N.am      5 SEL2        0.0000 
      3 N           8.8380    2.4490   10.1730 N.am      3 SEP2        0.0000 
      4 CA         13.0945    4.2810   14.2095 C.3       2 GLC5        0.0000 
      5 CA         11.6100    3.5300   12.8160 C.3       6 GLL5        0.0000 
      6 CA         14.5790    5.0320   15.6030 C.3       4 GLP5        0.0000 
      7 CA         13.0910    2.3665   13.5205 C.3       2 GLC5        0.0000 
      8 CA         14.5720    1.2030   14.2250 C.3       4 GLP5        0.0000 
      9 CA         12.4050    5.1445   12.0120 C.3       2 GLC5        0.0000 
     10 CA         13.2000    6.7590   11.2080 C.3       4 GLP5        0.0000 
     11 CA         11.6290    1.9625   11.2220 C.3       2 GLC5        0.0000 
     12 CA         11.6480    0.3950    9.6280 C.3       4 GLP5        0.0000 
     13 CA         11.1445    4.8965   16.3810 C.3       2 GLC5        0.0000 
     14 CA          9.5840    3.6880   16.1120 C.3       6 GLL5        0.0000 
     15 CA         12.7050    6.1050   16.6500 C.3       4 GLP5        0.0000 
     16 CA          5.2275   -7.2905   14.4165 C.3       2 GLC5        0.0000 
     17 CA          5.3890   -5.3120   13.3740 C.3       6 GLL5        0.0000 
     18 CA          5.0660   -9.2690   15.4590 C.3       4 GLP5        0.0000 
     19 CA         11.0865    2.1587   15.9186 C.3       2 GLC5        0.0000 
     20 CA         12.9360    1.4820   16.0980 C.3       4 GLP5        0.0000 
     21 CA          9.6480    2.4770   17.9968 C.3       2 GLC5        0.0000 
     22 CA          8.8840    2.3600   15.9560 C.3       6 GLL5        0.0000 
     23 CA         10.5850    2.4940   19.4430 C.3       4 GLP5        0.0000 
     24 CA          9.4870    0.1488   16.5989 C.3       2 GLC5        0.0000 
     25 CA          8.1880    1.8960   17.0670 C.3       6 GLL5        0.0000 
     26 CA         10.4350   -1.6420   16.9810 C.3       4 GLP5        0.0000 
     27 CA          6.5300    0.5785   13.7652 C.3       2 GLC5        0.0000 
     28 CA          7.5210   -0.0620   15.8750 C.3       6 GLL5        0.0000 
     29 CA          5.1850    1.0050   12.2180 C.3       4 GLP5        0.0000 
     30 CA          6.2483   -0.2921   13.1757 C.3       2 GLC5        0.0000 
     31 CA          8.1900   -0.4470   13.5970 C.3       6 GLL5        0.0000 
     32 CA          7.7852   -5.6540   12.2425 C.3       2 GLC5        0.0000 
     33 CA          6.7750   -3.6170   12.3290 C.3       6 GLL5        0.0000 
     34 CA          8.8020   -7.3190   12.7420 C.3       4 GLP5        0.0000 
     35 CA          4.8142   -4.1167    9.9692 C.3       2 GLC5        0.0000 
     36 CA          6.7620   -4.3610   11.1570 C.3       6 GLL5        0.0000 
     37 CA          3.2140   -3.2730    8.8040 C.3       4 GLP5        0.0000 
     38 CA          7.3613   -5.1542    9.4992 C.3       2 GLC5        0.0000 
     39 CA          6.0670   -5.5600   11.1120 C.3       6 GLL5        0.0000 
     40 CA          8.3080   -5.3480    7.8640 C.3       4 GLP5        0.0000 
     41 CA          7.2650   -6.5648   12.2005 C.3       2 GLC5        0.0000 
     42 CA          5.2230   -7.5717   10.6730 C.3       2 GLC5        0.0000 
     43 CA          4.7180   -9.3330    9.6870 C.3       4 GLP5        0.0000 
     44 CA          7.2197   -5.5300   14.2323 C.3       2 GLC5        0.0000 
     45 CA          8.7030   -6.3530   15.0550 C.3       4 GLP5        0.0000 
@<TRIPOS>BOND
@<TRIPOS>SUBSTRUCTURE
     1 SEC2        1 GROUP        1 X    SEC  0     ROOT SEC X 2
     2 GLC5        4 GROUP        1 X    GLC  0     **** GLC X 6
     3 SEP2        3 GROUP        1 Y    SEP  0     ROOT SEP Y 9
     4 GLP5        6 GROUP        1 Y    GLP  0     **** GLP Y 13
     5 SEL2        2 GROUP        1 Z    SEL  0     ROOT SEL Z 16
     6 GLL5        5 GROUP        1 Z    GLL  0     **** GLL Z 20
@<TRIPOS>SET

