#    Name: 1sjw_NGV_1_ligand
#    Modification time : Tue Mar 25 02:28:54 2014

@<TRIPOS>MOLECULE
1sjw_NGV_1_ligand
   42    45     1     0     0
SMALL
NO_CHARGES


@<TRIPOS>ATOM
      1 O17         9.5710    1.6690   12.4630 O.2       1 NGV333      0.0000 
      2 C14         9.6970    2.0820   13.6000 C.2       1 NGV333      0.0000 
      3 O16        10.7930    2.9880   13.8560 O.3       1 NGV333      0.0000 
      4 C15        11.6100    3.5300   12.8160 C.3       1 NGV333      0.0000 
      5 C10         8.8960    1.6060   14.7770 C.2       1 NGV333      0.0000 
      6 C9          8.8840    2.3600   15.9560 C.2       1 NGV333      0.0000 
      7 C13         9.5840    3.6880   16.1120 C.3       1 NGV333      0.0000 
      8 C8          8.1880    1.8960   17.0670 C.3       1 NGV333      0.0000 
      9 C19         8.2290    0.3660   14.7500 C.ar      1 NGV333      0.0000 
     10 C20         7.5210   -0.0620   15.8750 C.ar      1 NGV333      0.0000 
     11 C7          7.5160    0.6870   17.0480 C.2       1 NGV333      0.0000 
     12 O22         6.8950    0.3200   18.0890 O.2       1 NGV333      0.0000 
     13 C11         8.1900   -0.4470   13.5970 C.ar      1 NGV333      0.0000 
     14 C18         7.4780   -1.6560   13.5670 C.ar      1 NGV333      0.0000 
     15 C17         6.7890   -2.1270   14.6850 C.ar      1 NGV333      0.0000 
     16 C5          6.1150   -3.3570   14.6320 C.2       1 NGV333      0.0000 
     17 O20         5.5030   -3.7640   15.6580 O.2       1 NGV333      0.0000 
     18 C6          6.8070   -1.3550   15.8440 C.ar      1 NGV333      0.0000 
     19 O21         6.1710   -1.7170   16.9570 O.3       1 NGV333      0.0000 
     20 C12         7.4620   -2.4090   12.3950 C.2       1 NGV333      0.0000 
     21 O18         8.1230   -1.9440   11.3440 O.2       1 NGV333      0.0000 
     22 C21         6.7750   -3.6170   12.3290 C.ar      1 NGV333      0.0000 
     23 C1          6.7620   -4.3610   11.1570 C.ar      1 NGV333      0.0000 
     24 C2          6.0670   -5.5600   11.1120 C.ar      1 NGV333      0.0000 
     25 C3          5.3890   -6.0610   12.2060 C.ar      1 NGV333      0.0000 
     26 C16         6.0840   -4.1020   13.4450 C.ar      1 NGV333      0.0000 
     27 C4          5.3890   -5.3120   13.3740 C.ar      1 NGV333      0.0000 
     28 O19         4.7270   -5.7750   14.4230 O.3       1 NGV333      0.0000 
     29 H           7.4474    2.7295   17.4118 H         1 NGV333      0.0000 
     30 H           8.9092    1.9079   17.9845 H         1 NGV333      0.0000 
     31 H           8.7024   -0.1397   12.7508 H         1 NGV333      0.0000 
     32 H           7.2652   -4.0241   10.3272 H         1 NGV333      0.0000 
     33 H           6.0572   -6.1024   10.2171 H         1 NGV333      0.0000 
     34 H           4.9027   -6.9532   12.1598 H         1 NGV333      0.0000 
     35 H          12.3189    4.1354   13.1780 H         1 NGV333      0.0000 
     36 H          12.0743    2.8127   12.2965 H         1 NGV333      0.0000 
     37 H          11.0737    4.0645   12.1628 H         1 NGV333      0.0000 
     38 H          10.5697    3.6080   15.9636 H         1 NGV333      0.0000 
     39 H           9.2436    4.3660   15.4605 H         1 NGV333      0.0000 
     40 H           9.4554    4.0704   17.0270 H         1 NGV333      0.0000 
     41 H           5.7631   -2.6050   16.7447 H         1 NGV333      0.0000 
     42 H           4.4462   -4.9610   14.9316 H         1 NGV333      0.0000 
@<TRIPOS>BOND
     1    2    1 2    
     2    3    2 1    
     3    5    2 1    
     4    4    3 1    
     5   35    4 1    
     6   36    4 1    
     7   37    4 1    
     8    6    5 2    
     9    9    5 1    
    10    7    6 1    
    11    8    6 1    
    12   38    7 1    
    13   39    7 1    
    14   40    7 1    
    15   11    8 1    
    16   29    8 1    
    17   30    8 1    
    18   10    9 ar   
    19   13    9 ar   
    20   11   10 1    
    21   18   10 ar   
    22   12   11 2    
    23   14   13 ar   
    24   31   13 1    
    25   15   14 ar   
    26   20   14 1    
    27   16   15 1    
    28   18   15 ar   
    29   17   16 2    
    30   26   16 1    
    31   19   18 1    
    32   41   19 1    
    33   21   20 2    
    34   22   20 1    
    35   23   22 ar   
    36   26   22 ar   
    37   24   23 ar   
    38   32   23 1    
    39   25   24 ar   
    40   33   24 1    
    41   27   25 ar   
    42   34   25 1    
    43   27   26 ar   
    44   28   27 1    
    45   42   28 1    
@<TRIPOS>SUBSTRUCTURE
     1 NGV333      1 GROUP   
@<TRIPOS>SET

