#    Name: 3llk_FAD_3_INTS_M
#    Modification time : Mon Mar 24 21:47:40 2014

@<TRIPOS>MOLECULE
3llk_FAD_3_INTS_M
  100     0    12     0     0
SMALL
NO_CHARGES


@<TRIPOS>ATOM
      1 NZ         -1.8315   28.7000   49.5185 N.4       3 LYC4        0.0000 
      2 NZ         -0.4120   29.5480   48.4590 N.4      11 LYL4        0.0000 
      3 NZ         -3.2510   27.8520   50.5780 N.4       7 LYP4        0.0000 
      4 N           0.0605   30.8390   48.3445 N.am      2 SEC2        0.0000 
      5 N          -0.4120   29.5480   48.4590 N.am     10 SEL2        0.0000 
      6 N           0.5330   32.1300   48.2300 N.am      6 SEP2        0.0000 
      7 CA          1.7985   29.9135   45.0915 C.3       4 GLC5        0.0000 
      8 CA          2.4570   28.3680   46.2610 C.3      12 GLL5        0.0000 
      9 CA          1.1400   31.4590   43.9220 C.3       8 GLP5        0.0000 
     10 N           2.3365   32.2675   51.2595 N.am      2 SEC2        0.0000 
     11 N           3.4860   32.0350   50.2890 N.am     10 SEL2        0.0000 
     12 N           1.1870   32.5000   52.2300 N.am      6 SEP2        0.0000 
     13 CA          4.5540   36.4455   49.0385 C.3       4 GLC5        0.0000 
     14 CA          4.4060   34.2610   49.5130 C.3      12 GLL5        0.0000 
     15 CA          4.7020   38.6300   48.5640 C.3       8 GLP5        0.0000 
     16 O           3.5595   36.4835   50.4015 O.2       1 ALC1        0.0000 
     17 O           3.8330   35.0440   50.4360 O.2       9 ALL1        0.0000 
     18 O           3.2860   37.9230   50.3670 O.2       5 ALP1        0.0000 
     19 O           3.3890   34.8425   52.1010 O.2       1 ALC1        0.0000 
     20 O           2.9450   34.6410   53.7660 O.2       5 ALP1        0.0000 
     21 CA          5.2120   34.2170   46.1860 C.3       4 GLC5        0.0000 
     22 CA          5.9770   34.2040   47.6830 C.3      12 GLL5        0.0000 
     23 CA          4.4470   34.2300   44.6890 C.3       8 GLP5        0.0000 
     24 CA          4.6855   33.2100   46.6255 C.3       4 GLC5        0.0000 
     25 CA          4.9240   32.1900   48.5620 C.3      12 GLL5        0.0000 
     26 N         -10.2150   34.6995   48.8675 N.am      2 SEC2        0.0000 
     27 N          -9.7470   33.8230   48.1750 N.am     10 SEL2        0.0000 
     28 N         -10.6830   35.5760   49.5600 N.am      6 SEP2        0.0000 
     29 CA         -5.7000   33.6445   47.5255 C.3       4 GLC5        0.0000 
     30 CA         -6.4910   33.5480   45.4720 C.3      12 GLL5        0.0000 
     31 CA         -4.9090   33.7410   49.5790 C.3       8 GLP5        0.0000 
     32 CA         -3.3375   35.3500   44.5785 C.3       4 GLC5        0.0000 
     33 CA         -4.6940   35.8930   43.0960 C.3      12 GLL5        0.0000 
     34 CA         -1.9810   34.8070   46.0610 C.3       8 GLP5        0.0000 
     35 CA         -4.8840   36.4215   41.2645 C.3       4 GLC5        0.0000 
     36 CA         -5.0740   36.9500   39.4330 C.3       8 GLP5        0.0000 
     37 CA         -4.3715   37.3140   43.4430 C.3       4 GLC5        0.0000 
     38 CA         -4.0490   38.7350   43.7900 C.3       8 GLP5        0.0000 
     39 CA         -3.3445   32.4215   40.5820 C.3       4 GLC5        0.0000 
     40 CA         -3.1980   33.0530   42.7010 C.3      12 GLL5        0.0000 
     41 CA         -3.4910   31.7900   38.4630 C.3       8 GLP5        0.0000 
     42 CA         -2.3345   33.3130   44.1630 C.3       4 GLC5        0.0000 
     43 CA         -1.4710   33.5730   45.6250 C.3       8 GLP5        0.0000 
     44 CA         -2.4125   34.0675   41.0480 C.3       4 GLC5        0.0000 
     45 CA         -1.6270   35.0820   39.3950 C.3       8 GLP5        0.0000 
     46 CA         -5.0835   32.4220   42.0315 C.3       4 GLC5        0.0000 
     47 CA         -6.9690   31.7910   41.3620 C.3       8 GLP5        0.0000 
     48 CA         -5.1175   28.5900   44.5720 C.3       4 GLC5        0.0000 
     49 CA         -5.7600   29.9390   46.1350 C.3      12 GLL5        0.0000 
     50 CA         -4.4750   27.2410   43.0090 C.3       8 GLP5        0.0000 
     51 CA         -7.4420   30.5305   45.2980 C.3       4 GLC5        0.0000 
     52 CA         -9.1240   31.1220   44.4610 C.3       8 GLP5        0.0000 
     53 N          -2.9785   31.6595   46.5945 N.am      2 SEC2        0.0000 
     54 N          -3.9910   31.0140   47.3980 N.am     10 SEL2        0.0000 
     55 N          -1.9660   32.3050   45.7910 N.am      6 SEP2        0.0000 
     56 N          -4.0895   27.4830   49.5015 N.am      2 SEC2        0.0000 
     57 N          -4.9280   27.1140   48.4250 N.am     10 SEL2        0.0000 
     58 N          -3.2510   27.8520   50.5780 N.am      6 SEP2        0.0000 
     59 CA         -3.0125   24.4460   46.3300 C.3       4 GLC5        0.0000 
     60 CA         -2.9960   26.2370   47.2810 C.3      12 GLL5        0.0000 
     61 CA         -3.0290   22.6550   45.3790 C.3       8 GLP5        0.0000 
     62 CA         -2.5625   26.7720   49.3215 C.3       4 GLC5        0.0000 
     63 CA         -2.1290   27.3070   51.3620 C.3       8 GLP5        0.0000 
     64 N          -2.7190   27.1905   49.5015 N.am      2 SEC2        0.0000 
     65 N          -2.1870   26.5290   48.4250 N.am     10 SEL2        0.0000 
     66 NZ         -1.9995   26.7800   50.3415 N.4       3 LYC4        0.0000 
     67 NZ         -0.7480   25.7080   50.1050 N.4      11 LYL4        0.0000 
     68 NZ          0.8990   24.0245   47.8120 N.4       3 LYC4        0.0000 
     69 NZ         -0.4150   24.8270   47.7970 N.4      11 LYL4        0.0000 
     70 NZ          1.9490   21.9440   47.5980 N.4       7 LYP4        0.0000 
     71 N           0.8990   24.0245   47.8120 N.am      2 SEC2        0.0000 
     72 N          -0.4150   24.8270   47.7970 N.am     10 SEL2        0.0000 
     73 N           2.2130   23.2220   47.8270 N.am      6 SEP2        0.0000 
     74 CA          2.5745   26.6782   45.5110 C.3       4 GLC5        0.0000 
     75 CA          2.0140   25.0480   44.4400 C.3       8 GLP5        0.0000 
     76 CA          4.1175   28.3918   44.7730 C.3       4 GLC5        0.0000 
     77 CA          5.1000   28.4750   42.9640 C.3       8 GLP5        0.0000 
     78 CA          6.5862   29.7235   49.4497 C.3       4 GLC5        0.0000 
     79 CA          5.1980   29.7580   47.9360 C.3      12 GLL5        0.0000 
     80 CA          7.8820   30.3800   50.6400 C.3       8 GLP5        0.0000 
     81 CA          2.8596   33.5649   48.6156 C.3       4 GLC5        0.0000 
     82 CA          4.2390   32.8620   49.4680 C.3      12 GLL5        0.0000 
     83 CA          1.0960   34.2540   48.2050 C.3       8 GLP5        0.0000 
     84 CA          5.0201   32.3859   51.0156 C.3       4 GLC5        0.0000 
     85 CA          5.4170   31.8960   53.0050 C.3       8 GLP5        0.0000 
     86 CA         -6.0643   36.6250   44.0692 C.3       4 GLC5        0.0000 
     87 CA         -6.1140   34.7060   44.7630 C.3      12 GLL5        0.0000 
     88 CA         -6.5490   38.5980   43.8420 C.3       8 GLP5        0.0000 
     89 CA         -7.3199   33.5973   44.1564 C.3       4 GLC5        0.0000 
     90 CA         -5.0450   34.5980   43.8300 C.3      12 GLL5        0.0000 
     91 CA         -8.9660   32.8320   43.8390 C.3       8 GLP5        0.0000 
     92 CA         -7.1505   32.5290   44.3023 C.3       4 GLC5        0.0000 
     93 CA         -5.8780   32.2210   45.2220 C.3      12 GLL5        0.0000 
     94 CA         -5.9080   30.2595   48.5170 C.3       4 GLC5        0.0000 
     95 CA         -6.5800   30.6630   50.3690 C.3       8 GLP5        0.0000 
     96 CA         -2.6550   30.3193   46.1442 C.3       4 GLC5        0.0000 
     97 CA         -4.7120   29.7730   47.1950 C.3      12 GLL5        0.0000 
     98 CA         -1.1090   31.4060   45.1830 C.3       8 GLP5        0.0000 
     99 CA         -4.1772   27.6033   45.0718 C.3       4 GLC5        0.0000 
    100 CA         -3.6900   28.6920   47.0160 C.3      12 GLL5        0.0000 
@<TRIPOS>BOND
@<TRIPOS>SUBSTRUCTURE
     1 ALC1       16 GROUP        1 X    ALC  0     ROOT ALC X 1
     2 SEC2        4 GROUP        1 X    SEC  0     **** SEC X 2
     3 LYC4        1 GROUP        1 X    LYC  0     **** LYC X 4
     4 GLC5        7 GROUP        1 X    GLC  0     **** GLC X 6
     5 ALP1       18 GROUP        1 Y    ALP  0     ROOT ALP Y 8
     6 SEP2        6 GROUP        1 Y    SEP  0     **** SEP Y 9
     7 LYP4        3 GROUP        1 Y    LYP  0     **** LYP Y 11
     8 GLP5        9 GROUP        1 Y    GLP  0     **** GLP Y 13
     9 ALL1       17 GROUP        1 Z    ALL  0     ROOT ALL Z 15
    10 SEL2        5 GROUP        1 Z    SEL  0     **** SEL Z 16
    11 LYL4        2 GROUP        1 Z    LYL  0     **** LYL Z 18
    12 GLL5        8 GROUP        1 Z    GLL  0     **** GLL Z 20
@<TRIPOS>SET

