#    Name: 3llk_FAD_3_ligand
#    Modification time : Mon Mar 24 21:47:40 2014

@<TRIPOS>MOLECULE
3llk_FAD_3_ligand
   84    89     1     0     0
SMALL
NO_CHARGES


@<TRIPOS>ATOM
      1 PA          0.1140   28.5040   47.5360 P.3       1 FAD550      0.0000 
      2 O1A        -0.5140   28.1830   46.2270 O.co2     1 FAD550      0.0000 
      3 O2A        -0.4120   29.5480   48.4590 O.co2     1 FAD550      0.0000 
      4 O5B         1.6440   28.8070   47.3520 O.3       1 FAD550      0.0000 
      5 C5B         2.4570   28.3680   46.2610 C.3       1 FAD550      0.0000 
      6 C4B         3.8130   28.2490   46.9030 C.3       1 FAD550      0.0000 
      7 O4B         4.4160   29.5630   46.7520 O.3       1 FAD550      0.0000 
      8 C3B         4.1750   27.6180   48.2670 C.3       1 FAD550      0.0000 
      9 O3B         4.2680   26.1930   48.2960 O.3       1 FAD550      0.0000 
     10 C2B         5.3830   28.3760   48.5830 C.3       1 FAD550      0.0000 
     11 O2B         6.5750   27.8330   48.1040 O.3       1 FAD550      0.0000 
     12 C1B         5.1980   29.7580   47.9360 C.3       1 FAD550      0.0000 
     13 N9A         4.6410   30.8290   48.7000 N.pl3     1 FAD550      0.0000 
     14 C8A         3.7570   30.8650   49.8100 C.2       1 FAD550      0.0000 
     15 N7A         3.4860   32.0350   50.2890 N.2       1 FAD550      0.0000 
     16 C5A         4.2390   32.8620   49.4680 C.ar      1 FAD550      0.0000 
     17 C6A         4.4060   34.2610   49.5130 C.ar      1 FAD550      0.0000 
     18 N6A         3.8330   35.0440   50.4360 N.pl3     1 FAD550      0.0000 
     19 N1A         5.2370   34.8850   48.6020 N.ar      1 FAD550      0.0000 
     20 C2A         5.9770   34.2040   47.6830 C.ar      1 FAD550      0.0000 
     21 N3A         5.8190   32.8110   47.6350 N.ar      1 FAD550      0.0000 
     22 C4A         4.9240   32.1900   48.5620 C.ar      1 FAD550      0.0000 
     23 N1         -8.1990   30.1510   47.5080 N.2       1 FAD550      0.0000 
     24 C2         -9.2960   30.2040   48.3420 C.2       1 FAD550      0.0000 
     25 O2         -9.6940   29.1260   48.8090 O.2       1 FAD550      0.0000 
     26 N3         -9.7280   31.5150   48.5090 N.am      1 FAD550      0.0000 
     27 C4         -9.1910   32.6970   47.9470 C.2       1 FAD550      0.0000 
     28 O4         -9.7470   33.8230   48.1750 O.2       1 FAD550      0.0000 
     29 C4X        -8.0950   32.5350   47.1250 C.2       1 FAD550      0.0000 
     30 N5         -7.5410   33.6540   46.4220 N.2       1 FAD550      0.0000 
     31 C5X        -6.4910   33.5480   45.4720 C.ar      1 FAD550      0.0000 
     32 C6         -6.1140   34.7060   44.7630 C.ar      1 FAD550      0.0000 
     33 C7         -5.0450   34.5980   43.8300 C.ar      1 FAD550      0.0000 
     34 C7M        -4.6940   35.8930   43.0960 C.3       1 FAD550      0.0000 
     35 C8         -4.3670   33.3620   43.6130 C.ar      1 FAD550      0.0000 
     36 C8M        -3.1980   33.0530   42.7010 C.3       1 FAD550      0.0000 
     37 C9         -4.7920   32.2310   44.3090 C.ar      1 FAD550      0.0000 
     38 C9A        -5.8780   32.2210   45.2220 C.ar      1 FAD550      0.0000 
     39 N10        -6.4860   31.1680   46.0780 N.pl3     1 FAD550      0.0000 
     40 C10        -7.5810   31.2180   46.9010 C.2       1 FAD550      0.0000 
     41 C1'        -5.7600   29.9390   46.1350 C.3       1 FAD550      0.0000 
     42 C2'        -4.7120   29.7730   47.1950 C.3       1 FAD550      0.0000 
     43 O2'        -3.9910   31.0140   47.3980 O.3       1 FAD550      0.0000 
     44 C3'        -3.6900   28.6920   47.0160 C.3       1 FAD550      0.0000 
     45 O3'        -3.0460   28.8320   45.7550 O.3       1 FAD550      0.0000 
     46 C4'        -4.0690   27.2390   47.2530 C.3       1 FAD550      0.0000 
     47 O4'        -4.9280   27.1140   48.4250 O.3       1 FAD550      0.0000 
     48 C5'        -2.9960   26.2370   47.2810 C.3       1 FAD550      0.0000 
     49 O5'        -2.1870   26.5290   48.4250 O.3       1 FAD550      0.0000 
     50 P          -0.7540   25.9830   48.6680 P.3       1 FAD550      0.0000 
     51 O1P        -0.7480   25.7080   50.1050 O.co2     1 FAD550      0.0000 
     52 O2P        -0.4150   24.8270   47.7970 O.co2     1 FAD550      0.0000 
     53 O3P         0.3110   27.1460   48.3480 O.3       1 FAD550      0.0000 
     54 H           2.5057   29.0942   45.4785 H         1 FAD550      0.0000 
     55 H           2.1588   27.4080   45.8985 H         1 FAD550      0.0000 
     56 H           4.4430   27.6167   46.1136 H         1 FAD550      0.0000 
     57 H           3.3807   27.9960   48.9521 H         1 FAD550      0.0000 
     58 H           5.4200   28.5653   49.6563 H         1 FAD550      0.0000 
     59 H           6.2276   30.0573   47.5763 H         1 FAD550      0.0000 
     60 H           3.3904   29.9853   50.1633 H         1 FAD550      0.0000 
     61 H           3.6370   34.6141   51.3173 H         1 FAD550      0.0000 
     62 H           3.6525   35.9884   50.1612 H         1 FAD550      0.0000 
     63 H           6.6197   34.6663   47.0522 H         1 FAD550      0.0000 
     64 H         -10.5895   31.6597   49.1533 H         1 FAD550      0.0000 
     65 H          -6.5816   35.5840   44.9072 H         1 FAD550      0.0000 
     66 H          -4.2821   31.3238   44.1543 H         1 FAD550      0.0000 
     67 H          -5.2627   29.7333   45.1331 H         1 FAD550      0.0000 
     68 H          -6.4808   29.0647   46.2327 H         1 FAD550      0.0000 
     69 H          -5.2425   29.5575   48.1639 H         1 FAD550      0.0000 
     70 H          -2.8670   28.9147   47.7990 H         1 FAD550      0.0000 
     71 H          -4.7470   26.9620   46.3620 H         1 FAD550      0.0000 
     72 H          -2.4131   26.3009   46.3622 H         1 FAD550      0.0000 
     73 H          -3.4299   25.2397   47.3521 H         1 FAD550      0.0000 
     74 H          -4.4204   36.6166   43.7297 H         1 FAD550      0.0000 
     75 H          -3.9375   35.7632   42.4550 H         1 FAD550      0.0000 
     76 H          -5.4684   36.2426   42.5686 H         1 FAD550      0.0000 
     77 H          -2.3907   33.5945   42.9356 H         1 FAD550      0.0000 
     78 H          -2.9307   32.0908   42.7529 H         1 FAD550      0.0000 
     79 H          -3.4126   33.2464   41.7436 H         1 FAD550      0.0000 
     80 H           3.9467   25.9313   49.2061 H         1 FAD550      0.0000 
     81 H           6.4090   26.8482   48.0539 H         1 FAD550      0.0000 
     82 H          -3.5360   30.9072   48.2821 H         1 FAD550      0.0000 
     83 H          -2.0901   28.5923   45.9247 H         1 FAD550      0.0000 
     84 H          -5.2226   26.1584   48.4291 H         1 FAD550      0.0000 
@<TRIPOS>BOND
     1    2    1 ar   
     2    3    1 ar   
     3    4    1 1    
     4   53    1 1    
     5    5    4 1    
     6    6    5 1    
     7   54    5 1    
     8   55    5 1    
     9    7    6 1    
    10    8    6 1    
    11   56    6 1    
    12   12    7 1    
    13    9    8 1    
    14   10    8 1    
    15   57    8 1    
    16   80    9 1    
    17   11   10 1    
    18   12   10 1    
    19   58   10 1    
    20   81   11 1    
    21   13   12 1    
    22   59   12 1    
    23   14   13 1    
    24   22   13 1    
    25   15   14 2    
    26   60   14 1    
    27   16   15 1    
    28   17   16 ar   
    29   22   16 ar   
    30   18   17 1    
    31   19   17 ar   
    32   61   18 1    
    33   62   18 1    
    34   20   19 ar   
    35   21   20 ar   
    36   63   20 1    
    37   22   21 ar   
    38   24   23 1    
    39   40   23 2    
    40   25   24 2    
    41   26   24 am   
    42   27   26 am   
    43   64   26 1    
    44   28   27 2    
    45   29   27 1    
    46   30   29 2    
    47   40   29 1    
    48   31   30 1    
    49   32   31 ar   
    50   38   31 ar   
    51   33   32 ar   
    52   65   32 1    
    53   34   33 1    
    54   35   33 ar   
    55   74   34 1    
    56   75   34 1    
    57   76   34 1    
    58   36   35 1    
    59   37   35 ar   
    60   77   36 1    
    61   78   36 1    
    62   79   36 1    
    63   38   37 ar   
    64   66   37 1    
    65   39   38 1    
    66   40   39 1    
    67   41   39 1    
    68   42   41 1    
    69   67   41 1    
    70   68   41 1    
    71   43   42 1    
    72   44   42 1    
    73   69   42 1    
    74   82   43 1    
    75   45   44 1    
    76   46   44 1    
    77   70   44 1    
    78   83   45 1    
    79   47   46 1    
    80   48   46 1    
    81   71   46 1    
    82   84   47 1    
    83   49   48 1    
    84   72   48 1    
    85   73   48 1    
    86   50   49 1    
    87   51   50 ar   
    88   52   50 ar   
    89   53   50 1    
@<TRIPOS>SUBSTRUCTURE
     1 FAD550      1 GROUP   
@<TRIPOS>SET

