#    Name: 4ag8_AXI_1_INTS_M
#    Modification time : Tue Mar 25 05:33:13 2014

@<TRIPOS>MOLECULE
4ag8_AXI_1_INTS_M
   84     0     9     0     0
SMALL
NO_CHARGES


@<TRIPOS>ATOM
      1 N          23.9825   22.9540   34.6890 N.am      2 SEC2        0.0000 
      2 N          24.8310   23.4700   35.7940 N.am      8 SEL2        0.0000 
      3 N          23.1340   22.4380   33.5840 N.am      5 SEP2        0.0000 
      4 O          26.8925   20.8840   36.9085 O.2       1 ALC1        0.0000 
      5 O          26.4150   21.9160   36.1840 O.2       7 ALL1        0.0000 
      6 O          27.3700   19.8520   37.6330 O.2       4 ALP1        0.0000 
      7 CA         28.0745   20.4335   35.6665 C.3       3 GLC5        0.0000 
      8 CA         26.7820   21.7270   34.7830 C.3       9 GLL5        0.0000 
      9 CA         29.3670   19.1400   36.5500 C.3       6 GLP5        0.0000 
     10 CA         28.4340   22.8995   34.6240 C.3       3 GLC5        0.0000 
     11 CA         30.0860   24.0720   34.4650 C.3       6 GLP5        0.0000 
     12 CA         25.2005   20.9375   33.7550 C.3       3 GLC5        0.0000 
     13 CA         23.6190   20.1480   32.7270 C.3       6 GLP5        0.0000 
     14 CA         28.3105   23.1355   37.8680 C.3       3 GLC5        0.0000 
     15 CA         26.4560   22.9970   38.8890 C.3       9 GLL5        0.0000 
     16 CA         30.1650   23.2740   36.8470 C.3       6 GLP5        0.0000 
     17 CA         25.2240   23.6785   43.0430 C.3       3 GLC5        0.0000 
     18 CA         25.1560   23.4620   40.8850 C.3       9 GLL5        0.0000 
     19 CA         25.2920   23.8950   45.2010 C.3       6 GLP5        0.0000 
     20 CA         23.3615   25.1995   41.3885 C.3       3 GLC5        0.0000 
     21 CA         23.9820   23.4920   40.0940 C.3       9 GLL5        0.0000 
     22 CA         22.7410   26.9070   42.6830 C.3       6 GLP5        0.0000 
     23 CA         23.4575   21.4385   38.4850 C.3       3 GLC5        0.0000 
     24 CA         22.5100   23.3470   37.7880 C.3       9 GLL5        0.0000 
     25 CA         24.4050   19.5300   39.1820 C.3       6 GLP5        0.0000 
     26 CA         22.4030   24.2630   36.0630 C.3       3 GLC5        0.0000 
     27 CA         22.2960   25.1790   34.3380 C.3       6 GLP5        0.0000 
     28 CA         21.6415   21.5280   37.1635 C.3       3 GLC5        0.0000 
     29 CA         20.7730   19.7090   36.5390 C.3       6 GLP5        0.0000 
     30 CA         18.6060   26.1340   37.8210 C.3       3 GLC5        0.0000 
     31 CA         19.2570   25.2390   39.3920 C.3       9 GLL5        0.0000 
     32 CA         17.9550   27.0290   36.2500 C.3       6 GLP5        0.0000 
     33 CA         22.3805   26.3695   40.7740 C.3       3 GLC5        0.0000 
     34 CA         22.0200   25.8320   38.8650 C.3       9 GLL5        0.0000 
     35 CA         23.1470   27.2130   37.8480 C.3       3 GLC5        0.0000 
     36 CA         24.2740   28.5940   36.8310 C.3       6 GLP5        0.0000 
     37 CA         23.8195   26.3025   39.3760 C.3       3 GLC5        0.0000 
     38 CA         25.6190   26.7730   39.8870 C.3       6 GLP5        0.0000 
     39 CA         19.4405   29.0305   41.9465 C.3       3 GLC5        0.0000 
     40 CA         19.3710   27.7550   40.2740 C.3       9 GLL5        0.0000 
     41 CA         19.5100   30.3060   43.6190 C.3       6 GLP5        0.0000 
     42 CA         19.3940   29.6090   39.0960 C.3       3 GLC5        0.0000 
     43 CA         19.4170   31.4630   37.9180 C.3       6 GLP5        0.0000 
     44 CA         14.8920   26.9075   43.2575 C.3       3 GLC5        0.0000 
     45 CA         13.3190   27.2230   41.7450 C.3       9 GLL5        0.0000 
     46 CA         16.4650   26.5920   44.7700 C.3       6 GLP5        0.0000 
     47 CA         25.1395   21.2722   38.8298 C.3       3 GLC5        0.0000 
     48 CA         25.2920   23.0320   38.0660 C.3       9 GLL5        0.0000 
     49 CA         25.1370   24.9690   39.1285 C.3       3 GLC5        0.0000 
     50 CA         28.3548   22.7407   40.1770 C.3       3 GLC5        0.0000 
     51 CA         30.2770   22.3830   40.7640 C.3       6 GLP5        0.0000 
     52 CA         27.2188   24.6388   39.4190 C.3       3 GLC5        0.0000 
     53 CA         26.4090   23.2000   40.2910 C.3       9 GLL5        0.0000 
     54 CA         28.0050   26.1790   39.2480 C.3       6 GLP5        0.0000 
     55 CA         25.6762   21.7715   41.3555 C.3       3 GLC5        0.0000 
     56 CA         25.5700   20.2120   42.1230 C.3       6 GLP5        0.0000 
     57 CA         23.0450   22.3330   40.9693 C.3       3 GLC5        0.0000 
     58 CA         21.5210   21.1890   41.4490 C.3       6 GLP5        0.0000 
     59 CA         25.0940   25.1250   40.1882 C.3       3 GLC5        0.0000 
     60 CA         22.3925   22.2557   39.8400 C.3       3 GLC5        0.0000 
     61 CA         24.0180   23.2980   38.6740 C.3       9 GLL5        0.0000 
     62 CA         24.2025   21.4625   39.2830 C.3       3 GLC5        0.0000 
     63 CA         20.6960   24.4688   36.5630 C.3       3 GLC5        0.0000 
     64 CA         21.4890   24.5480   38.5260 C.3       9 GLL5        0.0000 
     65 CA         20.5860   24.5340   34.4650 C.3       6 GLP5        0.0000 
     66 CA         20.5723   24.0731   40.8462 C.3       3 GLC5        0.0000 
     67 CA         21.1130   23.3250   42.6660 C.3       6 GLP5        0.0000 
     68 CA         20.8980   26.4179   37.5515 C.3       3 GLC5        0.0000 
     69 CA         20.1230   24.2590   38.7960 C.3       9 GLL5        0.0000 
     70 CA         20.3830   27.7180   36.3400 C.3       6 GLP5        0.0000 
     71 CA         19.2432   26.7218   42.0442 C.3       3 GLC5        0.0000 
     72 CA         19.8440   26.5040   39.7110 C.3       9 GLL5        0.0000 
     73 CA         18.8790   26.3140   44.0960 C.3       6 GLP5        0.0000 
     74 CA         21.1743   27.0183   41.3377 C.3       3 GLC5        0.0000 
     75 CA         19.9952   27.4237   38.1663 C.3       3 GLC5        0.0000 
     76 CA         18.1653   27.0217   42.4282 C.3       3 GLC5        0.0000 
     77 CA         18.0180   28.1340   40.7130 C.3       9 GLL5        0.0000 
     78 CA         17.8027   28.9498   42.3368 C.3       3 GLC5        0.0000 
     79 CA         18.1540   30.1700   43.9130 C.3       6 GLP5        0.0000 
     80 CA         16.0188   28.3438   39.4443 C.3       3 GLC5        0.0000 
     81 CA         14.5860   28.9580   38.1280 C.3       6 GLP5        0.0000 
     82 CA         15.9473   27.5470   43.1073 C.3       3 GLC5        0.0000 
     83 CA         15.5470   27.8250   41.2730 C.3       9 GLL5        0.0000 
     84 CA         14.2623   28.7040   39.9807 C.3       3 GLC5        0.0000 
@<TRIPOS>BOND
@<TRIPOS>SUBSTRUCTURE
     1 ALC1        4 GROUP        1 X    ALC  0     ROOT ALC X 1
     2 SEC2        1 GROUP        1 X    SEC  0     **** SEC X 2
     3 GLC5        7 GROUP        1 X    GLC  0     **** GLC X 6
     4 ALP1        6 GROUP        1 Y    ALP  0     ROOT ALP Y 8
     5 SEP2        3 GROUP        1 Y    SEP  0     **** SEP Y 9
     6 GLP5        9 GROUP        1 Y    GLP  0     **** GLP Y 13
     7 ALL1        5 GROUP        1 Z    ALL  0     ROOT ALL Z 15
     8 SEL2        2 GROUP        1 Z    SEL  0     **** SEL Z 16
     9 GLL5        8 GROUP        1 Z    GLL  0     **** GLL Z 20
@<TRIPOS>SET

