#    Name: 4ag8_AXI_1_ligand
#    Modification time : Tue Mar 25 05:33:13 2014

@<TRIPOS>MOLECULE
4ag8_AXI_1_ligand
   46    49     1     0     0
SMALL
NO_CHARGES


@<TRIPOS>ATOM
      1 O81        24.8310   23.4700   35.7940 O.2       1 AXI2000     0.0000 
      2 C80        25.4990   22.8060   36.6100 C.2       1 AXI2000     0.0000 
      3 N82        26.4150   21.9160   36.1840 N.am      1 AXI2000     0.0000 
      4 C88        26.7820   21.7270   34.7830 C.3       1 AXI2000     0.0000 
      5 C23        25.2920   23.0320   38.0660 C.ar      1 AXI2000     0.0000 
      6 C22        26.4560   22.9970   38.8890 C.ar      1 AXI2000     0.0000 
      7 C21        26.4090   23.2000   40.2910 C.ar      1 AXI2000     0.0000 
      8 C20        25.1560   23.4620   40.8850 C.ar      1 AXI2000     0.0000 
      9 C18        24.0180   23.2980   38.6740 C.ar      1 AXI2000     0.0000 
     10 C19        23.9820   23.4920   40.0940 C.ar      1 AXI2000     0.0000 
     11 S24        22.5100   23.3470   37.7880 S.3       1 AXI2000     0.0000 
     12 C07        21.4890   24.5480   38.5260 C.ar      1 AXI2000     0.0000 
     13 C08        20.1230   24.2590   38.7960 C.ar      1 AXI2000     0.0000 
     14 C09        19.2570   25.2390   39.3920 C.ar      1 AXI2000     0.0000 
     15 C12        22.0200   25.8320   38.8650 C.ar      1 AXI2000     0.0000 
     16 C11        21.1780   26.7750   39.4500 C.ar      1 AXI2000     0.0000 
     17 N15        21.4300   28.0760   39.8550 N.2       1 AXI2000     0.0000 
     18 N14        20.3390   28.5970   40.3060 N.pl3     1 AXI2000     0.0000 
     19 C13        19.3710   27.7550   40.2740 C.2       1 AXI2000     0.0000 
     20 C10        19.8440   26.5040   39.7110 C.ar      1 AXI2000     0.0000 
     21 C16        18.0180   28.1340   40.7130 C.2       1 AXI2000     0.0000 
     22 C17        16.8850   27.3250   40.8080 C.2       1 AXI2000     0.0000 
     23 C02        15.5470   27.8250   41.2730 C.ar      1 AXI2000     0.0000 
     24 N03        14.5760   26.8900   41.3370 N.ar      1 AXI2000     0.0000 
     25 C04        13.3190   27.2230   41.7450 C.ar      1 AXI2000     0.0000 
     26 C05        13.0020   28.5450   42.1030 C.ar      1 AXI2000     0.0000 
     27 C06        14.0040   29.5300   42.0410 C.ar      1 AXI2000     0.0000 
     28 C01        15.3120   29.1790   41.6160 C.ar      1 AXI2000     0.0000 
     29 H          26.9242   21.2959   36.8677 H         1 AXI2000     0.0000 
     30 H          27.3732   22.8152   38.4398 H         1 AXI2000     0.0000 
     31 H          27.2489   23.1578   40.8459 H         1 AXI2000     0.0000 
     32 H          25.0934   23.6314   41.8919 H         1 AXI2000     0.0000 
     33 H          23.0700   23.6579   40.5458 H         1 AXI2000     0.0000 
     34 H          19.7428   23.3366   38.5636 H         1 AXI2000     0.0000 
     35 H          18.3032   25.0454   39.5714 H         1 AXI2000     0.0000 
     36 H          22.9945   26.0358   38.6760 H         1 AXI2000     0.0000 
     37 H          20.2610   29.5449   40.6400 H         1 AXI2000     0.0000 
     38 H          17.9189   29.1675   40.9886 H         1 AXI2000     0.0000 
     39 H          16.9241   26.3218   40.5548 H         1 AXI2000     0.0000 
     40 H          12.5728   26.5048   41.7985 H         1 AXI2000     0.0000 
     41 H          12.0607   28.7862   42.4029 H         1 AXI2000     0.0000 
     42 H          13.7974   30.4941   42.2991 H         1 AXI2000     0.0000 
     43 H          16.0404   29.8641   41.5612 H         1 AXI2000     0.0000 
     44 H          27.1495   22.5647   34.3791 H         1 AXI2000     0.0000 
     45 H          27.4794   21.0187   34.6741 H         1 AXI2000     0.0000 
     46 H          25.9971   21.4534   34.2271 H         1 AXI2000     0.0000 
@<TRIPOS>BOND
     1    2    1 2    
     2    3    2 am   
     3    5    2 1    
     4    4    3 1    
     5   29    3 1    
     6   44    4 1    
     7   45    4 1    
     8   46    4 1    
     9    6    5 ar   
    10    9    5 ar   
    11    7    6 ar   
    12   30    6 1    
    13    8    7 ar   
    14   31    7 1    
    15   10    8 ar   
    16   32    8 1    
    17   10    9 ar   
    18   11    9 1    
    19   33   10 1    
    20   12   11 1    
    21   13   12 ar   
    22   15   12 ar   
    23   14   13 ar   
    24   34   13 1    
    25   20   14 ar   
    26   35   14 1    
    27   16   15 ar   
    28   36   15 1    
    29   17   16 2    
    30   20   16 ar   
    31   18   17 1    
    32   19   18 1    
    33   37   18 1    
    34   20   19 2    
    35   21   19 1    
    36   22   21 2    
    37   38   21 1    
    38   23   22 1    
    39   39   22 1    
    40   24   23 ar   
    41   28   23 ar   
    42   25   24 ar   
    43   26   25 ar   
    44   40   25 1    
    45   27   26 ar   
    46   41   26 1    
    47   28   27 ar   
    48   42   27 1    
    49   43   28 1    
@<TRIPOS>SUBSTRUCTURE
     1 AXI2000     1 GROUP   
@<TRIPOS>SET

