#    Name: 2pvj_P44_1_INTS_M
#    Modification time : Mon Mar 24 19:24:51 2014

@<TRIPOS>MOLECULE
2pvj_P44_1_INTS_M
   61     0     9     0     0
SMALL
NO_CHARGES


@<TRIPOS>ATOM
      1 N          19.1065   10.8265   20.2445 N.am      2 SEC2        0.0000 
      2 N          20.1150    9.5890   19.7490 N.am      8 SEL2        0.0000 
      3 N          18.0980   12.0640   20.7400 N.am      5 SEP2        0.0000 
      4 CA         19.8065    7.6770   18.2620 C.3       3 GLC5        0.0000 
      5 CA         21.3330    8.9370   17.9920 C.3       9 GLL5        0.0000 
      6 CA         18.2800    6.4170   18.5320 C.3       6 GLP5        0.0000 
      7 CA         20.3070    6.8270   19.5460 C.3       3 GLC5        0.0000 
      8 CA         21.6480    8.1070   19.1310 C.3       9 GLL5        0.0000 
      9 CA         18.9660    5.5470   19.9610 C.3       6 GLP5        0.0000 
     10 CA         21.4175    6.5800   17.8675 C.3       3 GLC5        0.0000 
     11 CA         21.1870    5.0530   16.6040 C.3       6 GLP5        0.0000 
     12 N          23.6090    6.6035   18.2400 N.am      2 SEC2        0.0000 
     13 N          22.4960    7.0790   19.2960 N.am      8 SEL2        0.0000 
     14 N          24.7220    6.1280   17.1840 N.am      5 SEP2        0.0000 
     15 O          19.0320    9.2425   22.4925 O.2       1 ALC1        0.0000 
     16 O          20.2380    8.4540   22.3830 O.2       7 ALL1        0.0000 
     17 O          17.8260   10.0310   22.6020 O.2       4 ALP1        0.0000 
     18 CA         21.7195    9.5235   22.8170 C.3       3 GLC5        0.0000 
     19 CA         20.3150    8.1190   23.7000 C.3       9 GLL5        0.0000 
     20 CA         23.1240   10.9280   21.9340 C.3       6 GLP5        0.0000 
     21 CA         17.9680    9.8200   24.5825 C.3       3 GLC5        0.0000 
     22 CA         19.9990    9.1130   24.6270 C.3       9 GLL5        0.0000 
     23 CA         15.9370   10.5270   24.5380 C.3       6 GLP5        0.0000 
     24 CA         18.5430    7.6380   23.8400 C.3       3 GLC5        0.0000 
     25 CA         17.0870    6.1630   23.0530 C.3       6 GLP5        0.0000 
     26 CA         24.1845    6.4055   23.2785 C.3       3 GLC5        0.0000 
     27 CA         23.5450    4.8670   22.0080 C.3       9 GLL5        0.0000 
     28 CA         24.8240    7.9440   24.5490 C.3       6 GLP5        0.0000 
     29 CA         25.2015    4.3895   23.3135 C.3       3 GLC5        0.0000 
     30 CA         26.8580    3.9120   24.6190 C.3       6 GLP5        0.0000 
     31 CA         24.9140    6.3525   21.5825 C.3       3 GLC5        0.0000 
     32 CA         26.2830    7.8380   21.1570 C.3       6 GLP5        0.0000 
     33 CA         24.7060    3.5700   24.1505 C.3       3 GLC5        0.0000 
     34 CA         22.5540    3.2280   23.6820 C.3       9 GLL5        0.0000 
     35 CA         23.3480    9.7030   18.0745 C.3       3 GLC5        0.0000 
     36 CA         21.9590    8.8590   16.7050 C.3       9 GLL5        0.0000 
     37 CA         24.7370   10.5470   19.4440 C.3       6 GLP5        0.0000 
     38 CA         20.8895    9.7715   15.3315 C.3       3 GLC5        0.0000 
     39 CA         19.8200   10.6840   13.9580 C.3       6 GLP5        0.0000 
     40 CA         22.6765   10.6130   16.0910 C.3       3 GLC5        0.0000 
     41 CA         23.3940   12.3670   15.4770 C.3       6 GLP5        0.0000 
     42 CA         22.0988   10.0180   19.5733 C.3       3 GLC5        0.0000 
     43 CA         22.7070   11.5140   20.5850 C.3       6 GLP5        0.0000 
     44 CA         20.4975    8.0285   16.1782 C.3       3 GLC5        0.0000 
     45 CA         19.3490    7.1590   15.0080 C.3       6 GLP5        0.0000 
     46 CA         22.5230    7.1540   25.4062 C.3       3 GLC5        0.0000 
     47 CA         20.6540    6.8510   24.1700 C.3       9 GLL5        0.0000 
     48 CA         24.3970    7.6030   25.9610 C.3       6 GLP5        0.0000 
     49 CA         18.8256    6.5925   23.8935 C.3       3 GLC5        0.0000 
     50 CA         20.6440    6.5590   25.5330 C.3       9 GLL5        0.0000 
     51 CA         22.1165    8.5257   26.4832 C.3       3 GLC5        0.0000 
     52 CA         20.2930    7.5460   26.4500 C.3       9 GLL5        0.0000 
     53 CA         24.0930    8.8660   26.7460 C.3       6 GLP5        0.0000 
     54 CA         20.4237    2.9540   20.4087 C.3       3 GLC5        0.0000 
     55 CA         22.6730    2.6100   21.2330 C.3       9 GLL5        0.0000 
     56 CA         18.7270    3.8170   19.4690 C.3       6 GLP5        0.0000 
     57 CA         21.6917   -0.4120   21.6403 C.3       3 GLC5        0.0000 
     58 CA         21.5680    1.5720   21.4640 C.3       9 GLL5        0.0000 
     59 CA         21.7910   -2.1140   21.1050 C.3       6 GLP5        0.0000 
     60 CA         23.5564    8.0723   17.4771 C.3       3 GLC5        0.0000 
     61 CA         25.3880    7.4540   17.3210 C.3       6 GLP5        0.0000 
@<TRIPOS>BOND
@<TRIPOS>SUBSTRUCTURE
     1 ALC1       15 GROUP        1 X    ALC  0     ROOT ALC X 1
     2 SEC2        1 GROUP        1 X    SEC  0     **** SEC X 2
     3 GLC5        4 GROUP        1 X    GLC  0     **** GLC X 6
     4 ALP1       17 GROUP        1 Y    ALP  0     ROOT ALP Y 8
     5 SEP2        3 GROUP        1 Y    SEP  0     **** SEP Y 9
     6 GLP5        6 GROUP        1 Y    GLP  0     **** GLP Y 13
     7 ALL1       16 GROUP        1 Z    ALL  0     ROOT ALL Z 15
     8 SEL2        2 GROUP        1 Z    SEL  0     **** SEL Z 16
     9 GLL5        5 GROUP        1 Z    GLL  0     **** GLL Z 20
@<TRIPOS>SET

