#    Name: 2pvj_P44_1_ligand
#    Modification time : Mon Mar 24 19:24:51 2014

@<TRIPOS>MOLECULE
2pvj_P44_1_ligand
   47    50     1     0     0
SMALL
NO_CHARGES


@<TRIPOS>ATOM
      1 N01        20.1150    9.5890   19.7490 N.2       1 P44501      0.0000 
      2 C02        20.3570    9.8500   18.4370 C.2       1 P44501      0.0000 
      3 C03        21.3330    8.9370   17.9920 C.2       1 P44501      0.0000 
      4 C04        21.6480    8.1070   19.1310 C.2       1 P44501      0.0000 
      5 N05        20.8890    8.5490   20.1760 N.pl3     1 P44501      0.0000 
      6 N06        22.4960    7.0790   19.2960 N.2       1 P44501      0.0000 
      7 C07        22.5510    6.5420   20.5110 C.2       1 P44501      0.0000 
      8 N08        21.8330    6.9620   21.5460 N.2       1 P44501      0.0000 
      9 C09        20.9950    7.9770   21.3620 C.2       1 P44501      0.0000 
     10 N10        20.2380    8.4540   22.3830 N.pl3     1 P44501      0.0000 
     11 C11        20.3150    8.1190   23.7000 C.ar      1 P44501      0.0000 
     12 C12        20.6540    6.8510   24.1700 C.ar      1 P44501      0.0000 
     13 C13        20.6440    6.5590   25.5330 C.ar      1 P44501      0.0000 
     14 C14        20.2930    7.5460   26.4500 C.ar      1 P44501      0.0000 
     15 C15        19.9870    8.8250   25.9910 C.ar      1 P44501      0.0000 
     16 C16        19.9990    9.1130   24.6270 C.ar      1 P44501      0.0000 
     17 N17        23.3800    5.4860   20.6960 N.pl3     1 P44501      0.0000 
     18 C18        23.5450    4.8670   22.0080 C.3       1 P44501      0.0000 
     19 C19        22.5240    3.7540   22.2420 C.3       1 P44501      0.0000 
     20 C20        22.6730    2.6100   21.2330 C.3       1 P44501      0.0000 
     21 C21        21.5680    1.5720   21.4640 C.3       1 P44501      0.0000 
     22 C22        21.6170    1.0080   22.8870 C.3       1 P44501      0.0000 
     23 C23        21.4980    2.1430   23.9130 C.3       1 P44501      0.0000 
     24 C24        22.5540    3.2280   23.6820 C.3       1 P44501      0.0000 
     25 C25        21.9590    8.8590   16.7050 C.1       1 P44501      0.0000 
     26 N26        22.5400    8.8590   15.7020 N.1       1 P44501      0.0000 
     27 H          19.9575   10.5172   17.8953 H         1 P44501      0.0000 
     28 H          19.4788    9.1922   22.1183 H         1 P44501      0.0000 
     29 H          20.9182    6.1122   23.4938 H         1 P44501      0.0000 
     30 H          20.8948    5.6188   25.8589 H         1 P44501      0.0000 
     31 H          20.2601    7.3345   27.4500 H         1 P44501      0.0000 
     32 H          19.7489    9.5675   26.6672 H         1 P44501      0.0000 
     33 H          19.7738   10.0630   24.3017 H         1 P44501      0.0000 
     34 H          23.9272    5.0769   19.9198 H         1 P44501      0.0000 
     35 H          23.4267    5.6123   22.8091 H         1 P44501      0.0000 
     36 H          24.5514    4.4339   22.1117 H         1 P44501      0.0000 
     37 H          21.5152    4.1937   22.0817 H         1 P44501      0.0000 
     38 H          23.6392    2.1396   21.3641 H         1 P44501      0.0000 
     39 H          22.5893    3.0045   20.2284 H         1 P44501      0.0000 
     40 H          21.6894    0.7563   20.7505 H         1 P44501      0.0000 
     41 H          20.5975    2.0404   21.2971 H         1 P44501      0.0000 
     42 H          22.5586    0.4894   23.0358 H         1 P44501      0.0000 
     43 H          20.7954    0.3129   23.0266 H         1 P44501      0.0000 
     44 H          21.6203    1.7312   24.9162 H         1 P44501      0.0000 
     45 H          20.5043    2.5880   23.8389 H         1 P44501      0.0000 
     46 H          22.3723    4.0570   24.3689 H         1 P44501      0.0000 
     47 H          23.5431    2.8157   23.8911 H         1 P44501      0.0000 
@<TRIPOS>BOND
     1    2    1 2    
     2    5    1 1    
     3    3    2 1    
     4   27    2 1    
     5    4    3 2    
     6   25    3 1    
     7    5    4 1    
     8    6    4 1    
     9    9    5 1    
    10    7    6 2    
    11    8    7 1    
    12   17    7 1    
    13    9    8 2    
    14   10    9 1    
    15   11   10 1    
    16   28   10 1    
    17   12   11 ar   
    18   16   11 ar   
    19   13   12 ar   
    20   29   12 1    
    21   14   13 ar   
    22   30   13 1    
    23   15   14 ar   
    24   31   14 1    
    25   16   15 ar   
    26   32   15 1    
    27   33   16 1    
    28   18   17 1    
    29   34   17 1    
    30   19   18 1    
    31   35   18 1    
    32   36   18 1    
    33   20   19 1    
    34   24   19 1    
    35   37   19 1    
    36   21   20 1    
    37   38   20 1    
    38   39   20 1    
    39   22   21 1    
    40   40   21 1    
    41   41   21 1    
    42   23   22 1    
    43   42   22 1    
    44   43   22 1    
    45   24   23 1    
    46   44   23 1    
    47   45   23 1    
    48   46   24 1    
    49   47   24 1    
    50   26   25 3    
@<TRIPOS>SUBSTRUCTURE
     1 P44501      1 GROUP   
@<TRIPOS>SET

