#    Name: 2rkv_ZBA_1_INTS_M
#    Modification time : Tue Mar 25 00:03:28 2014

@<TRIPOS>MOLECULE
2rkv_ZBA_1_INTS_M
   64     0     6     0     0
SMALL
NO_CHARGES


@<TRIPOS>ATOM
      1 CA         28.1130   27.6985    9.3605 C.3       2 GLC5        0.0000 
      2 CA         27.9700   29.6770    8.8130 C.3       6 GLL5        0.0000 
      3 CA         28.2560   25.7200    9.9080 C.3       4 GLP5        0.0000 
      4 CA         29.9325   28.4140   14.4865 C.3       2 GLC5        0.0000 
      5 CA         30.2880   30.1800   14.0520 C.3       6 GLL5        0.0000 
      6 CA         29.5770   26.6480   14.9210 C.3       4 GLP5        0.0000 
      7 CA         24.6375   31.2685   12.9695 C.3       2 GLC5        0.0000 
      8 CA         26.6370   30.7080   12.9150 C.3       6 GLL5        0.0000 
      9 CA         22.6380   31.8290   13.0240 C.3       4 GLP5        0.0000 
     10 CA         25.6060   31.0950   11.1725 C.3       2 GLC5        0.0000 
     11 CA         24.5750   31.4820    9.4300 C.3       4 GLP5        0.0000 
     12 CA         25.1280   29.2660   13.1800 C.3       2 GLC5        0.0000 
     13 CA         23.6190   27.8240   13.4450 C.3       4 GLP5        0.0000 
     14 CA         27.2715   29.8405   16.1735 C.3       2 GLC5        0.0000 
     15 CA         27.9530   31.5250   14.8540 C.3       6 GLL5        0.0000 
     16 CA         26.5900   28.1560   17.4930 C.3       4 GLP5        0.0000 
     17 CA         28.6450   33.6490   16.2135 C.3       2 GLC5        0.0000 
     18 CA         29.1750   31.6830   15.6750 C.3       6 GLL5        0.0000 
     19 CA         28.1150   35.6150   16.7520 C.3       4 GLP5        0.0000 
     20 N          27.8855   29.8465   16.5605 N.am      1 SEC2        0.0000 
     21 N          29.0420   30.6950   16.7160 N.am      5 SEL2        0.0000 
     22 N          26.7290   28.9980   16.4050 N.am      3 SEP2        0.0000 
     23 CA         31.0680   34.5130   14.4005 C.3       2 GLC5        0.0000 
     24 CA         30.7640   32.6280   14.0170 C.3       6 GLL5        0.0000 
     25 CA         31.3720   36.3980   14.7840 C.3       4 GLP5        0.0000 
     26 CA         29.3795   33.3680   12.8215 C.3       2 GLC5        0.0000 
     27 CA         27.9950   34.1080   11.6260 C.3       4 GLP5        0.0000 
     28 CA         34.7260   30.9470   16.6340 C.3       2 GLC5        0.0000 
     29 CA         33.0670   31.1460   15.3170 C.3       6 GLL5        0.0000 
     30 CA         36.3850   30.7480   17.9510 C.3       4 GLP5        0.0000 
     31 CA         34.3000   32.9155   15.3910 C.3       2 GLC5        0.0000 
     32 CA         35.5330   34.6850   15.4650 C.3       4 GLP5        0.0000 
     33 CA         28.6415   29.5310   18.1440 C.3       2 GLC5        0.0000 
     34 CA         30.1330   30.5390   17.5750 C.3       6 GLL5        0.0000 
     35 CA         27.1500   28.5230   18.7130 C.3       4 GLP5        0.0000 
     36 CA         32.7375   26.9745   15.6630 C.3       2 GLC5        0.0000 
     37 CA         31.8010   28.6970   16.7480 C.3       6 GLL5        0.0000 
     38 CA         33.6740   25.2520   14.5780 C.3       4 GLP5        0.0000 
     39 CA         30.6410   34.3305   17.5685 C.3       2 GLC5        0.0000 
     40 CA         31.5840   32.3690   17.0500 C.3       6 GLL5        0.0000 
     41 CA         29.6980   36.2920   18.0870 C.3       4 GLP5        0.0000 
     42 CA         30.6675   30.3130   19.4215 C.3       2 GLC5        0.0000 
     43 CA         30.6390   31.8400   18.1130 C.3       6 GLL5        0.0000 
     44 CA         30.6960   28.7860   20.7300 C.3       4 GLP5        0.0000 
     45 N          29.3425   33.9790   18.0330 N.am      1 SEC2        0.0000 
     46 N          29.6070   32.7330   18.4250 N.am      5 SEL2        0.0000 
     47 N          29.0780   35.2250   17.6410 N.am      3 SEP2        0.0000 
     48 CA         31.9455   35.5090   16.5095 C.3       2 GLC5        0.0000 
     49 CA         32.5190   34.6200   18.2350 C.3       6 GLL5        0.0000 
     50 CA         31.1085   35.4560   18.1610 C.3       2 GLC5        0.0000 
     51 CA         33.6685   34.6235   19.9415 C.3       2 GLC5        0.0000 
     52 CA         34.8180   34.6270   21.6480 C.3       4 GLP5        0.0000 
     53 CA         34.0260   34.6525   16.8500 C.3       2 GLC5        0.0000 
     54 CA         28.5600   32.5480   10.4895 C.3       2 GLC5        0.0000 
     55 CA         29.8010   30.9670    9.6250 C.3       6 GLL5        0.0000 
     56 CA         26.4046   31.2460    8.8902 C.3       2 GLC5        0.0000 
     57 CA         28.4490   31.0090    9.0810 C.3       6 GLL5        0.0000 
     58 CA         27.4801   28.6914   13.4202 C.3       2 GLC5        0.0000 
     59 CA         27.8900   30.8490   13.7490 C.3       6 GLL5        0.0000 
     60 CA         27.3990   26.7720   13.6520 C.3       4 GLP5        0.0000 
     61 CA         27.8761   32.5879   12.8236 C.3       2 GLC5        0.0000 
     62 CA         30.5670   28.0095   15.8530 C.3       2 GLC5        0.0000 
     63 CA         31.3130   30.0450   16.8220 C.3       6 GLL5        0.0000 
     64 CA         30.9790   29.1403   18.8516 C.3       2 GLC5        0.0000 
@<TRIPOS>BOND
@<TRIPOS>SUBSTRUCTURE
     1 SEC2       20 GROUP        1 X    SEC  0     ROOT SEC X 2
     2 GLC5        1 GROUP        1 X    GLC  0     **** GLC X 6
     3 SEP2       22 GROUP        1 Y    SEP  0     ROOT SEP Y 9
     4 GLP5        3 GROUP        1 Y    GLP  0     **** GLP Y 13
     5 SEL2       21 GROUP        1 Z    SEL  0     ROOT SEL Z 16
     6 GLL5        2 GROUP        1 Z    GLL  0     **** GLL Z 20
@<TRIPOS>SET

