#    Name: 2rkv_ZBA_1_ligand
#    Modification time : Tue Mar 25 00:03:29 2014

@<TRIPOS>MOLECULE
2rkv_ZBA_1_ligand
   63    66     1     0     0
SMALL
NO_CHARGES


@<TRIPOS>ATOM
      1 O18        30.2890   29.1090   11.0080 O.2       1 ZBA454      0.0000 
      2 C44        29.8620   30.1840   10.8860 C.2       1 ZBA454      0.0000 
      3 C45        29.8010   30.9670    9.6250 C.3       1 ZBA454      0.0000 
      4 C46        28.4490   31.0090    9.0810 C.2       1 ZBA454      0.0000 
      5 C48        27.9700   29.6770    8.8130 C.3       1 ZBA454      0.0000 
      6 C47        28.2590   31.6770    7.7540 C.2       1 ZBA454      0.0000 
      7 O17        29.3240   30.8360   11.9220 O.3       1 ZBA454      0.0000 
      8 C31        29.0810   30.1780   13.1750 C.3       1 ZBA454      0.0000 
      9 C30        30.2880   30.1800   14.0520 C.3       1 ZBA454      0.0000 
     10 C32        27.8900   30.8490   13.7490 C.2       1 ZBA454      0.0000 
     11 C39        26.6370   30.7080   12.9150 C.3       1 ZBA454      0.0000 
     12 C33        27.9530   31.5250   14.8540 C.2       1 ZBA454      0.0000 
     13 C34        29.1750   31.6830   15.6750 C.3       1 ZBA454      0.0000 
     14 O10        29.0420   30.6950   16.7160 O.3       1 ZBA454      0.0000 
     15 C29        30.4900   31.4260   14.9140 C.3       1 ZBA454      0.0000 
     16 C38        30.7640   32.6280   14.0170 C.3       1 ZBA454      0.0000 
     17 O12        31.5360   32.2410   12.8910 O.3       1 ZBA454      0.0000 
     18 C40        32.4800   33.0250   12.3970 C.2       1 ZBA454      0.0000 
     19 C41        33.1190   32.3760   11.1920 C.3       1 ZBA454      0.0000 
     20 O13        32.8130   34.0340   12.8000 O.2       1 ZBA454      0.0000 
     21 C28        31.6700   31.2490   15.9600 C.3       1 ZBA454      0.0000 
     22 C37        33.0670   31.1460   15.3170 C.3       1 ZBA454      0.0000 
     23 C35        31.3130   30.0450   16.8220 C.3       1 ZBA454      0.0000 
     24 C25        30.1330   30.5390   17.5750 C.3       1 ZBA454      0.0000 
     25 C36        31.8010   28.6970   16.7480 C.3       1 ZBA454      0.0000 
     26 O11        32.3900   29.5960   17.6570 O.3       1 ZBA454      0.0000 
     27 C27        31.5840   32.3690   17.0500 C.3       1 ZBA454      0.0000 
     28 C26        30.6390   31.8400   18.1130 C.3       1 ZBA454      0.0000 
     29 O16        29.6070   32.7330   18.4250 O.3       1 ZBA454      0.0000 
     30 O14        32.8910   32.4460   17.6280 O.3       1 ZBA454      0.0000 
     31 C42        33.4360   33.5110   18.2030 C.2       1 ZBA454      0.0000 
     32 O15        34.5310   33.4990   18.6640 O.2       1 ZBA454      0.0000 
     33 C43        32.5190   34.6200   18.2350 C.3       1 ZBA454      0.0000 
     34 H          30.4936   30.5199    8.8892 H         1 ZBA454      0.0000 
     35 H          30.1651   31.9921    9.8192 H         1 ZBA454      0.0000 
     36 H          28.7985   29.1315   12.9616 H         1 ZBA454      0.0000 
     37 H          31.2019   30.0398   13.4275 H         1 ZBA454      0.0000 
     38 H          30.2581   29.2930   14.7281 H         1 ZBA454      0.0000 
     39 H          27.1075   32.0282   15.2605 H         1 ZBA454      0.0000 
     40 H          29.2033   32.6623   16.1069 H         1 ZBA454      0.0000 
     41 H          31.2787   33.3871   14.6254 H         1 ZBA454      0.0000 
     42 H          29.7921   33.0514   13.7215 H         1 ZBA454      0.0000 
     43 H          29.9595   29.8799   18.3921 H         1 ZBA454      0.0000 
     44 H          32.3531   28.5886   15.9588 H         1 ZBA454      0.0000 
     45 H          31.1868   28.0983   17.1995 H         1 ZBA454      0.0000 
     46 H          31.2432   33.2318   16.6310 H         1 ZBA454      0.0000 
     47 H          31.2590   31.6033   18.9868 H         1 ZBA454      0.0000 
     48 H          28.5485   29.2005    8.1509 H         1 ZBA454      0.0000 
     49 H          27.9489   29.1163    9.6408 H         1 ZBA454      0.0000 
     50 H          27.0422   29.6840    8.4400 H         1 ZBA454      0.0000 
     51 H          26.7547   31.0933   11.9998 H         1 ZBA454      0.0000 
     52 H          26.3744   29.7502   12.7982 H         1 ZBA454      0.0000 
     53 H          25.8584   31.1766   13.3324 H         1 ZBA454      0.0000 
     54 H          33.8372   32.9498   10.7983 H         1 ZBA454      0.0000 
     55 H          33.5385   31.4978   11.4219 H         1 ZBA454      0.0000 
     56 H          32.4527   32.2017   10.4670 H         1 ZBA454      0.0000 
     57 H          33.7847   31.0333   16.0041 H         1 ZBA454      0.0000 
     58 H          33.1326   30.3665   14.6941 H         1 ZBA454      0.0000 
     59 H          33.2936   31.9638   14.7880 H         1 ZBA454      0.0000 
     60 H          32.9234   35.4238   18.6712 H         1 ZBA454      0.0000 
     61 H          32.2375   34.8958   17.3159 H         1 ZBA454      0.0000 
     62 H          31.6863   34.3988   18.7426 H         1 ZBA454      0.0000 
     63 H          29.3621   32.5247   19.3719 H         1 ZBA454      0.0000 
@<TRIPOS>BOND
     1    2    1 2    
     2    3    2 1    
     3    7    2 1    
     4    4    3 1    
     5   34    3 1    
     6   35    3 1    
     7    5    4 1    
     8    6    4 2    
     9   48    5 1    
    10   49    5 1    
    11   50    5 1    
    12    8    7 1    
    13    9    8 1    
    14   10    8 1    
    15   36    8 1    
    16   15    9 1    
    17   37    9 1    
    18   38    9 1    
    19   11   10 1    
    20   12   10 2    
    21   51   11 1    
    22   52   11 1    
    23   53   11 1    
    24   13   12 1    
    25   39   12 1    
    26   14   13 1    
    27   15   13 1    
    28   40   13 1    
    29   24   14 1    
    30   16   15 1    
    31   21   15 1    
    32   17   16 1    
    33   41   16 1    
    34   42   16 1    
    35   18   17 1    
    36   19   18 1    
    37   20   18 2    
    38   54   19 1    
    39   55   19 1    
    40   56   19 1    
    41   22   21 1    
    42   23   21 1    
    43   27   21 1    
    44   57   22 1    
    45   58   22 1    
    46   59   22 1    
    47   24   23 1    
    48   25   23 1    
    49   26   23 1    
    50   28   24 1    
    51   43   24 1    
    52   26   25 1    
    53   44   25 1    
    54   45   25 1    
    55   28   27 1    
    56   30   27 1    
    57   46   27 1    
    58   29   28 1    
    59   47   28 1    
    60   63   29 1    
    61   31   30 1    
    62   32   31 2    
    63   33   31 1    
    64   60   33 1    
    65   61   33 1    
    66   62   33 1    
@<TRIPOS>SUBSTRUCTURE
     1 ZBA454      1 GROUP   
@<TRIPOS>SET

