#    Name: 4fsr_HKC_1_INTS_M
#    Modification time : Mon Mar 24 20:41:52 2014

@<TRIPOS>MOLECULE
4fsr_HKC_1_INTS_M
   53     0     6     0     0
SMALL
NO_CHARGES


@<TRIPOS>ATOM
      1 CA         21.2400   -1.6505    5.5775 C.3       2 GLC5        0.0000 
      2 CA         22.5740   -2.1060    7.0840 C.3       6 GLL5        0.0000 
      3 CA         19.9060   -1.1950    4.0710 C.3       4 GLP5        0.0000 
      4 CA         22.0735   -0.3405    6.7900 C.3       2 GLC5        0.0000 
      5 CA         21.5730    1.4250    6.4960 C.3       4 GLP5        0.0000 
      6 CA         22.4750   -1.7915    8.9685 C.3       2 GLC5        0.0000 
      7 CA         22.3760   -1.4770   10.8530 C.3       4 GLP5        0.0000 
      8 N          16.4985   -0.7105    8.2600 N.am      1 SEC2        0.0000 
      9 N          15.7490   -2.1390    8.9050 N.am      5 SEL2        0.0000 
     10 N          17.2480    0.7180    7.6150 N.am      3 SEP2        0.0000 
     11 CA         17.7560   -6.1900    8.6395 C.3       2 GLC5        0.0000 
     12 CA         17.7670   -5.0990   10.1690 C.3       6 GLL5        0.0000 
     13 CA         17.7450   -7.2810    7.1100 C.3       4 GLP5        0.0000 
     14 CA         17.9015   -3.8230   11.9305 C.3       2 GLC5        0.0000 
     15 CA         18.0360   -2.5470   13.6920 C.3       4 GLP5        0.0000 
     16 CA         11.4245   -2.4935    9.6615 C.3       2 GLC5        0.0000 
     17 CA         13.3300   -3.0060   10.5780 C.3       6 GLL5        0.0000 
     18 CA          9.5190   -1.9810    8.7450 C.3       4 GLP5        0.0000 
     19 CA         13.2235   -7.1310   10.9240 C.3       2 GLC5        0.0000 
     20 CA         13.3440   -5.4560   11.8600 C.3       6 GLL5        0.0000 
     21 CA         13.1030   -8.8060    9.9880 C.3       4 GLP5        0.0000 
     22 CA         15.1965   -3.3550   11.9020 C.3       2 GLC5        0.0000 
     23 CA         14.4530   -5.0420   11.1480 C.3       6 GLL5        0.0000 
     24 CA         15.9400   -1.6680   12.6560 C.3       4 GLP5        0.0000 
     25 N           8.9570   -7.5700   13.8985 N.am      1 SEC2        0.0000 
     26 N           9.6420   -6.3360   13.8470 N.am      5 SEL2        0.0000 
     27 N           8.2720   -8.8040   13.9500 N.am      3 SEP2        0.0000 
     28 CA         21.8908   -2.9338    9.7557 C.3       2 GLC5        0.0000 
     29 CA         21.3610   -3.8090    8.2600 C.3       6 GLL5        0.0000 
     30 CA         20.0504   -4.8701    7.0146 C.3       2 GLC5        0.0000 
     31 CA         21.4500   -4.9720    9.0570 C.3       6 GLL5        0.0000 
     32 CA         19.3260   -5.9680    5.6370 C.3       4 GLP5        0.0000 
     33 CA         20.9808   -2.4355    9.6590 C.3       2 GLC5        0.0000 
     34 CA         20.1440   -3.1540    8.1260 C.3       6 GLL5        0.0000 
     35 CA         18.7328   -6.1932    8.3858 C.3       2 GLC5        0.0000 
     36 CA         19.1140   -4.7720    9.5970 C.3       6 GLL5        0.0000 
     37 CA         16.6345   -2.6182   10.9552 C.3       2 GLC5        0.0000 
     38 CA         16.9430   -3.9830    9.6610 C.3       6 GLL5        0.0000 
     39 CA         17.3050   -4.4648    7.5757 C.3       2 GLC5        0.0000 
     40 CA         16.9530   -5.2410    5.9080 C.3       4 GLP5        0.0000 
     41 CA         14.1612   -5.8163    9.5272 C.3       2 GLC5        0.0000 
     42 CA         14.4660   -3.8090   10.5050 C.3       6 GLL5        0.0000 
     43 CA         13.8630   -7.2070    8.2280 C.3       4 GLP5        0.0000 
     44 CA         13.6550   -3.4928    8.5913 C.3       2 GLC5        0.0000 
     45 CA         13.4120   -3.5780    6.6410 C.3       4 GLP5        0.0000 
     46 CA         12.0393   -1.3745   11.2235 C.3       2 GLC5        0.0000 
     47 CA         11.3000    0.4600   11.5040 C.3       4 GLP5        0.0000 
     48 CA         10.5380   -4.1298   10.6167 C.3       2 GLC5        0.0000 
     49 CA         12.2270   -3.4120   11.3080 C.3       6 GLL5        0.0000 
     50 CA          8.8530   -4.2300    9.6020 C.3       4 GLP5        0.0000 
     51 CA         14.5013   -2.5389   11.7904 C.3       2 GLC5        0.0000 
     52 CA         12.7050   -2.9192   13.4083 C.3       2 GLC5        0.0000 
     53 CA         13.1870   -1.8090   15.1850 C.3       4 GLP5        0.0000 
@<TRIPOS>BOND
@<TRIPOS>SUBSTRUCTURE
     1 SEC2        8 GROUP        1 X    SEC  0     ROOT SEC X 2
     2 GLC5        1 GROUP        1 X    GLC  0     **** GLC X 6
     3 SEP2       10 GROUP        1 Y    SEP  0     ROOT SEP Y 9
     4 GLP5        3 GROUP        1 Y    GLP  0     **** GLP Y 13
     5 SEL2        9 GROUP        1 Z    SEL  0     ROOT SEL Z 16
     6 GLL5        2 GROUP        1 Z    GLL  0     **** GLL Z 20
@<TRIPOS>SET

