#    Name: 4fsr_HKC_1_ligand
#    Modification time : Mon Mar 24 20:41:52 2014

@<TRIPOS>MOLECULE
4fsr_HKC_1_ligand
   43    47     1     0     0
SMALL
NO_CHARGES


@<TRIPOS>ATOM
      1 C19        22.5740   -2.1060    7.0840 C.3       1 HKC300      0.0000 
      2 O2         22.5400   -3.3890    7.7070 O.3       1 HKC300      0.0000 
      3 C18        21.3610   -3.8090    8.2600 C.ar      1 HKC300      0.0000 
      4 C2         21.4500   -4.9720    9.0570 C.ar      1 HKC300      0.0000 
      5 O1         22.6860   -5.5600    9.0960 O.3       1 HKC300      0.0000 
      6 C1         22.8530   -6.7220    9.9060 C.3       1 HKC300      0.0000 
      7 C17        20.1440   -3.1540    8.1260 C.ar      1 HKC300      0.0000 
      8 C16        19.0270   -3.6340    8.8040 C.ar      1 HKC300      0.0000 
      9 C4         19.1140   -4.7720    9.5970 C.ar      1 HKC300      0.0000 
     10 C3         20.3270   -5.4390    9.7260 C.ar      1 HKC300      0.0000 
     11 C7         17.7150   -3.1540    8.8480 C.2       1 HKC300      0.0000 
     12 N1         16.8910   -2.0230    8.4000 N.pl3     1 HKC300      0.0000 
     13 N2         15.7490   -2.1390    8.9050 N.2       1 HKC300      0.0000 
     14 C8         15.6720   -3.3870    9.7580 C.2       1 HKC300      0.0000 
     15 C6         16.9430   -3.9830    9.6610 C.2       1 HKC300      0.0000 
     16 C5         17.7670   -5.0990   10.1690 C.3       1 HKC300      0.0000 
     17 C9         14.4660   -3.8090   10.5050 C.ar      1 HKC300      0.0000 
     18 C15        13.3300   -3.0060   10.5780 C.ar      1 HKC300      0.0000 
     19 C14        12.2270   -3.4120   11.3080 C.ar      1 HKC300      0.0000 
     20 C12        12.2190   -4.6470   11.9550 C.ar      1 HKC300      0.0000 
     21 C11        13.3440   -5.4560   11.8600 C.ar      1 HKC300      0.0000 
     22 C10        14.4530   -5.0420   11.1480 C.ar      1 HKC300      0.0000 
     23 C13        11.0470   -5.0830   12.7380 C.2       1 HKC300      0.0000 
     24 N6          9.8740   -4.3910   12.9050 N.2       1 HKC300      0.0000 
     25 N5          9.0340   -5.2060   13.5810 N.2       1 HKC300      0.0000 
     26 N4          9.6420   -6.3360   13.8470 N.2       1 HKC300      0.0000 
     27 N3         10.9110   -6.3000   13.3560 N.pl3     1 HKC300      0.0000 
     28 H          20.0669   -2.3219    7.5318 H         1 HKC300      0.0000 
     29 H          20.3912   -6.2782   10.3173 H         1 HKC300      0.0000 
     30 H          17.2807   -1.3618    7.8120 H         1 HKC300      0.0000 
     31 H          17.8115   -5.0823   11.2299 H         1 HKC300      0.0000 
     32 H          17.4255   -6.0267    9.7811 H         1 HKC300      0.0000 
     33 H          13.3151   -2.1003   10.0813 H         1 HKC300      0.0000 
     34 H          11.3992   -2.7976   11.3772 H         1 HKC300      0.0000 
     35 H          13.3482   -6.3788   12.3291 H         1 HKC300      0.0000 
     36 H          15.2861   -5.6537   11.0900 H         1 HKC300      0.0000 
     37 H          11.5697   -6.9737   13.4238 H         1 HKC300      0.0000 
     38 H          23.4801   -1.8952    6.7171 H         1 HKC300      0.0000 
     39 H          21.9282   -2.0455    6.3229 H         1 HKC300      0.0000 
     40 H          22.3403   -1.3753    7.7255 H         1 HKC300      0.0000 
     41 H          23.7897   -7.0700    9.8677 H         1 HKC300      0.0000 
     42 H          22.6480   -6.5373   10.8672 H         1 HKC300      0.0000 
     43 H          22.2517   -7.4665    9.6159 H         1 HKC300      0.0000 
@<TRIPOS>BOND
     1    2    1 1    
     2   38    1 1    
     3   39    1 1    
     4   40    1 1    
     5    3    2 1    
     6    4    3 ar   
     7    7    3 ar   
     8    5    4 1    
     9   10    4 ar   
    10    6    5 1    
    11   41    6 1    
    12   42    6 1    
    13   43    6 1    
    14    8    7 ar   
    15   28    7 1    
    16    9    8 ar   
    17   11    8 1    
    18   10    9 ar   
    19   16    9 1    
    20   29   10 1    
    21   12   11 1    
    22   15   11 2    
    23   13   12 1    
    24   30   12 1    
    25   14   13 2    
    26   15   14 1    
    27   17   14 1    
    28   16   15 1    
    29   31   16 1    
    30   32   16 1    
    31   18   17 ar   
    32   22   17 ar   
    33   19   18 ar   
    34   33   18 1    
    35   20   19 ar   
    36   34   19 1    
    37   21   20 ar   
    38   23   20 1    
    39   22   21 ar   
    40   35   21 1    
    41   36   22 1    
    42   24   23 2    
    43   27   23 1    
    44   25   24 1    
    45   26   25 2    
    46   27   26 1    
    47   37   27 1    
@<TRIPOS>SUBSTRUCTURE
     1 HKC300      1 GROUP   
@<TRIPOS>SET

