#    Name: 1rrv_TYD_2_INTS_M
#    Modification time : Tue Mar 25 01:08:08 2014

@<TRIPOS>MOLECULE
1rrv_TYD_2_INTS_M
   62     0     9     0     0
SMALL
NO_CHARGES


@<TRIPOS>ATOM
      1 N          -3.0995   51.7495   94.4365 N.am      2 SEC2        0.0000 
      2 N          -3.1770   51.2130   93.1350 N.am      8 SEL2        0.0000 
      3 N          -3.0220   52.2860   95.7380 N.am      5 SEP2        0.0000 
      4 N          -0.0190   48.6955   92.9295 N.am      2 SEC2        0.0000 
      5 N          -1.5220   49.2940   93.4870 N.am      8 SEL2        0.0000 
      6 N           1.4840   48.0970   92.3720 N.am      5 SEP2        0.0000 
      7 N          -2.0525   49.3670   94.9980 N.am      2 SEC2        0.0000 
      8 N          -2.5830   49.4400   96.5090 N.am      5 SEP2        0.0000 
      9 N          -1.4925   48.2550   94.3380 N.am      2 SEC2        0.0000 
     10 N          -1.4630   47.2160   95.1890 N.am      5 SEP2        0.0000 
     11 N          -2.3355   50.4020   87.9270 N.am      2 SEC2        0.0000 
     12 N          -2.1680   49.5950   88.8540 N.am      8 SEL2        0.0000 
     13 N          -2.5030   51.2090   87.0000 N.am      5 SEP2        0.0000 
     14 N          -3.6160   49.7885   89.1090 N.am      2 SEC2        0.0000 
     15 N          -5.0640   49.9820   89.3640 N.am      5 SEP2        0.0000 
     16 N          -1.9905   48.5295   88.0715 N.am      2 SEC2        0.0000 
     17 N          -1.8130   47.4640   87.2890 N.am      5 SEP2        0.0000 
     18 N          -0.1680   47.2555   89.5685 N.am      2 SEC2        0.0000 
     19 N          -0.6450   48.3310   90.4290 N.am      8 SEL2        0.0000 
     20 N           0.3090   46.1800   88.7080 N.am      5 SEP2        0.0000 
     21 N          -1.2290   47.8975   88.8590 N.am      2 SEC2        0.0000 
     22 N           0.4195   48.2140   91.4005 N.am      2 SEC2        0.0000 
     23 N           0.3160   51.1130   91.1960 N.am      2 SEC2        0.0000 
     24 N          -0.6690   50.8680   90.4450 N.am      8 SEL2        0.0000 
     25 N           1.3010   51.3580   91.9470 N.am      5 SEP2        0.0000 
     26 N          -2.7105   48.0285   94.3040 N.am      2 SEC2        0.0000 
     27 N          -3.9580   48.8410   93.4190 N.am      8 SEL2        0.0000 
     28 CA         -4.6750   50.1635   94.5410 C.3       3 GLC5        0.0000 
     29 CA         -5.3060   49.0090   92.9860 C.3       9 GLL5        0.0000 
     30 CA         -4.0440   51.3180   96.0960 C.3       6 GLP5        0.0000 
     31 CA         -7.9655   48.3310   94.2470 C.3       3 GLC5        0.0000 
     32 CA         -6.0370   47.7330   95.0950 C.3       9 GLL5        0.0000 
     33 CA         -9.8940   48.9290   93.3990 C.3       6 GLP5        0.0000 
     34 CA         -5.0405   49.5255   95.5955 C.3       3 GLC5        0.0000 
     35 CA         -5.0775   44.7595   95.8725 C.3       3 GLC5        0.0000 
     36 CA         -6.5410   46.3030   95.3350 C.3       9 GLL5        0.0000 
     37 CA         -3.6140   43.2160   96.4100 C.3       6 GLP5        0.0000 
     38 N          -7.4255   42.3210   96.5285 N.am      2 SEC2        0.0000 
     39 N          -7.4510   43.4090   95.1700 N.am      8 SEL2        0.0000 
     40 N          -7.4000   41.2330   97.8870 N.am      5 SEP2        0.0000 
     41 O          -6.6920   41.0085   94.6740 O.2       1 ALC1        0.0000 
     42 O          -6.1070   42.0680   93.9290 O.2       7 ALL1        0.0000 
     43 O          -7.2770   39.9490   95.4190 O.2       4 ALP1        0.0000 
     44 N          -5.9055   39.4250   93.0745 N.am      2 SEC2        0.0000 
     45 N          -4.8030   40.6510   92.7490 N.am      8 SEL2        0.0000 
     46 N          -7.0080   38.1990   93.4000 N.am      5 SEP2        0.0000 
     47 CA         -1.4375   43.7980   91.0895 C.3       3 GLC5        0.0000 
     48 CA         -3.3200   42.8170   91.5090 C.3       9 GLL5        0.0000 
     49 CA          0.4450   44.7790   90.6700 C.3       6 GLP5        0.0000 
     50 CA         -5.4055   45.3250   91.1045 C.3       3 GLC5        0.0000 
     51 CA         -4.8570   44.1980   92.9090 C.3       9 GLL5        0.0000 
     52 CA         -5.9540   46.4520   89.3000 C.3       6 GLP5        0.0000 
     53 CA         -5.4968   49.7048   91.8715 C.3       3 GLC5        0.0000 
     54 CA         -6.2050   47.9440   93.5980 C.3       9 GLL5        0.0000 
     55 CA         -5.2380   50.9330   90.4510 C.3       6 GLP5        0.0000 
     56 CA         -7.5158   49.0373   92.7360 C.3       3 GLC5        0.0000 
     57 CA         -9.2760   49.5980   92.1800 C.3       6 GLP5        0.0000 
     58 CA         -6.2260   47.4780   97.2480 C.3       3 GLC5        0.0000 
     59 CA         -6.1630   47.9380   99.2810 C.3       6 GLP5        0.0000 
     60 CA         -3.4968   43.1667   93.9868 C.3       3 GLC5        0.0000 
     61 CA         -4.4320   42.9930   92.4950 C.3       9 GLL5        0.0000 
     62 CA         -2.6270   42.7820   95.5180 C.3       6 GLP5        0.0000 
@<TRIPOS>BOND
@<TRIPOS>SUBSTRUCTURE
     1 ALC1       41 GROUP        1 X    ALC  0     ROOT ALC X 1
     2 SEC2        1 GROUP        1 X    SEC  0     **** SEC X 2
     3 GLC5       28 GROUP        1 X    GLC  0     **** GLC X 6
     4 ALP1       43 GROUP        1 Y    ALP  0     ROOT ALP Y 8
     5 SEP2        3 GROUP        1 Y    SEP  0     **** SEP Y 9
     6 GLP5       30 GROUP        1 Y    GLP  0     **** GLP Y 13
     7 ALL1       42 GROUP        1 Z    ALL  0     ROOT ALL Z 15
     8 SEL2        2 GROUP        1 Z    SEL  0     **** SEL Z 16
     9 GLL5       29 GROUP        1 Z    GLL  0     **** GLL Z 20
@<TRIPOS>SET

