#    Name: 1rrv_TYD_2_ligand
#    Modification time : Tue Mar 25 01:08:08 2014

@<TRIPOS>MOLECULE
1rrv_TYD_2_ligand
   38    39     1     0     0
SMALL
NO_CHARGES


@<TRIPOS>ATOM
      1 PA         -2.7830   49.7960   92.9040 P.3       1 TYD1004     0.0000 
      2 O1A        -3.1770   51.2130   93.1350 O.co2     1 TYD1004     0.0000 
      3 O2A        -1.5220   49.2940   93.4870 O.co2     1 TYD1004     0.0000 
      4 O3A        -2.6540   49.5760   91.2970 O.3       1 TYD1004     0.0000 
      5 PB         -1.4600   49.5920   90.1960 P.3       1 TYD1004     0.0000 
      6 O1B        -2.1680   49.5950   88.8540 O.co2     1 TYD1004     0.0000 
      7 O2B        -0.6450   48.3310   90.4290 O.co2     1 TYD1004     0.0000 
      8 O3B        -0.6690   50.8680   90.4450 O.co2     1 TYD1004     0.0000 
      9 O5'        -3.9580   48.8410   93.4190 O.3       1 TYD1004     0.0000 
     10 C5'        -5.3060   49.0090   92.9860 C.3       1 TYD1004     0.0000 
     11 C4'        -6.2050   47.9440   93.5980 C.3       1 TYD1004     0.0000 
     12 O4'        -5.9480   46.6240   93.0660 O.3       1 TYD1004     0.0000 
     13 C3'        -6.0370   47.7330   95.0950 C.3       1 TYD1004     0.0000 
     14 O3'        -6.8550   48.6580   95.7960 O.3       1 TYD1004     0.0000 
     15 C2'        -6.5410   46.3030   95.3350 C.3       1 TYD1004     0.0000 
     16 C1'        -6.5610   45.6880   93.9310 C.3       1 TYD1004     0.0000 
     17 N1         -5.8910   44.3780   93.8060 N.am      1 TYD1004     0.0000 
     18 C2         -6.5500   43.2940   94.3570 C.2       1 TYD1004     0.0000 
     19 O2         -7.4510   43.4090   95.1700 O.2       1 TYD1004     0.0000 
     20 N3         -6.1070   42.0680   93.9290 N.am      1 TYD1004     0.0000 
     21 C4         -5.0910   41.8140   93.0330 C.2       1 TYD1004     0.0000 
     22 O4         -4.8030   40.6510   92.7490 O.2       1 TYD1004     0.0000 
     23 C5         -4.4320   42.9930   92.4950 C.2       1 TYD1004     0.0000 
     24 C5M        -3.3200   42.8170   91.5090 C.3       1 TYD1004     0.0000 
     25 C6         -4.8570   44.1980   92.9090 C.2       1 TYD1004     0.0000 
     26 H          -5.3930   48.9330   91.8910 H         1 TYD1004     0.0000 
     27 H          -5.7058   49.9930   93.2761 H         1 TYD1004     0.0000 
     28 H          -7.2482   48.1945   93.4234 H         1 TYD1004     0.0000 
     29 H          -5.0199   47.7804   95.3386 H         1 TYD1004     0.0000 
     30 H          -7.5230   46.3318   95.7278 H         1 TYD1004     0.0000 
     31 H          -5.8533   45.7799   95.9457 H         1 TYD1004     0.0000 
     32 H          -7.6190   45.5820   93.6475 H         1 TYD1004     0.0000 
     33 H          -6.6112   41.2003   94.3404 H         1 TYD1004     0.0000 
     34 H          -4.3805   45.0714   92.5340 H         1 TYD1004     0.0000 
     35 H          -2.9450   43.6950   91.2114 H         1 TYD1004     0.0000 
     36 H          -2.5623   42.2900   91.8939 H         1 TYD1004     0.0000 
     37 H          -3.6248   42.3350   90.6876 H         1 TYD1004     0.0000 
     38 H          -6.8926   49.4667   95.2090 H         1 TYD1004     0.0000 
@<TRIPOS>BOND
     1    2    1 ar   
     2    3    1 ar   
     3    4    1 1    
     4    9    1 1    
     5    5    4 1    
     6    6    5 ar   
     7    7    5 ar   
     8    8    5 ar   
     9   10    9 1    
    10   11   10 1    
    11   26   10 1    
    12   27   10 1    
    13   12   11 1    
    14   13   11 1    
    15   28   11 1    
    16   16   12 1    
    17   14   13 1    
    18   15   13 1    
    19   29   13 1    
    20   38   14 1    
    21   16   15 1    
    22   30   15 1    
    23   31   15 1    
    24   17   16 1    
    25   32   16 1    
    26   18   17 1    
    27   25   17 1    
    28   19   18 2    
    29   20   18 1    
    30   21   20 1    
    31   33   20 1    
    32   22   21 2    
    33   23   21 1    
    34   24   23 1    
    35   25   23 2    
    36   35   24 1    
    37   36   24 1    
    38   37   24 1    
    39   34   25 1    
@<TRIPOS>SUBSTRUCTURE
     1 TYD1004     1 GROUP   
@<TRIPOS>SET

