#    Name: 2e9a_B28_1_INTS_M
#    Modification time : Tue Mar 25 10:46:02 2014

@<TRIPOS>MOLECULE
2e9a_B28_1_INTS_M
   69     0     9     0     0
SMALL
NO_CHARGES


@<TRIPOS>ATOM
      1 CA         42.3950   38.2145   60.6280 C.3       3 GLC5        0.0000 
      2 CA         42.9500   36.8530   58.9680 C.3       9 GLL5        0.0000 
      3 CA         41.8400   39.5760   62.2880 C.3       6 GLP5        0.0000 
      4 CA         41.9040   39.5875   59.2295 C.3       3 GLC5        0.0000 
      5 CA         41.9190   37.6490   58.4780 C.3       9 GLL5        0.0000 
      6 CA         41.8890   41.5260   59.9810 C.3       6 GLP5        0.0000 
      7 CA         42.0700   34.3420   59.3455 C.3       3 GLC5        0.0000 
      8 CA         42.4350   35.1660   57.3380 C.3       9 GLL5        0.0000 
      9 CA         41.7050   33.5180   61.3530 C.3       6 GLP5        0.0000 
     10 CA         41.0960   40.4555   58.3775 C.3       3 GLC5        0.0000 
     11 CA         40.3030   39.3850   56.7740 C.3       9 GLL5        0.0000 
     12 CA         38.0600   41.5665   58.5805 C.3       3 GLC5        0.0000 
     13 CA         38.9940   42.5280   56.9750 C.3       9 GLL5        0.0000 
     14 CA         37.1260   40.6050   60.1860 C.3       6 GLP5        0.0000 
     15 CA         40.4415   42.0270   58.4780 C.3       3 GLC5        0.0000 
     16 NZ         39.7600   46.2080   58.7010 N.4       2 LYC4        0.0000 
     17 NZ         39.2680   45.0010   58.2140 N.4       8 LYL4        0.0000 
     18 NZ         40.6610   48.5360   58.5890 N.4       5 LYP4        0.0000 
     19 N          39.7600   46.2080   58.7010 N.am      1 SEC2        0.0000 
     20 N          39.2680   45.0010   58.2140 N.am      7 SEL2        0.0000 
     21 N          40.2520   47.4150   59.1880 N.am      4 SEP2        0.0000 
     22 N          41.7835   43.2905   58.0665 N.am      1 SEC2        0.0000 
     23 N          41.3280   44.0040   56.9690 N.am      7 SEL2        0.0000 
     24 N          42.2390   42.5770   59.1640 N.am      4 SEP2        0.0000 
     25 N          39.7745   45.0195   54.3115 N.am      1 SEC2        0.0000 
     26 N          39.3110   44.9280   55.6410 N.am      7 SEL2        0.0000 
     27 N          40.2380   45.1110   52.9820 N.am      4 SEP2        0.0000 
     28 N          38.1995   45.3180   54.4690 N.am      1 SEC2        0.0000 
     29 N          37.0880   45.7080   53.2970 N.am      4 SEP2        0.0000 
     30 N          35.6550   41.1510   58.2245 N.am      1 SEC2        0.0000 
     31 N          36.4970   41.2590   56.9970 N.am      7 SEL2        0.0000 
     32 N          34.8130   41.0430   59.4520 N.am      4 SEP2        0.0000 
     33 N          36.3175   43.5170   59.1935 N.am      1 SEC2        0.0000 
     34 N          36.6450   43.6400   57.9780 N.am      7 SEL2        0.0000 
     35 N          35.9900   43.3940   60.4090 N.am      4 SEP2        0.0000 
     36 N          36.9365   44.5120   54.3760 N.am      1 SEC2        0.0000 
     37 N          36.7850   43.3160   55.4550 N.am      7 SEL2        0.0000 
     38 N          36.7830   44.8230   55.6125 N.am      1 SEC2        0.0000 
     39 N          36.7810   46.3300   55.7700 N.am      4 SEP2        0.0000 
     40 N          38.6640   40.4980   58.4475 N.am      1 SEC2        0.0000 
     41 N          39.3530   41.9700   58.2420 N.am      7 SEL2        0.0000 
     42 N          37.9750   39.0260   58.6530 N.am      4 SEP2        0.0000 
     43 CA         43.9610   33.4438   60.3402 C.3       3 GLC5        0.0000 
     44 CA         44.2630   33.4480   58.5960 C.3       9 GLL5        0.0000 
     45 CA         43.1360   33.8410   61.8620 C.3       6 GLP5        0.0000 
     46 CA         46.9428   31.2640   59.2302 C.3       3 GLC5        0.0000 
     47 CA         45.3090   32.6450   59.0410 C.3       9 GLL5        0.0000 
     48 CA         48.0510   29.5990   59.0640 C.3       6 GLP5        0.0000 
     49 CA         44.7495   33.8683   60.8732 C.3       3 GLC5        0.0000 
     50 CA         46.3600   33.2130   59.7520 C.3       9 GLL5        0.0000 
     51 CA         47.9760   34.7913   58.8623 C.3       3 GLC5        0.0000 
     52 CA         46.3660   34.5780   60.0170 C.3       9 GLL5        0.0000 
     53 CA         49.5890   35.6870   57.8400 C.3       6 GLP5        0.0000 
     54 CA         43.9625   34.4682   60.5397 C.3       3 GLC5        0.0000 
     55 CA         45.3170   35.3760   59.5730 C.3       9 GLL5        0.0000 
     56 CA         43.1098   35.0362   60.2728 C.3       3 GLC5        0.0000 
     57 CA         43.2170   35.6100   58.3990 C.3       9 GLL5        0.0000 
     58 CA         40.8153   33.9012   57.3015 C.3       3 GLC5        0.0000 
     59 CA         39.7100   32.2390   57.5100 C.3       6 GLP5        0.0000 
     60 CA         40.1380   38.2402   54.8140 C.3       3 GLC5        0.0000 
     61 CA         40.1510   38.0040   56.8560 C.3       9 GLL5        0.0000 
     62 CA         40.0490   37.7860   52.8130 C.3       6 GLP5        0.0000 
     63 CA         37.2127   36.6287   55.3000 C.3       3 GLC5        0.0000 
     64 CA         39.0430   37.3940   56.2780 C.3       9 GLL5        0.0000 
     65 CA         35.8570   35.4770   54.6520 C.3       6 GLP5        0.0000 
     66 CA         39.3088   37.7833   54.3805 C.3       3 GLC5        0.0000 
     67 CA         38.0940   38.1670   55.6180 C.3       9 GLL5        0.0000 
     68 CA         39.4278   38.8195   54.3167 C.3       3 GLC5        0.0000 
     69 CA         38.2520   39.5470   55.5330 C.3       9 GLL5        0.0000 
@<TRIPOS>BOND
@<TRIPOS>SUBSTRUCTURE
     1 SEC2       19 GROUP        1 X    SEC  0     ROOT SEC X 2
     2 LYC4       16 GROUP        1 X    LYC  0     **** LYC X 4
     3 GLC5        1 GROUP        1 X    GLC  0     **** GLC X 6
     4 SEP2       21 GROUP        1 Y    SEP  0     ROOT SEP Y 9
     5 LYP4       18 GROUP        1 Y    LYP  0     **** LYP Y 11
     6 GLP5        3 GROUP        1 Y    GLP  0     **** GLP Y 13
     7 SEL2       20 GROUP        1 Z    SEL  0     ROOT SEL Z 16
     8 LYL4       17 GROUP        1 Z    LYL  0     **** LYL Z 18
     9 GLL5        2 GROUP        1 Z    GLL  0     **** GLL Z 20
@<TRIPOS>SET

