#    Name: 2e9a_B28_1_ligand
#    Modification time : Tue Mar 25 10:46:02 2014

@<TRIPOS>MOLECULE
2e9a_B28_1_ligand
   45    47     1     0     0
SMALL
NO_CHARGES


@<TRIPOS>ATOM
      1 CAM        44.2630   33.4480   58.5960 C.ar      1 B28701      0.0000 
      2 CAI        45.3090   32.6450   59.0410 C.ar      1 B28701      0.0000 
      3 CAH        46.3600   33.2130   59.7520 C.ar      1 B28701      0.0000 
      4 CAJ        46.3660   34.5780   60.0170 C.ar      1 B28701      0.0000 
      5 CAN        45.3170   35.3760   59.5730 C.ar      1 B28701      0.0000 
      6 CAW        44.2610   34.8150   58.8620 C.ar      1 B28701      0.0000 
      7 CAX        43.2170   35.6100   58.3990 C.ar      1 B28701      0.0000 
      8 CAQ        42.9500   36.8530   58.9680 C.ar      1 B28701      0.0000 
      9 CAS        41.9190   37.6490   58.4780 C.ar      1 B28701      0.0000 
     10 CAP        42.4350   35.1660   57.3380 C.ar      1 B28701      0.0000 
     11 CAR        41.4060   35.9610   56.8480 C.ar      1 B28701      0.0000 
     12 CAY        41.1460   37.2050   57.4110 C.ar      1 B28701      0.0000 
     13 CAZ        40.1510   38.0040   56.8560 C.ar      1 B28701      0.0000 
     14 CAT        40.3030   39.3850   56.7740 C.ar      1 B28701      0.0000 
     15 CAO        39.0430   37.3940   56.2780 C.ar      1 B28701      0.0000 
     16 CAK        38.0940   38.1670   55.6180 C.ar      1 B28701      0.0000 
     17 CAL        38.2520   39.5470   55.5330 C.ar      1 B28701      0.0000 
     18 CAV        39.3610   40.1590   56.1080 C.ar      1 B28701      0.0000 
     19 CAU        39.6080   41.6530   55.8810 C.3       1 B28701      0.0000 
     20 CBA        38.9940   42.5280   56.9750 C.3       1 B28701      0.0000 
     21 PBB        39.7360   44.2330   56.8780 P.3       1 B28701      0.0000 
     22 OAD        39.2680   45.0010   58.2140 O.co2     1 B28701      0.0000 
     23 OAE        41.3280   44.0040   56.9690 O.co2     1 B28701      0.0000 
     24 OAA        39.3110   44.9280   55.6410 O.co2     1 B28701      0.0000 
     25 PBC        37.1480   42.7140   56.7590 P.3       1 B28701      0.0000 
     26 OAF        36.4970   41.2590   56.9970 O.co2     1 B28701      0.0000 
     27 OAG        36.6450   43.6400   57.9780 O.co2     1 B28701      0.0000 
     28 OAB        36.7850   43.3160   55.4550 O.co2     1 B28701      0.0000 
     29 OAC        39.3530   41.9700   58.2420 O.3       1 B28701      0.0000 
     30 H          43.4847   33.0287   58.0662 H         1 B28701      0.0000 
     31 H          45.3039   31.6377   58.8447 H         1 B28701      0.0000 
     32 H          47.1351   32.6222   60.0829 H         1 B28701      0.0000 
     33 H          47.1450   34.9971   60.5406 H         1 B28701      0.0000 
     34 H          45.3218   36.3868   59.7714 H         1 B28701      0.0000 
     35 H          43.5218   37.1860   59.7596 H         1 B28701      0.0000 
     36 H          41.7295   38.5646   58.9050 H         1 B28701      0.0000 
     37 H          42.6195   34.2456   56.9148 H         1 B28701      0.0000 
     38 H          40.8302   35.6254   56.0599 H         1 B28701      0.0000 
     39 H          41.1213   39.8360   57.2112 H         1 B28701      0.0000 
     40 H          38.9259   36.3755   56.3384 H         1 B28701      0.0000 
     41 H          37.2722   37.7176   55.1910 H         1 B28701      0.0000 
     42 H          37.5474   40.1152   55.0441 H         1 B28701      0.0000 
     43 H          39.1845   41.9417   54.9115 H         1 B28701      0.0000 
     44 H          40.6888   41.8343   55.8417 H         1 B28701      0.0000 
     45 H          40.3189   41.7268   58.1532 H         1 B28701      0.0000 
@<TRIPOS>BOND
     1    2    1 ar   
     2    6    1 ar   
     3   30    1 1    
     4    3    2 ar   
     5   31    2 1    
     6    4    3 ar   
     7   32    3 1    
     8    5    4 ar   
     9   33    4 1    
    10    6    5 ar   
    11   34    5 1    
    12    7    6 1    
    13    8    7 ar   
    14   10    7 ar   
    15    9    8 ar   
    16   35    8 1    
    17   12    9 ar   
    18   36    9 1    
    19   11   10 ar   
    20   37   10 1    
    21   12   11 ar   
    22   38   11 1    
    23   13   12 1    
    24   14   13 ar   
    25   15   13 ar   
    26   18   14 ar   
    27   39   14 1    
    28   16   15 ar   
    29   40   15 1    
    30   17   16 ar   
    31   41   16 1    
    32   18   17 ar   
    33   42   17 1    
    34   19   18 1    
    35   20   19 1    
    36   43   19 1    
    37   44   19 1    
    38   21   20 1    
    39   25   20 1    
    40   29   20 1    
    41   22   21 ar   
    42   23   21 ar   
    43   24   21 ar   
    44   26   25 ar   
    45   27   25 ar   
    46   28   25 ar   
    47   45   29 1    
@<TRIPOS>SUBSTRUCTURE
     1 B28701      1 GROUP   
@<TRIPOS>SET

