#    Name: 3thv_DDS_1_INTS_M
#    Modification time : Mon Mar 24 20:07:46 2014

@<TRIPOS>MOLECULE
3thv_DDS_1_INTS_M
   57     0    12     0     0
SMALL
NO_CHARGES


@<TRIPOS>ATOM
      1 CA        125.8905  -21.5795   36.8285 C.3       4 GLC5        0.0000 
      2 CA        124.5010  -22.7500   36.4920 C.3      12 GLL5        0.0000 
      3 CA        127.2800  -20.4090   37.1650 C.3       8 GLP5        0.0000 
      4 NZ        128.0915  -25.2640   44.4815 N.4       2 LYC4        0.0000 
      5 NZ        127.8450  -26.3150   43.4360 N.4      10 LYL4        0.0000 
      6 NZ        128.3380  -24.2130   45.5270 N.4       6 LYP4        0.0000 
      7 N         128.0915  -25.2640   44.4815 N.am      1 SEC2        0.0000 
      8 N         127.8450  -26.3150   43.4360 N.am      9 SEL2        0.0000 
      9 N         128.3380  -24.2130   45.5270 N.am      5 SEP2        0.0000 
     10 N         131.7155  -23.0855   41.5955 N.am      1 SEC2        0.0000 
     11 N         131.5310  -24.4440   41.0120 N.am      9 SEL2        0.0000 
     12 N         131.9000  -21.7270   42.1790 N.am      5 SEP2        0.0000 
     13 N         131.6205  -24.0445   39.7665 N.am      1 SEC2        0.0000 
     14 N         131.7100  -23.6450   38.5210 N.am      5 SEP2        0.0000 
     15 NZ        131.6600  -23.9535   46.6255 N.4       2 LYC4        0.0000 
     16 NZ        131.5240  -25.1860   45.9270 N.4      10 LYL4        0.0000 
     17 NZ        132.9510  -22.0760   47.2370 N.4       6 LYP4        0.0000 
     18 NZ        129.9310  -24.6995   45.7270 N.4       2 LYC4        0.0000 
     19 N         131.6600  -23.9535   46.6255 N.am      1 SEC2        0.0000 
     20 N         131.5240  -25.1860   45.9270 N.am      9 SEL2        0.0000 
     21 N         131.7960  -22.7210   47.3240 N.am      5 SEP2        0.0000 
     22 N         129.9310  -24.6995   45.7270 N.am      1 SEC2        0.0000 
     23 Zn        130.7155  -28.1850   43.0305 Zn        3 ZIC7        0.0000 
     24 Zn        129.6460  -27.9600   43.0360 Zn       11 ZIL7        0.0000 
     25 Zn        131.7850  -28.4100   43.0250 Zn        7 ZIP7        0.0000 
     26 Zn        131.8670  -27.6095   42.3265 Zn        3 ZIC7        0.0000 
     27 Zn        131.9490  -26.8090   41.6280 Zn       11 ZIL7        0.0000 
     28 N         133.0690  -26.5820   40.6035 N.am      1 SEC2        0.0000 
     29 N         131.9490  -26.8090   41.6280 N.am      9 SEL2        0.0000 
     30 N         134.1890  -26.3550   39.5790 N.am      5 SEP2        0.0000 
     31 Zn        132.0450  -27.7470   43.8190 Zn        3 ZIC7        0.0000 
     32 Zn        132.3050  -27.0840   44.6130 Zn       11 ZIL7        0.0000 
     33 N         131.6950  -23.3415   42.8140 N.am      1 SEC2        0.0000 
     34 N         131.4900  -24.9560   43.4490 N.am      9 SEL2        0.0000 
     35 NZ        133.7365  -23.7635   45.5145 N.4       2 LYC4        0.0000 
     36 NZ        133.6360  -25.0560   44.6870 N.4      10 LYL4        0.0000 
     37 N         134.3280  -25.3025   43.4600 N.am      1 SEC2        0.0000 
     38 N         133.6360  -25.0560   44.6870 N.am      9 SEL2        0.0000 
     39 N         135.0200  -25.5490   42.2330 N.am      5 SEP2        0.0000 
     40 N         133.7365  -23.7635   45.5145 N.am      1 SEC2        0.0000 
     41 N         133.8370  -22.4710   46.3420 N.am      5 SEP2        0.0000 
     42 N         126.7050  -28.3500   37.4395 N.am      1 SEC2        0.0000 
     43 N         127.3130  -27.3800   38.3790 N.am      9 SEL2        0.0000 
     44 N         126.0970  -29.3200   36.5000 N.am      5 SEP2        0.0000 
     45 CA        129.8025  -29.8050   40.0200 C.3       4 GLC5        0.0000 
     46 CA        128.8070  -27.8590   40.0950 C.3      12 GLL5        0.0000 
     47 CA        130.7980  -31.7510   39.9450 C.3       8 GLP5        0.0000 
     48 CA        125.9026  -21.7915   37.9210 C.3       4 GLC5        0.0000 
     49 CA        125.4040  -24.2210   38.0740 C.3      12 GLL5        0.0000 
     50 CA        129.9695  -25.4915   36.6755 C.3       4 GLC5        0.0000 
     51 CA        128.1480  -25.3350   37.5690 C.3      12 GLL5        0.0000 
     52 CA        131.3770  -25.4210   35.2170 C.3       8 GLP5        0.0000 
     53 CA        129.1215  -24.0645   38.6425 C.3       4 GLC5        0.0000 
     54 CA        129.6810  -22.5670   39.1510 C.3       8 GLP5        0.0000 
     55 CA        130.5206  -27.7238   38.9971 C.3       4 GLC5        0.0000 
     56 CA        128.9760  -25.7890   38.6990 C.3      12 GLL5        0.0000 
     57 CA        132.2280  -28.2540   38.5870 C.3       8 GLP5        0.0000 
@<TRIPOS>BOND
@<TRIPOS>SUBSTRUCTURE
     1 SEC2        7 GROUP        1 X    SEC  0     ROOT SEC X 2
     2 LYC4        4 GROUP        1 X    LYC  0     **** LYC X 4
     3 ZIC7       23 GROUP        1 X    ZIC  0     **** ZIC X 5
     4 GLC5        1 GROUP        1 X    GLC  0     **** GLC X 6
     5 SEP2        9 GROUP        1 Y    SEP  0     ROOT SEP Y 9
     6 LYP4        6 GROUP        1 Y    LYP  0     **** LYP Y 11
     7 ZIP7       25 GROUP        1 Y    ZIP  0     **** ZIP Y 12
     8 GLP5        3 GROUP        1 Y    GLP  0     **** GLP Y 13
     9 SEL2        8 GROUP        1 Z    SEL  0     ROOT SEL Z 16
    10 LYL4        5 GROUP        1 Z    LYL  0     **** LYL Z 18
    11 ZIL7       24 GROUP        1 Z    ZIL  0     **** ZIL Z 19
    12 GLL5        2 GROUP        1 Z    GLL  0     **** GLL Z 20
@<TRIPOS>SET

