#    Name: 3thv_DDS_1_ligand
#    Modification time : Mon Mar 24 20:07:46 2014

@<TRIPOS>MOLECULE
3thv_DDS_1_ligand
   41    43     1     0     0
SMALL
NO_CHARGES


@<TRIPOS>ATOM
      1 N1        123.8700  -22.0990   37.4670 N.ar      1 DDS201      0.0000 
      2 C2        124.5010  -22.7500   36.4920 C.ar      1 DDS201      0.0000 
      3 N3        125.2450  -23.8010   36.7880 N.ar      1 DDS201      0.0000 
      4 C4        125.4040  -24.2210   38.0740 C.ar      1 DDS201      0.0000 
      5 C5        124.7450  -23.5650   39.1060 C.ar      1 DDS201      0.0000 
      6 C6        123.9760  -22.4550   38.7640 C.ar      1 DDS201      0.0000 
      7 N6        123.2690  -21.6810   39.7600 N.pl3     1 DDS201      0.0000 
      8 N7        125.0840  -24.2050   40.2510 N.2       1 DDS201      0.0000 
      9 C8        125.9020  -25.2270   39.9490 C.2       1 DDS201      0.0000 
     10 N9        126.0640  -25.2450   38.6060 N.pl3     1 DDS201      0.0000 
     11 PA        128.8000  -26.8860   42.4430 P.3       1 DDS201      0.0000 
     12 PB        131.2200  -25.5630   42.0090 P.3       1 DDS201      0.0000 
     13 PG        132.2310  -25.6150   44.6740 P.3       1 DDS201      0.0000 
     14 C1'       126.8830  -26.1000   37.8110 C.3       1 DDS201      0.0000 
     15 O1A       127.8450  -26.3150   43.4360 O.co2     1 DDS201      0.0000 
     16 O1B       131.5310  -24.4440   41.0120 O.co2     1 DDS201      0.0000 
     17 O1G       131.5240  -25.1860   45.9270 O.co2     1 DDS201      0.0000 
     18 C2'       128.1480  -25.3350   37.5690 C.3       1 DDS201      0.0000 
     19 O2A       129.6460  -27.9600   43.0360 O.co2     1 DDS201      0.0000 
     20 O2B       131.9490  -26.8090   41.6280 O.co2     1 DDS201      0.0000 
     21 O2G       132.3050  -27.0840   44.6130 O.co2     1 DDS201      0.0000 
     22 C3'       128.9760  -25.7890   38.6990 C.3       1 DDS201      0.0000 
     23 O3A       129.6460  -25.6980   41.8850 O.3       1 DDS201      0.0000 
     24 O3B       131.4900  -24.9560   43.4490 O.3       1 DDS201      0.0000 
     25 O3G       133.6360  -25.0560   44.6870 O.co2     1 DDS201      0.0000 
     26 C4'       128.6630  -27.2670   38.7400 C.3       1 DDS201      0.0000 
     27 O4'       127.3130  -27.3800   38.3790 O.3       1 DDS201      0.0000 
     28 C5'       128.8070  -27.8590   40.0950 C.3       1 DDS201      0.0000 
     29 O5'       128.0470  -27.3800   41.1540 O.3       1 DDS201      0.0000 
     30 H         124.4056  -22.4284   35.5012 H         1 DDS201      0.0000 
     31 H         122.7791  -20.8760   39.4255 H         1 DDS201      0.0000 
     32 H         123.3286  -22.0150   40.7007 H         1 DDS201      0.0000 
     33 H         126.3039  -25.8401   40.5726 H         1 DDS201      0.0000 
     34 H         126.4454  -26.2618   36.8263 H         1 DDS201      0.0000 
     35 H         127.9577  -24.2940   37.6331 H         1 DDS201      0.0000 
     36 H         128.5755  -25.6284   36.6443 H         1 DDS201      0.0000 
     37 H         128.6648  -25.3358   39.6069 H         1 DDS201      0.0000 
     38 H         130.0085  -25.6511   38.4956 H         1 DDS201      0.0000 
     39 H         129.2906  -27.7766   38.0433 H         1 DDS201      0.0000 
     40 H         129.9278  -27.8181   40.3555 H         1 DDS201      0.0000 
     41 H         128.6581  -28.9945   39.9764 H         1 DDS201      0.0000 
@<TRIPOS>BOND
     1    2    1 ar   
     2    6    1 ar   
     3    3    2 ar   
     4   30    2 1    
     5    4    3 ar   
     6    5    4 ar   
     7   10    4 1    
     8    6    5 ar   
     9    8    5 1    
    10    7    6 1    
    11   31    7 1    
    12   32    7 1    
    13    9    8 2    
    14   10    9 1    
    15   33    9 1    
    16   14   10 1    
    17   15   11 ar   
    18   19   11 ar   
    19   23   11 1    
    20   29   11 1    
    21   16   12 ar   
    22   20   12 ar   
    23   23   12 1    
    24   24   12 1    
    25   17   13 ar   
    26   21   13 ar   
    27   24   13 1    
    28   25   13 ar   
    29   18   14 1    
    30   27   14 1    
    31   34   14 1    
    32   22   18 1    
    33   35   18 1    
    34   36   18 1    
    35   26   22 1    
    36   37   22 1    
    37   38   22 1    
    38   27   26 1    
    39   28   26 1    
    40   39   26 1    
    41   29   28 1    
    42   40   28 1    
    43   41   28 1    
@<TRIPOS>SUBSTRUCTURE
     1 DDS201      1 GROUP   
@<TRIPOS>SET

