#    Name: 2yac_937_1_INTS_M
#    Modification time : Tue Mar 25 08:00:38 2014

@<TRIPOS>MOLECULE
2yac_937_1_INTS_M
   89     0    12     0     0
SMALL
NO_CHARGES


@<TRIPOS>ATOM
      1 N         -44.1560   15.7330    6.7990 N.am      2 SEC2        0.0000 
      2 N         -43.9590   14.9870    8.0220 N.am     10 SEL2        0.0000 
      3 N         -44.3530   16.4790    5.5760 N.am      6 SEP2        0.0000 
      4 CA        -46.1685   13.5040    8.9770 C.3       4 GLC5        0.0000 
      5 CA        -44.1700   13.7410    8.2110 C.3      12 GLL5        0.0000 
      6 CA        -48.1670   13.2670    9.7430 C.3       8 GLP5        0.0000 
      7 CA        -45.8955   14.9130    7.6965 C.3       4 GLC5        0.0000 
      8 CA        -47.6210   16.0850    7.1820 C.3       8 GLP5        0.0000 
      9 CA        -43.2670   14.4940    6.5230 C.3       4 GLC5        0.0000 
     10 CA        -42.3640   15.2470    4.8350 C.3       8 GLP5        0.0000 
     11 CA        -44.3890   17.0585    7.8690 C.3       4 GLC5        0.0000 
     12 CA        -43.3490   15.7750    9.0310 C.3      12 GLL5        0.0000 
     13 CA        -45.4290   18.3420    6.7070 C.3       8 GLP5        0.0000 
     14 CA        -42.2950   16.1345    7.2665 C.3       4 GLC5        0.0000 
     15 CA        -41.2410   16.4940    5.5020 C.3       8 GLP5        0.0000 
     16 CA        -40.5305   13.5210   11.1715 C.3       4 GLC5        0.0000 
     17 CA        -41.4050   15.0950   12.2490 C.3      12 GLL5        0.0000 
     18 CA        -39.6560   11.9470   10.0940 C.3       8 GLP5        0.0000 
     19 CA        -44.1295   16.6245   10.8900 C.3       4 GLC5        0.0000 
     20 CA        -42.3310   15.9770   11.3250 C.3      12 GLL5        0.0000 
     21 CA        -45.9280   17.2720   10.4550 C.3       8 GLP5        0.0000 
     22 CA        -41.0350   17.4230   10.6440 C.3       4 GLC5        0.0000 
     23 CA        -39.7390   18.8690    9.9630 C.3       8 GLP5        0.0000 
     24 O         -44.7550   13.2960    5.8350 O.2       1 ALC1        0.0000 
     25 O         -44.7020   12.9080    7.2190 O.2       9 ALL1        0.0000 
     26 O         -44.8080   13.6840    4.4510 O.2       5 ALP1        0.0000 
     27 N         -39.9915   14.0470   16.1190 N.am      2 SEC2        0.0000 
     28 N         -39.9820   13.8150   14.7380 N.am     10 SEL2        0.0000 
     29 N         -40.0010   14.2790   17.5000 N.am      6 SEP2        0.0000 
     30 CA        -46.6350   12.3905    8.5135 C.3       4 GLC5        0.0000 
     31 CA        -45.1030   11.5140    7.2840 C.3      12 GLL5        0.0000 
     32 CA        -47.9785   14.6450    5.9275 C.3       4 GLC5        0.0000 
     33 CA        -48.3360   13.2050    4.6730 C.3      12 GLL5        0.0000 
     34 CA        -45.5355   11.5145    2.5630 C.3       4 GLC5        0.0000 
     35 CA        -46.8640   11.5500    4.2000 C.3      12 GLL5        0.0000 
     36 CA        -44.2070   11.4790    0.9260 C.3       8 GLP5        0.0000 
     37 CA        -46.0700    9.9900    4.0070 C.3       4 GLC5        0.0000 
     38 CA        -45.2760    8.4300    3.8140 C.3       8 GLP5        0.0000 
     39 O         -38.8180   11.3400   15.6085 O.2       1 ALC1        0.0000 
     40 O         -40.1710   11.6040   15.1920 O.2       9 ALL1        0.0000 
     41 O         -37.4650   11.0760   16.0250 O.2       5 ALP1        0.0000 
     42 CA        -42.1930   11.2280   10.2520 C.3       4 GLC5        0.0000 
     43 CA        -43.7590   10.7660   11.3500 C.3      12 GLL5        0.0000 
     44 CA        -40.6270   11.6900    9.1540 C.3       8 GLP5        0.0000 
     45 CA        -46.3025   10.3545   11.4270 C.3       4 GLC5        0.0000 
     46 CA        -44.4220    9.8750   12.4020 C.3      12 GLL5        0.0000 
     47 CA        -48.1830   10.8340   10.4520 C.3       8 GLP5        0.0000 
     48 CA        -45.8055    8.6790   12.8545 C.3       4 GLC5        0.0000 
     49 CA        -47.1890    7.4830   13.3070 C.3       8 GLP5        0.0000 
     50 OD1       -41.5505    6.1790    7.3355 O.co2     3 ASC3        0.0000 
     51 OD1       -41.7160    6.2730    9.2270 O.co2    11 ASL3        0.0000 
     52 OD1       -41.3850    6.0850    5.4440 O.co2     7 ASP3        0.0000 
     53 OD1       -41.8650    5.4825    8.1245 O.co2     3 ASC3        0.0000 
     54 OD1       -42.0140    4.6920    7.0220 O.co2     7 ASP3        0.0000 
     55 O         -41.8650    5.4825    8.1245 O.2       1 ALC1        0.0000 
     56 O         -41.7160    6.2730    9.2270 O.2       9 ALL1        0.0000 
     57 O         -42.0140    4.6920    7.0220 O.2       5 ALP1        0.0000 
     58 CA        -39.1720    7.2415    8.9510 C.3       4 GLC5        0.0000 
     59 CA        -41.3080    7.6880    9.0880 C.3      12 GLL5        0.0000 
     60 CA        -37.0360    6.7950    8.8140 C.3       8 GLP5        0.0000 
     61 CA        -42.7225    9.1395    6.1285 C.3       4 GLC5        0.0000 
     62 CA        -42.1850    8.3700    8.0100 C.3      12 GLL5        0.0000 
     63 CA        -43.2600    9.9090    4.2470 C.3       8 GLP5        0.0000 
     64 CA        -39.6025    4.2060    9.4290 C.3       4 GLC5        0.0000 
     65 CA        -40.7770    5.5980   10.1270 C.3      12 GLL5        0.0000 
     66 CA        -38.4280    2.8140    8.7310 C.3       8 GLP5        0.0000 
     67 CA        -38.9065    6.1965    9.4705 C.3       4 GLC5        0.0000 
     68 CA        -44.5689   15.9450   10.2203 C.3       4 GLC5        0.0000 
     69 CA        -42.9920   15.1850   10.1930 C.3      12 GLL5        0.0000 
     70 CA        -41.8415   16.8710   12.8700 C.3       4 GLC5        0.0000 
     71 CA        -41.8150   18.2060   13.9530 C.3       8 GLP5        0.0000 
     72 CA        -43.6142   13.0940   13.3645 C.3       4 GLC5        0.0000 
     73 CA        -41.8610   13.6450   12.3550 C.3      12 GLL5        0.0000 
     74 CA        -44.9360   12.8250   14.7810 C.3       8 GLP5        0.0000 
     75 CA        -43.9325   10.0010    5.9485 C.3       4 GLC5        0.0000 
     76 CA        -44.1950   10.5900    7.7200 C.3      12 GLL5        0.0000 
     77 CA        -47.2861   10.4896    8.7441 C.3       4 GLC5        0.0000 
     78 CA        -45.8160    8.7490    7.4230 C.3      12 GLL5        0.0000 
     79 CA        -45.8326    9.2876    5.4251 C.3       4 GLC5        0.0000 
     80 CA        -46.7930    9.7320    6.9560 C.3      12 GLL5        0.0000 
     81 CA        -49.1342   11.5950    6.9780 C.3       4 GLC5        0.0000 
     82 CA        -47.8580   11.9640    5.0760 C.3      12 GLL5        0.0000 
     83 CA        -49.9070   11.6840    8.9220 C.3       8 GLP5        0.0000 
     84 CA        -46.9227   13.1856    3.3856 C.3       4 GLC5        0.0000 
     85 CA        -46.3650   14.3040    2.2340 C.3       8 GLP5        0.0000 
     86 CA        -44.5132   11.5727   13.3285 C.3       4 GLC5        0.0000 
     87 CA        -40.4843    8.3420    7.2875 C.3       4 GLC5        0.0000 
     88 CA        -39.2220    8.6550    6.0260 C.3       8 GLP5        0.0000 
     89 CA        -41.1868    9.8595    8.8515 C.3       4 GLC5        0.0000 
@<TRIPOS>BOND
@<TRIPOS>SUBSTRUCTURE
     1 ALC1       24 GROUP        1 X    ALC  0     ROOT ALC X 1
     2 SEC2        1 GROUP        1 X    SEC  0     **** SEC X 2
     3 ASC3       50 GROUP        1 X    ASC  0     **** ASC X 3
     4 GLC5        4 GROUP        1 X    GLC  0     **** GLC X 6
     5 ALP1       26 GROUP        1 Y    ALP  0     ROOT ALP Y 8
     6 SEP2        3 GROUP        1 Y    SEP  0     **** SEP Y 9
     7 ASP3       52 GROUP        1 Y    ASP  0     **** ASP Y 10
     8 GLP5        6 GROUP        1 Y    GLP  0     **** GLP Y 13
     9 ALL1       25 GROUP        1 Z    ALL  0     ROOT ALL Z 15
    10 SEL2        2 GROUP        1 Z    SEL  0     **** SEL Z 16
    11 ASL3       51 GROUP        1 Z    ASL  0     **** ASL Z 17
    12 GLL5        5 GROUP        1 Z    GLL  0     **** GLL Z 20
@<TRIPOS>SET

