#    Name: 2yac_937_1_ligand
#    Modification time : Tue Mar 25 08:00:38 2014

@<TRIPOS>MOLECULE
2yac_937_1_ligand
   66    70     1     0     0
SMALL
NO_CHARGES


@<TRIPOS>ATOM
      1 N1        -43.9590   14.9870    8.0220 N.ar      1 937501      0.0000 
      2 C2        -44.1700   13.7410    8.2110 C.ar      1 937501      0.0000 
      3 N3        -43.8090   13.1160    9.4240 N.ar      1 937501      0.0000 
      4 C4        -43.3490   15.7750    9.0310 C.ar      1 937501      0.0000 
      5 C5        -42.9920   15.1850   10.1930 C.ar      1 937501      0.0000 
      6 C6        -43.2490   13.7560   10.3590 C.ar      1 937501      0.0000 
      7 C7        -41.4050   15.0950   12.2490 C.3       1 937501      0.0000 
      8 C8        -42.3310   15.9770   11.3250 C.3       1 937501      0.0000 
      9 C9        -41.8610   13.6450   12.3550 C.2       1 937501      0.0000 
     10 C10       -42.7240   13.0810   11.5410 C.2       1 937501      0.0000 
     11 N11       -42.9140   11.7630   11.9770 N.pl3     1 937501      0.0000 
     12 N12       -42.1370   11.5430   13.0760 N.2       1 937501      0.0000 
     13 C13       -41.4880   12.6220   13.3350 C.2       1 937501      0.0000 
     14 N14       -44.7020   12.9080    7.2190 N.pl3     1 937501      0.0000 
     15 C15       -40.5100   12.7420   14.4540 C.2       1 937501      0.0000 
     16 O16       -39.9820   13.8150   14.7380 O.2       1 937501      0.0000 
     17 C17       -45.1030   11.5140    7.2840 C.ar      1 937501      0.0000 
     18 C18       -44.1950   10.5900    7.7200 C.ar      1 937501      0.0000 
     19 C19       -44.5610    9.1340    7.7980 C.ar      1 937501      0.0000 
     20 C20       -45.8160    8.7490    7.4230 C.ar      1 937501      0.0000 
     21 C21       -46.7930    9.7320    6.9560 C.ar      1 937501      0.0000 
     22 C22       -46.4740   11.0500    6.8830 C.ar      1 937501      0.0000 
     23 O23       -47.3900   12.0330    6.4380 O.3       1 937501      0.0000 
     24 C24       -47.8580   11.9640    5.0760 C.3       1 937501      0.0000 
     25 F25       -48.8650   11.0480    4.9920 F         1 937501      0.0000 
     26 F26       -48.3360   13.2050    4.6730 F         1 937501      0.0000 
     27 F27       -46.8640   11.5500    4.2000 F         1 937501      0.0000 
     28 N28       -40.1710   11.6040   15.1920 N.am      1 937501      0.0000 
     29 C29       -43.7590   10.7660   11.3500 C.3       1 937501      0.0000 
     30 C30       -44.4220    9.8750   12.4020 C.3       1 937501      0.0000 
     31 O31       -43.6500    8.6770   12.5050 O.3       1 937501      0.0000 
     32 N32       -43.6220    8.1500    8.2490 N.3       1 937501      0.0000 
     33 C33       -44.1240    6.9210    8.9200 C.3       1 937501      0.0000 
     34 C34       -43.0780    6.2140    9.8120 C.3       1 937501      0.0000 
     35 N35       -41.7160    6.2730    9.2270 N.4       1 937501      0.0000 
     36 C36       -41.3080    7.6880    9.0880 C.3       1 937501      0.0000 
     37 C37       -42.1850    8.3700    8.0100 C.3       1 937501      0.0000 
     38 C38       -40.7770    5.5980   10.1270 C.3       1 937501      0.0000 
     39 H         -43.1951   16.7703    8.8525 H         1 937501      0.0000 
     40 H         -41.3903   15.5544   13.2430 H         1 937501      0.0000 
     41 H         -40.3893   15.1372   11.8416 H         1 937501      0.0000 
     42 H         -43.1010   16.4308   11.9563 H         1 937501      0.0000 
     43 H         -41.7185   16.7803   10.9044 H         1 937501      0.0000 
     44 H         -44.8443   13.3611    6.2367 H         1 937501      0.0000 
     45 H         -43.2467   10.8304    8.0081 H         1 937501      0.0000 
     46 H         -46.1186    7.7678    7.4538 H         1 937501      0.0000 
     47 H         -47.7205    9.3752    6.6901 H         1 937501      0.0000 
     48 H         -39.5429   11.7466   15.9570 H         1 937501      0.0000 
     49 H         -40.5857   10.7451   14.8916 H         1 937501      0.0000 
     50 H         -43.1788   10.1209   10.6774 H         1 937501      0.0000 
     51 H         -44.5533   11.2365   10.7560 H         1 937501      0.0000 
     52 H         -45.4410    9.6766   12.0783 H         1 937501      0.0000 
     53 H         -44.4468   10.4258   13.3393 H         1 937501      0.0000 
     54 H         -44.4738    6.1916    8.1657 H         1 937501      0.0000 
     55 H         -44.9992    7.1629    9.5516 H         1 937501      0.0000 
     56 H         -43.3942    5.1717    9.9439 H         1 937501      0.0000 
     57 H         -43.0932    6.6947   10.7982 H         1 937501      0.0000 
     58 H         -41.7140    5.7999    8.2681 H         1 937501      0.0000 
     59 H         -40.2704    7.7634    8.7769 H         1 937501      0.0000 
     60 H         -41.4434    8.2240   10.0226 H         1 937501      0.0000 
     61 H         -41.9493    9.4422    8.0151 H         1 937501      0.0000 
     62 H         -41.8872    7.9689    7.0325 H         1 937501      0.0000 
     63 H         -39.8435    5.6126    9.7687 H         1 937501      0.0000 
     64 H         -40.7516    6.0295   11.0288 H         1 937501      0.0000 
     65 H         -41.0220    4.6388   10.2678 H         1 937501      0.0000 
     66 H         -43.0726    9.2544   13.0824 H         1 937501      0.0000 
@<TRIPOS>BOND
     1    2    1 ar   
     2    4    1 ar   
     3    3    2 ar   
     4   14    2 1    
     5    6    3 ar   
     6    5    4 ar   
     7   39    4 1    
     8    6    5 ar   
     9    8    5 1    
    10   10    6 1    
    11    8    7 1    
    12    9    7 1    
    13   40    7 1    
    14   41    7 1    
    15   42    8 1    
    16   43    8 1    
    17   10    9 2    
    18   13    9 1    
    19   11   10 1    
    20   12   11 1    
    21   29   11 1    
    22   13   12 2    
    23   15   13 1    
    24   17   14 1    
    25   44   14 1    
    26   16   15 2    
    27   28   15 am   
    28   18   17 ar   
    29   22   17 ar   
    30   19   18 ar   
    31   45   18 1    
    32   20   19 ar   
    33   32   19 1    
    34   21   20 ar   
    35   46   20 1    
    36   22   21 ar   
    37   47   21 1    
    38   23   22 1    
    39   24   23 1    
    40   25   24 1    
    41   26   24 1    
    42   27   24 1    
    43   48   28 1    
    44   49   28 1    
    45   30   29 1    
    46   50   29 1    
    47   51   29 1    
    48   31   30 1    
    49   52   30 1    
    50   53   30 1    
    51   66   31 1    
    52   33   32 1    
    53   37   32 1    
    54   34   33 1    
    55   54   33 1    
    56   55   33 1    
    57   35   34 1    
    58   56   34 1    
    59   57   34 1    
    60   36   35 1    
    61   38   35 1    
    62   58   35 1    
    63   37   36 1    
    64   59   36 1    
    65   60   36 1    
    66   61   37 1    
    67   62   37 1    
    68   63   38 1    
    69   64   38 1    
    70   65   38 1    
@<TRIPOS>SUBSTRUCTURE
     1 937501      1 GROUP   
@<TRIPOS>SET

