#    Name: 1r6a_SAH_1_INTS_M
#    Modification time : Tue Mar 25 00:24:43 2014

@<TRIPOS>MOLECULE
1r6a_SAH_1_INTS_M
   64     0    12     0     0
SMALL
NO_CHARGES


@<TRIPOS>ATOM
      1 OD1         9.6285  -45.9880    0.2190 O.co2     3 ASC3        0.0000 
      2 OD1         9.9820  -45.9600   -1.2410 O.co2    11 ASL3        0.0000 
      3 OD1         9.2750  -46.0160    1.6790 O.co2     7 ASP3        0.0000 
      4 O           9.6285  -45.9880    0.2190 O.2       1 ALC1        0.0000 
      5 O           9.9820  -45.9600   -1.2410 O.2       9 ALL1        0.0000 
      6 O           9.2750  -46.0160    1.6790 O.2       5 ALP1        0.0000 
      7 CA          9.2175  -46.7900   -1.6985 C.3       4 GLC5        0.0000 
      8 CA         11.2790  -46.6350   -1.2740 C.3      12 GLL5        0.0000 
      9 CA          7.1560  -46.9450   -2.1230 C.3       8 GLP5        0.0000 
     10 CA         10.6135  -45.1430    0.8500 C.3       4 GLC5        0.0000 
     11 CA         11.9150  -46.6210    0.1240 C.3      12 GLL5        0.0000 
     12 CA          9.3120  -43.6650    1.5760 C.3       8 GLP5        0.0000 
     13 CA         14.4710  -45.4040   -1.2785 C.3       4 GLC5        0.0000 
     14 CA         13.0770  -45.7890    0.2050 C.3      12 GLL5        0.0000 
     15 CA         15.8650  -45.0190   -2.7620 C.3       8 GLP5        0.0000 
     16 N          11.8040  -49.7420   -2.7390 N.am      2 SEC2        0.0000 
     17 N          12.0160  -48.3460   -2.6990 N.am     10 SEL2        0.0000 
     18 N          11.5920  -51.1380   -2.7790 N.am      6 SEP2        0.0000 
     19 N          11.5525  -48.2380   -4.0915 N.am      2 SEC2        0.0000 
     20 N          11.0890  -48.1300   -5.4840 N.am      6 SEP2        0.0000 
     21 CA         13.1175  -42.3980    3.2045 C.3       4 GLC5        0.0000 
     22 CA         14.1340  -43.9890    1.9900 C.3      12 GLL5        0.0000 
     23 CA         12.1010  -40.8070    4.4190 C.3       8 GLP5        0.0000 
     24 CA         14.4855  -41.8485    0.0760 C.3       4 GLC5        0.0000 
     25 CA         15.3390  -43.4400    1.2450 C.3      12 GLL5        0.0000 
     26 CA         13.6320  -40.2570   -1.0930 C.3       8 GLP5        0.0000 
     27 CA         15.6020  -44.2295   -0.7585 C.3       4 GLC5        0.0000 
     28 CA         15.8470  -42.5545   -0.5865 C.3       4 GLC5        0.0000 
     29 CA         16.3550  -41.6690   -2.4180 C.3       8 GLP5        0.0000 
     30 CA         15.2110  -40.9675    0.1165 C.3       4 GLC5        0.0000 
     31 CA         16.7900  -41.6780    1.3260 C.3      12 GLL5        0.0000 
     32 CA         16.5725  -41.6735   -0.5460 C.3       4 GLC5        0.0000 
     33 CA         19.2135  -38.3990    2.1755 C.3       4 GLC5        0.0000 
     34 CA         17.4390  -38.2510    2.3440 C.3      12 GLL5        0.0000 
     35 CA         20.9880  -38.5470    2.0070 C.3       8 GLP5        0.0000 
     36 CA         19.1165  -37.5820    1.2365 C.3       4 GLC5        0.0000 
     37 CA         17.5970  -36.8920    1.9180 C.3      12 GLL5        0.0000 
     38 CA         20.6360  -38.2720    0.5550 C.3       8 GLP5        0.0000 
     39 CA         18.4765  -35.4875    0.6515 C.3       4 GLC5        0.0000 
     40 CA         19.3560  -34.0830   -0.6150 C.3       8 GLP5        0.0000 
     41 CA         16.1035  -35.8725    1.4250 C.3       4 GLC5        0.0000 
     42 CA         14.6100  -34.8530    0.9320 C.3       8 GLP5        0.0000 
     43 O          18.3490  -34.3520    2.3535 O.2       1 ALC1        0.0000 
     44 O          17.8470  -35.8900    2.7440 O.2       9 ALL1        0.0000 
     45 O          18.8510  -32.8140    1.9630 O.2       5 ALP1        0.0000 
     46 N          17.2240  -35.2575   -0.0530 N.am      2 SEC2        0.0000 
     47 N          17.4910  -36.6130    0.5770 N.am     10 SEL2        0.0000 
     48 N          16.9570  -33.9020   -0.6830 N.am      6 SEP2        0.0000 
     49 CA         17.3615  -38.6450   -1.7955 C.3       4 GLC5        0.0000 
     50 CA         17.2390  -37.6350   -0.2390 C.3      12 GLL5        0.0000 
     51 CA         17.4840  -39.6550   -3.3520 C.3       8 GLP5        0.0000 
     52 CA         18.9375  -37.9535    0.1580 C.3       4 GLC5        0.0000 
     53 CA         18.2975  -35.8590   -0.4270 C.3       4 GLC5        0.0000 
     54 CA         15.9380  -36.5125   -0.8760 C.3       4 GLC5        0.0000 
     55 CA         14.6370  -35.3900   -1.5130 C.3       8 GLP5        0.0000 
     56 CA         15.3505  -37.7985    0.9545 C.3       4 GLC5        0.0000 
     57 CA         13.4620  -37.9620    2.1480 C.3       8 GLP5        0.0000 
     58 N          18.2930  -39.2425   -1.0140 N.am      2 SEC2        0.0000 
     59 N          17.0670  -38.9520    0.0450 N.am     10 SEL2        0.0000 
     60 N          19.5190  -39.5330   -2.0730 N.am      6 SEP2        0.0000 
     61 CA         15.4035  -39.7270    0.1240 C.3       4 GLC5        0.0000 
     62 CA         17.1750  -39.1970    1.3410 C.3      12 GLL5        0.0000 
     63 CA         18.9055  -38.7345    0.9480 C.3       4 GLC5        0.0000 
     64 CA         15.4043  -38.1731    1.9420 C.3       4 GLC5        0.0000 
@<TRIPOS>BOND
@<TRIPOS>SUBSTRUCTURE
     1 ALC1        4 GROUP        1 X    ALC  0     ROOT ALC X 1
     2 SEC2       16 GROUP        1 X    SEC  0     **** SEC X 2
     3 ASC3        1 GROUP        1 X    ASC  0     **** ASC X 3
     4 GLC5        7 GROUP        1 X    GLC  0     **** GLC X 6
     5 ALP1        6 GROUP        1 Y    ALP  0     ROOT ALP Y 8
     6 SEP2       18 GROUP        1 Y    SEP  0     **** SEP Y 9
     7 ASP3        3 GROUP        1 Y    ASP  0     **** ASP Y 10
     8 GLP5        9 GROUP        1 Y    GLP  0     **** GLP Y 13
     9 ALL1        5 GROUP        1 Z    ALL  0     ROOT ALL Z 15
    10 SEL2       17 GROUP        1 Z    SEL  0     **** SEL Z 16
    11 ASL3        2 GROUP        1 Z    ASL  0     **** ASL Z 17
    12 GLL5        8 GROUP        1 Z    GLL  0     **** GLL Z 20
@<TRIPOS>SET

