#    Name: 1r6a_SAH_1_ligand
#    Modification time : Tue Mar 25 00:24:43 2014

@<TRIPOS>MOLECULE
1r6a_SAH_1_ligand
   46    48     1     0     0
SMALL
NO_CHARGES


@<TRIPOS>ATOM
      1 N           9.9820  -45.9600   -1.2410 N.4       1 SAH887      0.0000 
      2 CA         11.2790  -46.6350   -1.2740 C.3       1 SAH887      0.0000 
      3 CB         11.9150  -46.6210    0.1240 C.3       1 SAH887      0.0000 
      4 CG         13.0770  -45.7890    0.2050 C.3       1 SAH887      0.0000 
      5 SD         13.8430  -45.7570    1.8440 S.3       1 SAH887      0.0000 
      6 C          11.1710  -48.1060   -1.7810 C.2       1 SAH887      0.0000 
      7 O          10.0200  -48.4730   -2.0810 O.co2     1 SAH887      0.0000 
      8 OXT        12.0160  -48.3460   -2.6990 O.co2     1 SAH887      0.0000 
      9 C5'        14.1340  -43.9890    1.9900 C.3       1 SAH887      0.0000 
     10 C4'        15.3390  -43.4400    1.2450 C.3       1 SAH887      0.0000 
     11 O4'        15.4540  -42.0260    1.4910 O.3       1 SAH887      0.0000 
     12 C3'        16.6800  -44.0290    1.6750 C.3       1 SAH887      0.0000 
     13 O3'        17.0880  -44.9730    0.6650 O.3       1 SAH887      0.0000 
     14 C2'        17.6590  -42.8470    1.7770 C.3       1 SAH887      0.0000 
     15 O2'        18.8960  -42.9550    1.1000 O.3       1 SAH887      0.0000 
     16 C1'        16.7900  -41.6780    1.3260 C.3       1 SAH887      0.0000 
     17 N9         17.0650  -40.4020    1.9910 N.pl3     1 SAH887      0.0000 
     18 C8         17.2590  -40.1350    3.3220 C.2       1 SAH887      0.0000 
     19 N7         17.4830  -38.8710    3.5820 N.2       1 SAH887      0.0000 
     20 C5         17.4390  -38.2510    2.3440 C.ar      1 SAH887      0.0000 
     21 C6         17.5970  -36.8920    1.9180 C.ar      1 SAH887      0.0000 
     22 N6         17.8470  -35.8900    2.7440 N.pl3     1 SAH887      0.0000 
     23 N1         17.4910  -36.6130    0.5770 N.ar      1 SAH887      0.0000 
     24 C2         17.2390  -37.6350   -0.2390 C.ar      1 SAH887      0.0000 
     25 N3         17.0670  -38.9520    0.0450 N.ar      1 SAH887      0.0000 
     26 C4         17.1750  -39.1970    1.3410 C.ar      1 SAH887      0.0000 
     27 H          11.9610  -46.1130   -1.9446 H         1 SAH887      0.0000 
     28 H          12.1506  -47.6721    0.3888 H         1 SAH887      0.0000 
     29 H          11.1321  -46.2935    0.8383 H         1 SAH887      0.0000 
     30 H          12.9056  -44.7223    0.0374 H         1 SAH887      0.0000 
     31 H          13.9241  -46.1010   -0.4117 H         1 SAH887      0.0000 
     32 H          14.2000  -43.8517    3.0710 H         1 SAH887      0.0000 
     33 H          13.1883  -43.5674    1.6442 H         1 SAH887      0.0000 
     34 H          15.2195  -43.6122    0.1858 H         1 SAH887      0.0000 
     35 H          16.5641  -44.4687    2.6281 H         1 SAH887      0.0000 
     36 H          17.7943  -42.6843    2.8737 H         1 SAH887      0.0000 
     37 H          16.9921  -41.5498    0.2342 H         1 SAH887      0.0000 
     38 H          17.2260  -40.8655    4.0109 H         1 SAH887      0.0000 
     39 H          17.9302  -36.1278    3.7117 H         1 SAH887      0.0000 
     40 H          17.9302  -34.9854    2.3259 H         1 SAH887      0.0000 
     41 H          17.1550  -37.3813   -1.3178 H         1 SAH887      0.0000 
     42 H           9.3520  -46.3325   -1.9224 H         1 SAH887      0.0000 
     43 H           9.5379  -46.0523   -0.3498 H         1 SAH887      0.0000 
     44 H          10.0680  -44.9809   -1.4256 H         1 SAH887      0.0000 
     45 H          18.0539  -44.7737    0.4998 H         1 SAH887      0.0000 
     46 H          19.5734  -42.5913    1.7394 H         1 SAH887      0.0000 
@<TRIPOS>BOND
     1    2    1 1    
     2   42    1 1    
     3   43    1 1    
     4   44    1 1    
     5    3    2 1    
     6    6    2 1    
     7   27    2 1    
     8    4    3 1    
     9   28    3 1    
    10   29    3 1    
    11    5    4 1    
    12   30    4 1    
    13   31    4 1    
    14    9    5 1    
    15    7    6 ar   
    16    8    6 ar   
    17   10    9 1    
    18   32    9 1    
    19   33    9 1    
    20   11   10 1    
    21   12   10 1    
    22   34   10 1    
    23   16   11 1    
    24   13   12 1    
    25   14   12 1    
    26   35   12 1    
    27   45   13 1    
    28   15   14 1    
    29   16   14 1    
    30   36   14 1    
    31   46   15 1    
    32   17   16 1    
    33   37   16 1    
    34   18   17 1    
    35   26   17 1    
    36   19   18 2    
    37   38   18 1    
    38   20   19 1    
    39   21   20 ar   
    40   26   20 ar   
    41   22   21 1    
    42   23   21 ar   
    43   39   22 1    
    44   40   22 1    
    45   24   23 ar   
    46   25   24 ar   
    47   41   24 1    
    48   26   25 ar   
@<TRIPOS>SUBSTRUCTURE
     1 SAH887      1 GROUP   
@<TRIPOS>SET

