#    Name: 3ogw_IMN_1_INTS_M
#    Modification time : Tue Mar 25 04:36:04 2014

@<TRIPOS>MOLECULE
3ogw_IMN_1_INTS_M
   35     0     3     0     0
SMALL
NO_CHARGES


@<TRIPOS>ATOM
      1 CA        -24.4610   -0.9485   32.1910 C.3       1 GLC5        0.0000 
      2 CA        -23.7950   -0.5000   34.2370 C.3       3 GLL5        0.0000 
      3 CA        -25.1270   -1.3970   30.1450 C.3       2 GLP5        0.0000 
      4 CA        -24.8405   -2.1210   33.7780 C.3       1 GLC5        0.0000 
      5 CA        -25.8860   -3.7420   33.3190 C.3       2 GLP5        0.0000 
      6 CA        -23.5125   -0.9240   35.8285 C.3       1 GLC5        0.0000 
      7 CA        -23.2300   -1.3480   37.4200 C.3       2 GLP5        0.0000 
      8 CA        -25.6790    5.6600   32.7010 C.3       1 GLC5        0.0000 
      9 CA        -25.7220    3.9990   31.2960 C.3       3 GLL5        0.0000 
     10 CA        -25.6360    7.3210   34.1060 C.3       2 GLP5        0.0000 
     11 CA        -23.4710    3.0875   28.2270 C.3       1 GLC5        0.0000 
     12 CA        -21.8210    4.0640   29.0750 C.3       3 GLL5        0.0000 
     13 CA        -25.1210    2.1110   27.3790 C.3       2 GLP5        0.0000 
     14 CA        -23.2010    3.9335   27.1635 C.3       1 GLC5        0.0000 
     15 CA        -21.2940    4.7180   27.9820 C.3       3 GLL5        0.0000 
     16 CA        -25.1080    3.1490   26.3450 C.3       2 GLP5        0.0000 
     17 CA        -25.7500    4.9310   27.9010 C.3       1 GLC5        0.0000 
     18 CA        -25.2230    5.7250   29.3200 C.3       3 GLL5        0.0000 
     19 CA        -26.2770    4.1370   26.4820 C.3       2 GLP5        0.0000 
     20 CA        -23.8955    6.5555   28.2275 C.3       1 GLC5        0.0000 
     21 CA        -22.5680    7.3860   27.1350 C.3       2 GLP5        0.0000 
     22 CA        -24.8610    7.0280   30.0940 C.3       1 GLC5        0.0000 
     23 CA        -24.4990    8.3310   30.8680 C.3       2 GLP5        0.0000 
     24 CA        -19.3580    2.6485   24.0165 C.3       1 GLC5        0.0000 
     25 CA        -19.7220    1.7960   25.8260 C.3       3 GLL5        0.0000 
     26 CA        -18.9940    3.5010   22.2070 C.3       2 GLP5        0.0000 
     27 CA        -25.1953    3.2453   29.1120 C.3       1 GLC5        0.0000 
     28 CA        -24.8170    4.7600   30.3940 C.3       3 GLL5        0.0000 
     29 CA        -21.1118    1.5337   25.0280 C.3       1 GLC5        0.0000 
     30 CA        -20.5890    2.6770   27.0920 C.3       3 GLL5        0.0000 
     31 CA        -22.0680    0.8310   23.5970 C.3       2 GLP5        0.0000 
     32 CA        -22.5846    1.7268   27.5164 C.3       1 GLC5        0.0000 
     33 CA        -24.1770    0.9360   27.1490 C.3       2 GLP5        0.0000 
     34 CA        -21.2431    5.9300   27.9016 C.3       1 GLC5        0.0000 
     35 CA        -21.3670    7.6510   28.0470 C.3       2 GLP5        0.0000 
@<TRIPOS>BOND
@<TRIPOS>SUBSTRUCTURE
     1 GLC5        1 GROUP        1 X    GLC  0     ROOT GLC X 6
     2 GLP5        3 GROUP        1 Y    GLP  0     ROOT GLP Y 13
     3 GLL5        2 GROUP        1 Z    GLL  0     ROOT GLL Z 20
@<TRIPOS>SET

