#    Name: 3ogw_IMN_1_ligand
#    Modification time : Tue Mar 25 04:36:04 2014

@<TRIPOS>MOLECULE
3ogw_IMN_1_ligand
   40    42     1     0     0
SMALL
NO_CHARGES


@<TRIPOS>ATOM
      1 C         -23.4340    3.5250   31.7430 C.ar      1 IMN597      0.0000 
      2 C1        -24.8080    3.1960   32.1530 C.ar      1 IMN597      0.0000 
      3 C2        -25.0310    2.2880   33.1690 C.ar      1 IMN597      0.0000 
      4 C3        -23.9090    1.7340   33.7790 C.ar      1 IMN597      0.0000 
      5 C4        -22.5960    2.0300   33.3790 C.ar      1 IMN597      0.0000 
      6 C5        -22.3420    2.9370   32.3620 C.ar      1 IMN597      0.0000 
      7 C6        -23.7950   -0.5000   34.2370 C.3       1 IMN597      0.0000 
      8 C7        -25.7220    3.9990   31.2960 C.2       1 IMN597      0.0000 
      9 C8        -24.8170    4.7600   30.3940 C.2       1 IMN597      0.0000 
     10 C9        -22.4650    4.8530   30.1830 C.2       1 IMN597      0.0000 
     11 C10       -21.8210    4.0640   29.0750 C.ar      1 IMN597      0.0000 
     12 C11       -21.7070    2.7150   29.1680 C.ar      1 IMN597      0.0000 
     13 C12       -21.0840    2.0010   28.1830 C.ar      1 IMN597      0.0000 
     14 C13       -20.5890    2.6770   27.0920 C.ar      1 IMN597      0.0000 
     15 C14       -20.6810    4.0270   26.9840 C.ar      1 IMN597      0.0000 
     16 C15       -21.2940    4.7180   27.9820 C.ar      1 IMN597      0.0000 
     17 C16       -25.2230    5.7250   29.3200 C.3       1 IMN597      0.0000 
     18 C17       -27.2240    4.0210   31.3110 C.3       1 IMN597      0.0000 
     19 C18       -27.6810    2.7490   30.6320 C.2       1 IMN597      0.0000 
     20 N         -23.5820    4.3970   30.7600 N.am      1 IMN597      0.0000 
     21 O         -24.0800    0.8090   34.7470 O.3       1 IMN597      0.0000 
     22 O1        -21.9160    5.8400   30.6270 O.2       1 IMN597      0.0000 
     23 O2        -28.8930    2.5990   30.4080 O.co2     1 IMN597      0.0000 
     24 O3        -26.8420    1.8810   30.3210 O.co2     1 IMN597      0.0000 
     25 CL        -19.7220    1.7960   25.8260 Cl        1 IMN597      0.0000 
     26 H         -25.9629    2.0339   33.4602 H         1 IMN597      0.0000 
     27 H         -21.8083    1.5580   33.8573 H         1 IMN597      0.0000 
     28 H         -21.3957    3.1612   32.0822 H         1 IMN597      0.0000 
     29 H         -22.0960    2.2155   29.9951 H         1 IMN597      0.0000 
     30 H         -20.9856    0.9829   28.2520 H         1 IMN597      0.0000 
     31 H         -20.2959    4.5176   26.1657 H         1 IMN597      0.0000 
     32 H         -21.3705    5.7553   27.9274 H         1 IMN597      0.0000 
     33 H         -27.5855    4.8730   30.7626 H         1 IMN597      0.0000 
     34 H         -27.5822    4.0376   32.3253 H         1 IMN597      0.0000 
     35 H         -22.8548   -0.5723   33.9041 H         1 IMN597      0.0000 
     36 H         -23.9133   -1.2049   34.9363 H         1 IMN597      0.0000 
     37 H         -24.3953   -0.7402   33.4742 H         1 IMN597      0.0000 
     38 H         -24.4301    6.1117   28.8491 H         1 IMN597      0.0000 
     39 H         -25.7929    5.2880   28.6241 H         1 IMN597      0.0000 
     40 H         -25.7476    6.4922   29.6890 H         1 IMN597      0.0000 
@<TRIPOS>BOND
     1    2    1 ar   
     2    6    1 ar   
     3   20    1 1    
     4    3    2 ar   
     5    8    2 1    
     6    4    3 ar   
     7   26    3 1    
     8    5    4 ar   
     9   21    4 1    
    10    6    5 ar   
    11   27    5 1    
    12   28    6 1    
    13   21    7 1    
    14   35    7 1    
    15   36    7 1    
    16   37    7 1    
    17    9    8 2    
    18   18    8 1    
    19   17    9 1    
    20   20    9 1    
    21   11   10 1    
    22   20   10 am   
    23   22   10 2    
    24   12   11 ar   
    25   16   11 ar   
    26   13   12 ar   
    27   29   12 1    
    28   14   13 ar   
    29   30   13 1    
    30   15   14 ar   
    31   25   14 1    
    32   16   15 ar   
    33   31   15 1    
    34   32   16 1    
    35   38   17 1    
    36   39   17 1    
    37   40   17 1    
    38   19   18 1    
    39   33   18 1    
    40   34   18 1    
    41   23   19 ar   
    42   24   19 ar   
@<TRIPOS>SUBSTRUCTURE
     1 IMN597      1 GROUP   
@<TRIPOS>SET

