#    Name: 4j74_I18_1_INTS_M
#    Modification time : Tue Mar 25 05:32:01 2014

@<TRIPOS>MOLECULE
4j74_I18_1_INTS_M
   47     0     3     0     0
SMALL
NO_CHARGES


@<TRIPOS>ATOM
      1 CA        -14.8800  -11.8800    3.4605 C.3       1 GLC5        0.0000 
      2 CA        -13.4820  -10.2540    3.7620 C.3       3 GLL5        0.0000 
      3 CA        -16.2780  -13.5060    3.1590 C.3       2 GLP5        0.0000 
      4 CA        -15.5370  -11.8770    4.7705 C.3       1 GLC5        0.0000 
      5 CA        -14.4600  -10.2400    4.9030 C.3       3 GLL5        0.0000 
      6 CA        -16.6140  -13.5140    4.6380 C.3       2 GLP5        0.0000 
      7 CA        -14.8245  -13.6980   -0.7415 C.3       1 GLC5        0.0000 
      8 CA        -15.0140  -11.5130   -0.7240 C.3       3 GLL5        0.0000 
      9 CA        -14.6350  -15.8830   -0.7590 C.3       2 GLP5        0.0000 
     10 CA        -14.3420  -10.6695   -4.5510 C.3       1 GLC5        0.0000 
     11 CA        -14.9460  -12.2010   -3.3550 C.3       3 GLL5        0.0000 
     12 CA        -13.7380   -9.1380   -5.7470 C.3       2 GLP5        0.0000 
     13 CA        -16.3060  -10.9650   -3.1265 C.3       1 GLC5        0.0000 
     14 CA        -17.6660   -9.7290   -2.8980 C.3       2 GLP5        0.0000 
     15 CA        -15.9500  -13.2195   -4.8420 C.3       1 GLC5        0.0000 
     16 CA        -16.9540  -14.2380   -6.3290 C.3       2 GLP5        0.0000 
     17 CA        -16.7450  -12.9180   -3.1145 C.3       1 GLC5        0.0000 
     18 CA        -18.5440  -13.6350   -2.8740 C.3       2 GLP5        0.0000 
     19 CA        -13.9900  -13.9290   -3.4010 C.3       1 GLC5        0.0000 
     20 CA        -13.0340  -15.6570   -3.4470 C.3       2 GLP5        0.0000 
     21 CA        -13.3910   -9.9785   -3.8540 C.3       1 GLC5        0.0000 
     22 CA        -13.0440  -10.8190   -1.9610 C.3       3 GLL5        0.0000 
     23 CA        -11.7320  -15.7090   -1.9725 C.3       1 GLC5        0.0000 
     24 CA        -10.4300  -15.7610   -0.4980 C.3       3 GLL5        0.0000 
     25 CA         -9.0125  -16.2810   -1.5190 C.3       1 GLC5        0.0000 
     26 CA         -7.5950  -16.8010   -2.5400 C.3       2 GLP5        0.0000 
     27 CA        -14.2670  -13.2705    2.4910 C.3       1 GLC5        0.0000 
     28 CA        -12.2560  -13.0350    1.8230 C.3       3 GLL5        0.0000 
     29 CA        -15.9792  -11.9130    1.1258 C.3       1 GLC5        0.0000 
     30 CA        -14.4750  -10.9650    0.4350 C.3       3 GLL5        0.0000 
     31 CA        -17.2140  -12.5870    2.3960 C.3       2 GLP5        0.0000 
     32 CA        -16.1593  -10.6057   -2.1090 C.3       1 GLC5        0.0000 
     33 CA        -13.6354   -8.6641   -1.5304 C.3       1 GLC5        0.0000 
     34 CA        -14.3160   -6.7640   -1.9830 C.3       2 GLP5        0.0000 
     35 CA        -11.7059  -11.7981   -2.3504 C.3       1 GLC5        0.0000 
     36 CA        -12.5080  -10.2730   -0.7950 C.3       3 GLL5        0.0000 
     37 CA        -10.3240  -12.8920   -3.3340 C.3       2 GLP5        0.0000 
     38 CA        -10.1760  -12.7747   -1.3115 C.3       1 GLC5        0.0000 
     39 CA         -9.8730  -13.2490    0.3820 C.3       3 GLL5        0.0000 
     40 CA        -10.4625  -13.9647   -1.6860 C.3       1 GLC5        0.0000 
     41 CA        -10.7720  -14.3140    0.4220 C.3       3 GLL5        0.0000 
     42 CA        -10.5755  -16.3798    1.1845 C.3       1 GLC5        0.0000 
     43 CA        -10.5500  -17.7220    2.4070 C.3       2 GLP5        0.0000 
     44 CA        -12.9985  -15.0755    0.0168 C.3       1 GLC5        0.0000 
     45 CA        -11.8915  -15.4283    2.2300 C.3       1 GLC5        0.0000 
     46 CA        -11.9520  -14.2220    1.1630 C.3       3 GLL5        0.0000 
     47 CA        -11.6790  -17.2280    2.9670 C.3       2 GLP5        0.0000 
@<TRIPOS>BOND
@<TRIPOS>SUBSTRUCTURE
     1 GLC5        1 GROUP        1 X    GLC  0     ROOT GLC X 6
     2 GLP5        3 GROUP        1 Y    GLP  0     ROOT GLP Y 13
     3 GLL5        2 GROUP        1 Z    GLL  0     ROOT GLL Z 20
@<TRIPOS>SET

