#    Name: 4j74_I18_1_ligand
#    Modification time : Tue Mar 25 05:32:01 2014

@<TRIPOS>MOLECULE
4j74_I18_1_ligand
   35    37     1     0     0
SMALL
NO_CHARGES


@<TRIPOS>ATOM
      1 N1        -13.7500   -9.5080    2.6330 N.pl3     1 I18201      0.0000 
      2 C5        -12.6710   -9.7260    1.6670 C.3       1 I18201      0.0000 
      3 C51       -13.2230  -10.3460    0.4060 C.ar      1 I18201      0.0000 
      4 C4        -11.7030  -10.6570    2.4540 C.3       1 I18201      0.0000 
      5 C41       -11.3800  -11.9480    1.7480 C.ar      1 I18201      0.0000 
      6 N3        -12.3850  -10.9090    3.7230 N.pl3     1 I18201      0.0000 
      7 C2        -13.4820  -10.2540    3.7620 C.2       1 I18201      0.0000 
      8 C21       -14.4600  -10.2400    4.9030 C.3       1 I18201      0.0000 
      9 C56       -14.4750  -10.9650    0.4350 C.ar      1 I18201      0.0000 
     10 C55       -15.0140  -11.5130   -0.7240 C.ar      1 I18201      0.0000 
     11 C54       -14.2910  -11.4520   -1.9160 C.ar      1 I18201      0.0000 
     12 CL5       -14.9460  -12.2010   -3.3550 Cl        1 I18201      0.0000 
     13 C53       -13.0440  -10.8190   -1.9610 C.ar      1 I18201      0.0000 
     14 C52       -12.5080  -10.2730   -0.7950 C.ar      1 I18201      0.0000 
     15 C42       -10.1830  -12.0660    1.0400 C.ar      1 I18201      0.0000 
     16 C43        -9.8730  -13.2490    0.3820 C.ar      1 I18201      0.0000 
     17 C44       -10.7720  -14.3140    0.4220 C.ar      1 I18201      0.0000 
     18 CL4       -10.4300  -15.7610   -0.4980 Cl        1 I18201      0.0000 
     19 C45       -11.9520  -14.2220    1.1630 C.ar      1 I18201      0.0000 
     20 C46       -12.2560  -13.0350    1.8230 C.ar      1 I18201      0.0000 
     21 H         -14.4816   -8.9447    2.4659 H         1 I18201      0.0000 
     22 H         -12.1686   -8.8162    1.4731 H         1 I18201      0.0000 
     23 H         -10.8023  -10.0932    2.6417 H         1 I18201      0.0000 
     24 H         -11.9789  -11.5036    4.3734 H         1 I18201      0.0000 
     25 H         -14.9989  -11.0143    1.3197 H         1 I18201      0.0000 
     26 H         -15.9361  -11.9592   -0.7050 H         1 I18201      0.0000 
     27 H         -12.5308  -10.7582   -2.8437 H         1 I18201      0.0000 
     28 H         -11.5887   -9.8169   -0.8153 H         1 I18201      0.0000 
     29 H          -9.5294  -11.2712    1.0073 H         1 I18201      0.0000 
     30 H          -8.9901  -13.3411   -0.1302 H         1 I18201      0.0000 
     31 H         -12.5872  -15.0227    1.2191 H         1 I18201      0.0000 
     32 H         -13.1240  -12.9547    2.3664 H         1 I18201      0.0000 
     33 H         -14.1539  -10.8151    5.6616 H         1 I18201      0.0000 
     34 H         -14.5913   -9.3184    5.2683 H         1 I18201      0.0000 
     35 H         -15.3599  -10.5761    4.6250 H         1 I18201      0.0000 
@<TRIPOS>BOND
     1    2    1 1    
     2    7    1 1    
     3   21    1 1    
     4    3    2 1    
     5    4    2 1    
     6   22    2 1    
     7    9    3 ar   
     8   14    3 ar   
     9    5    4 1    
    10    6    4 1    
    11   23    4 1    
    12   15    5 ar   
    13   20    5 ar   
    14    7    6 2    
    15   24    6 1    
    16    8    7 1    
    17   33    8 1    
    18   34    8 1    
    19   35    8 1    
    20   10    9 ar   
    21   25    9 1    
    22   11   10 ar   
    23   26   10 1    
    24   12   11 1    
    25   13   11 ar   
    26   14   13 ar   
    27   27   13 1    
    28   28   14 1    
    29   16   15 ar   
    30   29   15 1    
    31   17   16 ar   
    32   30   16 1    
    33   18   17 1    
    34   19   17 ar   
    35   20   19 ar   
    36   31   19 1    
    37   32   20 1    
@<TRIPOS>SUBSTRUCTURE
     1 I18201      1 GROUP   
@<TRIPOS>SET

