#    Name: 3fqk_79Z_2_INTS_M
#    Modification time : Tue Mar 25 06:16:38 2014

@<TRIPOS>MOLECULE
3fqk_79Z_2_INTS_M
   85     0     6     0     0
SMALL
NO_CHARGES


@<TRIPOS>ATOM
      1 CA         -7.1795  -10.5395   15.0660 C.3       2 GLC5        0.0000 
      2 CA         -7.1210   -8.5730   14.3120 C.3       6 GLL5        0.0000 
      3 CA         -7.2380  -12.5060   15.8200 C.3       4 GLP5        0.0000 
      4 CA         -7.2715   -6.8690   13.3835 C.3       2 GLC5        0.0000 
      5 CA         -7.4220   -5.1650   12.4550 C.3       4 GLP5        0.0000 
      6 CA         -0.2730  -13.5480   13.9800 C.3       2 GLC5        0.0000 
      7 CA         -1.4740  -15.1610   13.1410 C.3       6 GLL5        0.0000 
      8 CA          0.9280  -11.9350   14.8190 C.3       4 GLP5        0.0000 
      9 CA          0.8740  -15.5760   12.8870 C.3       2 GLC5        0.0000 
     10 CA         -0.6370  -16.2490   13.0740 C.3       6 GLL5        0.0000 
     11 CA          2.3850  -14.9030   12.7000 C.3       4 GLP5        0.0000 
     12 CA         -0.0430  -15.7670   11.5350 C.3       2 GLC5        0.0000 
     13 CA         -1.0490  -17.3490   12.3390 C.3       6 GLL5        0.0000 
     14 CA          0.9630  -14.1850   10.7310 C.3       4 GLP5        0.0000 
     15 CA         -4.9570  -15.8650   10.6770 C.3       2 GLC5        0.0000 
     16 CA         -3.1220  -16.2970   11.7550 C.3       6 GLL5        0.0000 
     17 CA         -6.7920  -15.4330    9.5990 C.3       4 GLP5        0.0000 
     18 CA         -6.1480  -11.6230   14.5700 C.3       2 GLC5        0.0000 
     19 CA         -5.0580  -10.7400   13.3200 C.3       6 GLL5        0.0000 
     20 O          -3.7965  -14.6685   15.9565 O.2       1 ALC1        0.0000 
     21 O          -3.0740  -13.5630   15.8380 O.2       5 ALL1        0.0000 
     22 O          -4.5190  -15.7740   16.0750 O.2       3 ALP1        0.0000 
     23 CA         -0.6280  -12.4295   16.6490 C.3       2 GLC5        0.0000 
     24 CA         -2.2750  -13.3730   17.0500 C.3       6 GLL5        0.0000 
     25 CA          1.0190  -11.4860   16.2480 C.3       4 GLP5        0.0000 
     26 CA         -3.4430  -11.5955   17.5525 C.3       2 GLC5        0.0000 
     27 CA         -4.6110   -9.8180   18.0550 C.3       4 GLP5        0.0000 
     28 CA         -2.3665  -14.4050   18.9795 C.3       2 GLC5        0.0000 
     29 CA         -2.4580  -15.4370   20.9090 C.3       4 GLP5        0.0000 
     30 CA         -1.1055  -15.2250   17.1130 C.3       2 GLC5        0.0000 
     31 CA          0.0640  -17.0770   17.1760 C.3       4 GLP5        0.0000 
     32 CA         -5.5190  -11.7010    7.1100 C.3       2 GLC5        0.0000 
     33 CA         -6.9980  -10.3420    7.7260 C.3       6 GLL5        0.0000 
     34 CA         -4.0400  -13.0600    6.4940 C.3       4 GLP5        0.0000 
     35 CA         -8.2365   -8.7780    7.2370 C.3       2 GLC5        0.0000 
     36 CA         -9.4750   -7.2140    6.7480 C.3       4 GLP5        0.0000 
     37 CA         -7.9180  -11.6125    7.0545 C.3       2 GLC5        0.0000 
     38 CA         -8.8380  -12.8830    6.3830 C.3       4 GLP5        0.0000 
     39 CA          1.0710  -16.6590   12.4745 C.3       2 GLC5        0.0000 
     40 CA         -0.2430  -18.4150   12.2490 C.3       6 GLL5        0.0000 
     41 CA          1.4760  -18.6090   11.4265 C.3       2 GLC5        0.0000 
     42 CA          3.1950  -18.8030   10.6040 C.3       4 GLP5        0.0000 
     43 CA         -9.2920  -11.2945    8.8805 C.3       2 GLC5        0.0000 
     44 CA         -8.7960  -10.1130   10.4550 C.3       6 GLL5        0.0000 
     45 CA         -9.7880  -12.4760    7.3060 C.3       4 GLP5        0.0000 
     46 CA         -8.6150  -11.7555   13.0585 C.3       2 GLC5        0.0000 
     47 CA         -9.4160  -10.1780   11.8490 C.3       6 GLL5        0.0000 
     48 CA         -7.8140  -13.3330   14.2680 C.3       4 GLP5        0.0000 
     49 CA         -6.5565   -7.1822   15.6917 C.3       2 GLC5        0.0000 
     50 CA         -6.6750   -6.1060   17.2050 C.3       4 GLP5        0.0000 
     51 CA         -6.2920   -6.9345   12.5137 C.3       2 GLC5        0.0000 
     52 CA         -5.7550   -7.9440   14.0450 C.3       6 GLL5        0.0000 
     53 CA         -6.4640   -5.5500   11.5390 C.3       4 GLP5        0.0000 
     54 CA         -0.5725  -14.6827   11.7828 C.3       2 GLC5        0.0000 
     55 CA         -2.7420  -15.2000   12.5280 C.3       6 GLL5        0.0000 
     56 CA         -3.2495  -16.0538   14.0478 C.3       2 GLC5        0.0000 
     57 CA         -4.3910  -16.9270   15.2610 C.3       4 GLP5        0.0000 
     58 CA         -2.6170  -16.8630   13.9838 C.3       2 GLC5        0.0000 
     59 CA         -1.1486  -17.0780   14.6756 C.3       2 GLC5        0.0000 
     60 CA         -1.2450  -17.6290   16.6280 C.3       4 GLP5        0.0000 
     61 CA         -3.5450  -16.8833   13.4925 C.3       2 GLC5        0.0000 
     62 CA         -2.2760  -17.3820   11.6930 C.3       6 GLL5        0.0000 
     63 CA         -3.5215  -17.8068   10.0455 C.3       2 GLC5        0.0000 
     64 CA         -4.3440  -18.7740    8.3670 C.3       4 GLP5        0.0000 
     65 CA         -3.7130  -10.3292   12.1125 C.3       2 GLC5        0.0000 
     66 CA         -1.9140  -10.2610   11.3130 C.3       4 GLP5        0.0000 
     67 CA         -7.0053  -11.8450   13.0858 C.3       2 GLC5        0.0000 
     68 CA         -5.9660  -10.0550   12.5040 C.3       6 GLL5        0.0000 
     69 CA         -3.6990  -11.2508   11.3152 C.3       2 GLC5        0.0000 
     70 CA         -5.9440  -11.9120   10.9220 C.3       6 GLL5        0.0000 
     71 CA         -6.6490  -12.7868   12.7928 C.3       2 GLC5        0.0000 
     72 CA         -5.0240  -12.5690   11.7130 C.3       6 GLL5        0.0000 
     73 CA         -6.1380  -13.8368   10.4582 C.3       2 GLC5        0.0000 
     74 CA         -4.1935  -11.9797    9.8012 C.3       2 GLC5        0.0000 
     75 CA         -2.9030  -11.7190    8.2850 C.3       4 GLP5        0.0000 
     76 CA         -5.9495  -12.9045   13.7368 C.3       2 GLC5        0.0000 
     77 CA         -4.5680  -11.9910   12.9220 C.3       6 GLL5        0.0000 
     78 CA         -2.8740  -11.7510   12.0986 C.3       2 GLC5        0.0000 
     79 CA         -3.9918  -15.2052   14.1435 C.3       2 GLC5        0.0000 
     80 CA         -3.6020  -12.9610   13.4890 C.3       6 GLL5        0.0000 
     81 CA         -3.0072  -14.5546   10.3381 C.3       2 GLC5        0.0000 
     82 CA         -3.5830  -14.0060   12.5630 C.3       6 GLL5        0.0000 
     83 CA         -2.7570  -14.2320    8.3240 C.3       4 GLP5        0.0000 
     84 CA         -1.0404  -19.2401   13.1887 C.3       2 GLC5        0.0000 
     85 CA         -1.1280  -20.5900   14.2450 C.3       4 GLP5        0.0000 
@<TRIPOS>BOND
@<TRIPOS>SUBSTRUCTURE
     1 ALC1       20 GROUP        1 X    ALC  0     ROOT ALC X 1
     2 GLC5        1 GROUP        1 X    GLC  0     **** GLC X 6
     3 ALP1       22 GROUP        1 Y    ALP  0     ROOT ALP Y 8
     4 GLP5        3 GROUP        1 Y    GLP  0     **** GLP Y 13
     5 ALL1       21 GROUP        1 Z    ALL  0     ROOT ALL Z 15
     6 GLL5        2 GROUP        1 Z    GLL  0     **** GLL Z 20
@<TRIPOS>SET

