#    Name: 3fqk_79Z_2_ligand
#    Modification time : Tue Mar 25 06:16:38 2014

@<TRIPOS>MOLECULE
3fqk_79Z_2_ligand
   54    57     1     0     0
SMALL
NO_CHARGES


@<TRIPOS>ATOM
      1 C1         -7.1210   -8.5730   14.3120 C.3       1 79Z571      0.0000 
      2 C2         -6.4850   -8.6940   12.9320 C.3       1 79Z571      0.0000 
      3 C3         -5.7550   -7.9440   14.0450 C.3       1 79Z571      0.0000 
      4 C4         -2.7420  -15.2000   12.5280 C.ar      1 79Z571      0.0000 
      5 C5         -1.4740  -15.1610   13.1410 C.ar      1 79Z571      0.0000 
      6 C6         -0.6370  -16.2490   13.0740 C.ar      1 79Z571      0.0000 
      7 C7         -1.0490  -17.3490   12.3390 C.ar      1 79Z571      0.0000 
      8 C8         -2.2760  -17.3820   11.6930 C.ar      1 79Z571      0.0000 
      9 C9         -3.1220  -16.2970   11.7550 C.ar      1 79Z571      0.0000 
     10 C10        -5.9660  -10.0550   12.5040 C.ar      1 79Z571      0.0000 
     11 C11        -6.4270  -10.6590   11.3030 C.ar      1 79Z571      0.0000 
     12 C12        -5.9440  -11.9120   10.9220 C.ar      1 79Z571      0.0000 
     13 C13        -5.0580  -10.7400   13.3200 C.ar      1 79Z571      0.0000 
     14 C14        -4.5680  -11.9910   12.9220 C.ar      1 79Z571      0.0000 
     15 C15        -5.0240  -12.5690   11.7130 C.ar      1 79Z571      0.0000 
     16 O16        -4.4170  -13.7500   11.5520 O.3       1 79Z571      0.0000 
     17 C17        -3.5830  -14.0060   12.5630 C.2       1 79Z571      0.0000 
     18 C18        -3.6020  -12.9610   13.4890 C.2       1 79Z571      0.0000 
     19 C19        -2.8190  -12.8200   14.7400 C.2       1 79Z571      0.0000 
     20 O20        -1.9140  -12.0210   14.8010 O.2       1 79Z571      0.0000 
     21 N21        -3.0740  -13.5630   15.8380 N.am      1 79Z571      0.0000 
     22 C22        -2.2750  -13.3730   17.0500 C.3       1 79Z571      0.0000 
     23 N23        -7.3270  -10.0440   10.4050 N.pl3     1 79Z571      0.0000 
     24 S24        -6.6520   -9.2280    9.1200 S.o2      1 79Z571      0.0000 
     25 O25        -7.3650   -8.0030    9.0750 O.2       1 79Z571      0.0000 
     26 O26        -5.2480   -9.1240    9.2990 O.2       1 79Z571      0.0000 
     27 C27        -6.9980  -10.3420    7.7260 C.3       1 79Z571      0.0000 
     28 F28        -0.2430  -18.4150   12.2490 F         1 79Z571      0.0000 
     29 C29        -8.7960  -10.1130   10.4550 C.3       1 79Z571      0.0000 
     30 C30        -9.4160  -10.1780   11.8490 C.3       1 79Z571      0.0000 
     31 O31       -10.5440  -11.0570   11.7830 O.3       1 79Z571      0.0000 
     32 H          -6.9751   -9.3886   14.7676 H         1 79Z571      0.0000 
     33 H          -7.7657   -7.8824   14.2712 H         1 79Z571      0.0000 
     34 H          -6.9029   -8.0258   12.3802 H         1 79Z571      0.0000 
     35 H          -5.0997   -8.5261   14.3979 H         1 79Z571      0.0000 
     36 H          -5.8903   -7.0199   13.9014 H         1 79Z571      0.0000 
     37 H          -1.1870  -14.3055   13.6383 H         1 79Z571      0.0000 
     38 H           0.2644  -16.2519   13.5507 H         1 79Z571      0.0000 
     39 H          -2.5522  -18.2254   11.1647 H         1 79Z571      0.0000 
     40 H          -4.0077  -16.2880   11.2503 H         1 79Z571      0.0000 
     41 H          -6.2794  -12.3408   10.0476 H         1 79Z571      0.0000 
     42 H          -4.7520  -10.3282   14.2063 H         1 79Z571      0.0000 
     43 H          -3.8128  -14.2704   15.8742 H         1 79Z571      0.0000 
     44 H          -9.1555  -11.0018    9.8802 H         1 79Z571      0.0000 
     45 H          -9.2371   -9.2323    9.9264 H         1 79Z571      0.0000 
     46 H          -9.7038   -9.1696   12.1366 H         1 79Z571      0.0000 
     47 H          -8.6576  -10.5423   12.5379 H         1 79Z571      0.0000 
     48 H          -1.3043  -13.5491   16.8863 H         1 79Z571      0.0000 
     49 H          -2.3484  -12.4394   17.4007 H         1 79Z571      0.0000 
     50 H          -2.5642  -13.9859   17.7853 H         1 79Z571      0.0000 
     51 H          -6.6478   -9.9772    6.8633 H         1 79Z571      0.0000 
     52 H          -6.5790  -11.2406    7.8559 H         1 79Z571      0.0000 
     53 H          -7.9793  -10.4910    7.6044 H         1 79Z571      0.0000 
     54 H         -10.1686  -11.9714   11.9344 H         1 79Z571      0.0000 
@<TRIPOS>BOND
     1    2    1 1    
     2    3    1 1    
     3   32    1 1    
     4   33    1 1    
     5    3    2 1    
     6   10    2 1    
     7   34    2 1    
     8   35    3 1    
     9   36    3 1    
    10    5    4 ar   
    11    9    4 ar   
    12   17    4 1    
    13    6    5 ar   
    14   37    5 1    
    15    7    6 ar   
    16   38    6 1    
    17    8    7 ar   
    18   28    7 1    
    19    9    8 ar   
    20   39    8 1    
    21   40    9 1    
    22   11   10 ar   
    23   13   10 ar   
    24   12   11 ar   
    25   23   11 1    
    26   15   12 ar   
    27   41   12 1    
    28   14   13 ar   
    29   42   13 1    
    30   15   14 ar   
    31   18   14 1    
    32   16   15 1    
    33   17   16 1    
    34   18   17 2    
    35   19   18 1    
    36   20   19 2    
    37   21   19 am   
    38   22   21 1    
    39   43   21 1    
    40   48   22 1    
    41   49   22 1    
    42   50   22 1    
    43   24   23 1    
    44   29   23 1    
    45   25   24 2    
    46   26   24 2    
    47   27   24 1    
    48   51   27 1    
    49   52   27 1    
    50   53   27 1    
    51   30   29 1    
    52   44   29 1    
    53   45   29 1    
    54   31   30 1    
    55   46   30 1    
    56   47   30 1    
    57   54   31 1    
@<TRIPOS>SUBSTRUCTURE
     1 79Z571      1 GROUP   
@<TRIPOS>SET

