#    Name: 4hbw_14Z_1_INTS_M
#    Modification time : Tue Mar 25 00:48:46 2014

@<TRIPOS>MOLECULE
4hbw_14Z_1_INTS_M
   46     0     9     0     0
SMALL
NO_CHARGES


@<TRIPOS>ATOM
      1 CA         27.6600   18.4350   -6.8505 C.3       3 GLC5        0.0000 
      2 CA         26.9350   17.8170   -5.1240 C.3       9 GLL5        0.0000 
      3 CA         28.3850   19.0530   -8.5770 C.3       6 GLP5        0.0000 
      4 CA         28.5765   19.1410   -4.9495 C.3       3 GLC5        0.0000 
      5 CA         30.2180   20.4650   -4.7750 C.3       6 GLP5        0.0000 
      6 CA         26.2150   18.3330   -2.5075 C.3       3 GLC5        0.0000 
      7 CA         26.9900   17.0030   -3.8260 C.3       9 GLL5        0.0000 
      8 CA         25.4400   19.6630   -1.1890 C.3       6 GLP5        0.0000 
      9 CA         28.1210   18.3870   -2.8615 C.3       3 GLC5        0.0000 
     10 CA         29.2520   19.7710   -1.8970 C.3       6 GLP5        0.0000 
     11 CA         27.6065   17.5320   -0.6120 C.3       3 GLC5        0.0000 
     12 CA         28.8680   15.9120   -1.0470 C.3       9 GLL5        0.0000 
     13 CA         26.3450   19.1520   -0.1770 C.3       6 GLP5        0.0000 
     14 CA         28.1885   18.1785    0.2875 C.3       3 GLC5        0.0000 
     15 CA         30.0320   17.2050    0.7520 C.3       9 GLL5        0.0000 
     16 CA         30.9405   17.0415    2.5730 C.3       3 GLC5        0.0000 
     17 CA         31.8490   16.8780    4.3940 C.3       6 GLP5        0.0000 
     18 CA         30.5945   20.9300    1.4740 C.3       3 GLC5        0.0000 
     19 CA         31.1540   19.1450    1.9100 C.3       9 GLL5        0.0000 
     20 CA         30.0350   22.7150    1.0380 C.3       6 GLP5        0.0000 
     21 CA         31.5015   18.0115    3.1520 C.3       3 GLC5        0.0000 
     22 CA         30.2030   19.4580    0.0065 C.3       3 GLC5        0.0000 
     23 N          34.2680   18.7965   -0.7850 N.am      2 SEC2        0.0000 
     24 N          33.4400   18.4760    0.3330 N.am      8 SEL2        0.0000 
     25 N          35.0960   19.1170   -1.9030 N.am      5 SEP2        0.0000 
     26 O          33.6140   16.9660   -1.8835 O.2       1 ALC1        0.0000 
     27 O          32.4940   16.7420   -0.7730 O.2       7 ALL1        0.0000 
     28 O          34.7340   17.1900   -2.9940 O.2       4 ALP1        0.0000 
     29 CA         30.9835   17.9565   -1.7815 C.3       3 GLC5        0.0000 
     30 CA         31.2950   16.1520   -1.2020 C.3       9 GLL5        0.0000 
     31 CA         30.6720   19.7610   -2.3610 C.3       6 GLP5        0.0000 
     32 CA         31.0595   17.4605   -3.1395 C.3       3 GLC5        0.0000 
     33 CA         31.2730   15.5220   -2.4410 C.3       9 GLL5        0.0000 
     34 CA         30.8460   19.3990   -3.8380 C.3       6 GLP5        0.0000 
     35 CA         25.1968   17.0800   -3.8565 C.3       3 GLC5        0.0000 
     36 CA         23.4310   16.7500   -3.2380 C.3       6 GLP5        0.0000 
     37 CA         26.5307   19.2590   -4.6340 C.3       3 GLC5        0.0000 
     38 CA         26.0990   21.1080   -4.7930 C.3       6 GLP5        0.0000 
     39 CA         28.8268   14.4352   -0.0182 C.3       3 GLC5        0.0000 
     40 CA         28.8730   15.1950   -2.2720 C.3       9 GLL5        0.0000 
     41 CA         28.7830   13.3170    1.6230 C.3       6 GLP5        0.0000 
     42 CA         29.4225   15.0560    0.8612 C.3       3 GLC5        0.0000 
     43 CA         30.0920   16.3850   -0.5530 C.3       9 GLL5        0.0000 
     44 CA         29.5040   18.2239   -0.9605 C.3       3 GLC5        0.0000 
     45 CA         31.8071   14.3721   -0.6936 C.3       3 GLC5        0.0000 
     46 CA         32.6310   12.8490    0.2720 C.3       6 GLP5        0.0000 
@<TRIPOS>BOND
@<TRIPOS>SUBSTRUCTURE
     1 ALC1       26 GROUP        1 X    ALC  0     ROOT ALC X 1
     2 SEC2       23 GROUP        1 X    SEC  0     **** SEC X 2
     3 GLC5        1 GROUP        1 X    GLC  0     **** GLC X 6
     4 ALP1       28 GROUP        1 Y    ALP  0     ROOT ALP Y 8
     5 SEP2       25 GROUP        1 Y    SEP  0     **** SEP Y 9
     6 GLP5        3 GROUP        1 Y    GLP  0     **** GLP Y 13
     7 ALL1       27 GROUP        1 Z    ALL  0     ROOT ALL Z 15
     8 SEL2       24 GROUP        1 Z    SEL  0     **** SEL Z 16
     9 GLL5        2 GROUP        1 Z    GLL  0     **** GLL Z 20
@<TRIPOS>SET

