#    Name: 4hbw_14Z_1_ligand
#    Modification time : Tue Mar 25 00:48:46 2014

@<TRIPOS>MOLECULE
4hbw_14Z_1_ligand
   33    34     1     0     0
SMALL
NO_CHARGES


@<TRIPOS>ATOM
      1 CAO        26.9350   17.8170   -5.1240 C.3       1 14Z202      0.0000 
      2 CAN        26.9900   17.0030   -3.8260 C.3       1 14Z202      0.0000 
      3 NAM        27.2240   15.5870   -4.1500 N.pl3     1 14Z202      0.0000 
      4 SAP        27.3170   14.6020   -2.9210 S.o2      1 14Z202      0.0000 
      5 OAQ        27.7270   13.2090   -3.2990 O.2       1 14Z202      0.0000 
      6 OAR        26.4640   14.8550   -1.7890 O.2       1 14Z202      0.0000 
      7 CAA        28.8730   15.1950   -2.2720 C.ar      1 14Z202      0.0000 
      8 CAF        28.8680   15.9120   -1.0470 C.ar      1 14Z202      0.0000 
      9 CAE        30.0920   16.3850   -0.5530 C.ar      1 14Z202      0.0000 
     10 CAJ        30.0320   17.2050    0.7520 C.3       1 14Z202      0.0000 
     11 NAI        31.2510   18.0710    0.8450 N.am      1 14Z202      0.0000 
     12 CAL        31.1540   19.1450    1.9100 C.3       1 14Z202      0.0000 
     13 CAH        32.4470   17.7690    0.1800 C.2       1 14Z202      0.0000 
     14 OAK        33.4400   18.4760    0.3330 O.2       1 14Z202      0.0000 
     15 NAG        32.4940   16.7420   -0.7730 N.am      1 14Z202      0.0000 
     16 CAD        31.2950   16.1520   -1.2020 C.ar      1 14Z202      0.0000 
     17 CAC        31.2730   15.5220   -2.4410 C.ar      1 14Z202      0.0000 
     18 CAB        30.0800   15.0130   -2.9360 C.ar      1 14Z202      0.0000 
     19 H          26.0450   17.1295   -3.3014 H         1 14Z202      0.0000 
     20 H          27.7941   17.3971   -3.2077 H         1 14Z202      0.0000 
     21 H          27.3205   15.2359   -5.0324 H         1 14Z202      0.0000 
     22 H          28.0043   16.0725   -0.5520 H         1 14Z202      0.0000 
     23 H          29.9920   16.5188    1.5897 H         1 14Z202      0.0000 
     24 H          29.1364   17.8148    0.7360 H         1 14Z202      0.0000 
     25 H          33.3863   16.4275   -1.1496 H         1 14Z202      0.0000 
     26 H          32.1381   15.4337   -2.9885 H         1 14Z202      0.0000 
     27 H          30.0894   14.4792   -3.8308 H         1 14Z202      0.0000 
     28 H          27.7870   17.7468   -5.6428 H         1 14Z202      0.0000 
     29 H          26.1990   17.5070   -5.7259 H         1 14Z202      0.0000 
     30 H          26.7790   18.7887   -4.9467 H         1 14Z202      0.0000 
     31 H          31.9803   19.7070    1.9470 H         1 14Z202      0.0000 
     32 H          30.3859   19.7637    1.7447 H         1 14Z202      0.0000 
     33 H          31.0245   18.7539    2.8212 H         1 14Z202      0.0000 
@<TRIPOS>BOND
     1    2    1 1    
     2   28    1 1    
     3   29    1 1    
     4   30    1 1    
     5    3    2 1    
     6   19    2 1    
     7   20    2 1    
     8    4    3 1    
     9   21    3 1    
    10    5    4 2    
    11    6    4 2    
    12    7    4 1    
    13    8    7 ar   
    14   18    7 ar   
    15    9    8 ar   
    16   22    8 1    
    17   10    9 1    
    18   16    9 ar   
    19   11   10 1    
    20   23   10 1    
    21   24   10 1    
    22   12   11 1    
    23   13   11 am   
    24   31   12 1    
    25   32   12 1    
    26   33   12 1    
    27   14   13 2    
    28   15   13 am   
    29   16   15 1    
    30   25   15 1    
    31   17   16 ar   
    32   18   17 ar   
    33   26   17 1    
    34   27   18 1    
@<TRIPOS>SUBSTRUCTURE
     1 14Z202      1 GROUP   
@<TRIPOS>SET

