#    Name: 3u9a_S33_1_INTS_M
#    Modification time : Mon Mar 24 21:56:45 2014

@<TRIPOS>MOLECULE
3u9a_S33_1_INTS_M
  102     0     9     0     0
SMALL
NO_CHARGES


@<TRIPOS>ATOM
      1 CA         22.4780  -11.4090   27.2960 C.3       3 GLC5        0.0000 
      2 CA         20.7920  -11.7680   26.8030 C.3       9 GLL5        0.0000 
      3 CA         24.1640  -11.0500   27.7890 C.3       6 GLP5        0.0000 
      4 CA         21.4725  -10.6855   25.2165 C.3       3 GLC5        0.0000 
      5 CA         22.1530   -9.6030   23.6300 C.3       6 GLP5        0.0000 
      6 CA         21.1090  -12.2460   28.6785 C.3       3 GLC5        0.0000 
      7 CA         21.4260  -12.7240   30.5540 C.3       6 GLP5        0.0000 
      8 CA         19.2405  -11.2220   27.0395 C.3       3 GLC5        0.0000 
      9 CA         17.6890  -10.6760   27.2760 C.3       6 GLP5        0.0000 
     10 CA         23.9190  -12.7100   22.0450 C.3       3 GLC5        0.0000 
     11 CA         23.9150  -13.0610   24.1780 C.3       9 GLL5        0.0000 
     12 CA         23.9230  -12.3590   19.9120 C.3       6 GLP5        0.0000 
     13 CA         25.5840  -13.0990   25.6655 C.3       3 GLC5        0.0000 
     14 CA         27.2530  -13.1370   27.1530 C.3       6 GLP5        0.0000 
     15 CA         24.0395  -12.0555   25.9835 C.3       3 GLC5        0.0000 
     16 CA         23.0340  -11.3320   23.9040 C.3       3 GLC5        0.0000 
     17 CA         21.8995  -11.5745   24.2825 C.3       3 GLC5        0.0000 
     18 CA         21.6460  -13.5460   24.9350 C.3       9 GLL5        0.0000 
     19 CA         20.6350  -11.4975   24.4835 C.3       3 GLC5        0.0000 
     20 CA         20.5810  -13.1870   25.7370 C.3       9 GLL5        0.0000 
     21 CA         20.6890   -9.8080   23.2300 C.3       6 GLP5        0.0000 
     22 O          15.5625  -14.6245   24.2230 O.2       1 ALC1        0.0000 
     23 O          16.8570  -15.1320   23.7740 O.2       7 ALL1        0.0000 
     24 O          14.2680  -14.1170   24.6720 O.2       4 ALP1        0.0000 
     25 N          15.3645  -12.1515   23.8540 N.am      2 SEC2        0.0000 
     26 N          16.1190  -12.8020   22.6230 N.am      8 SEL2        0.0000 
     27 N          14.6100  -11.5010   25.0850 N.am      5 SEP2        0.0000 
     28 CA         18.0040  -15.7435   19.4810 C.3       3 GLC5        0.0000 
     29 CA         16.8770  -15.7490   21.3630 C.3       9 GLL5        0.0000 
     30 CA         19.1310  -15.7380   17.5990 C.3       6 GLP5        0.0000 
     31 CA         19.1385  -10.6415   21.9915 C.3       3 GLC5        0.0000 
     32 CA         17.5880  -11.4750   20.7530 C.3       9 GLL5        0.0000 
     33 CA         17.4705  -10.8830   22.7195 C.3       3 GLC5        0.0000 
     34 CA         17.3530  -10.2910   24.6860 C.3       6 GLP5        0.0000 
     35 CA         21.2235  -13.1385   19.0870 C.3       3 GLC5        0.0000 
     36 CA         19.6100  -12.3330   19.7060 C.3       9 GLL5        0.0000 
     37 CA         22.8370  -13.9440   18.4680 C.3       6 GLP5        0.0000 
     38 CA         20.1495  -11.0705   21.4680 C.3       3 GLC5        0.0000 
     39 CA         21.1290  -13.5100   20.1265 C.3       3 GLC5        0.0000 
     40 CA         18.9940  -13.4610   20.5180 C.3       9 GLL5        0.0000 
     41 CA         23.2640  -13.5590   19.7350 C.3       6 GLP5        0.0000 
     42 O          16.2355   -9.2465   21.4735 O.2       1 ALC1        0.0000 
     43 O          15.5010  -10.2350   20.7070 O.2       7 ALL1        0.0000 
     44 O          16.9700   -8.2580   22.2400 O.2       4 ALP1        0.0000 
     45 CA         14.7870   -8.4480   18.8935 C.3       3 GLC5        0.0000 
     46 CA         14.1060   -9.9910   20.3600 C.3       9 GLL5        0.0000 
     47 CA         15.4680   -6.9050   17.4270 C.3       6 GLP5        0.0000 
     48 CA         12.0110  -11.9820   18.9905 C.3       3 GLC5        0.0000 
     49 CA         12.5290  -12.3510   21.0730 C.3       9 GLL5        0.0000 
     50 CA         11.4930  -11.6130   16.9080 C.3       6 GLP5        0.0000 
     51 CA         10.7990  -13.1270   20.9700 C.3       3 GLC5        0.0000 
     52 CA          9.0690  -13.9030   20.8670 C.3       6 GLP5        0.0000 
     53 O          13.6995  -13.7765   23.2600 O.2       1 ALC1        0.0000 
     54 O          13.1310  -13.4360   21.8480 O.2       7 ALL1        0.0000 
     55 O          12.0245  -13.8820   22.8700 O.2       1 ALC1        0.0000 
     56 O          10.9180  -14.3280   23.8920 O.2       4 ALP1        0.0000 
     57 CA         10.3580  -12.4985   21.9530 C.3       3 GLC5        0.0000 
     58 CA         11.6470  -11.0940   23.0390 C.3       9 GLL5        0.0000 
     59 CA         11.3820   -9.2190   25.8735 C.3       3 GLC5        0.0000 
     60 CA         11.5540   -9.9650   23.8470 C.3       9 GLL5        0.0000 
     61 CA         11.2100   -8.4730   27.9000 C.3       6 GLP5        0.0000 
     62 CA         10.7935   -7.2055   23.2980 C.3       3 GLC5        0.0000 
     63 CA         12.2550   -7.4000   24.5180 C.3       9 GLL5        0.0000 
     64 CA          9.3320   -7.0110   22.0780 C.3       6 GLP5        0.0000 
     65 CA         14.1210   -8.5365   24.4255 C.3       3 GLC5        0.0000 
     66 CA         15.9870   -9.6730   24.3330 C.3       6 GLP5        0.0000 
     67 CA         11.7325   -7.9365   26.2090 C.3       3 GLC5        0.0000 
     68 CA         11.3590   -5.8435   25.3185 C.3       3 GLC5        0.0000 
     69 CA         10.4630   -4.2870   26.1190 C.3       6 GLP5        0.0000 
     70 CA         20.7295  -14.4935   27.5433 C.3       3 GLC5        0.0000 
     71 CA         19.3810  -13.8930   25.7060 C.3       9 GLL5        0.0000 
     72 CA         21.4780  -15.4470   29.3650 C.3       6 GLP5        0.0000 
     73 CA         18.6670  -11.9155   25.2037 C.3       3 GLC5        0.0000 
     74 CA         12.1901  -18.2230   24.0590 C.3       3 GLC5        0.0000 
     75 CA         14.3070  -19.0610   23.2190 C.3       9 GLL5        0.0000 
     76 CA         11.0330  -16.7100   23.9360 C.3       6 GLP5        0.0000 
     77 CA         13.8328  -18.2345   27.2570 C.3       3 GLC5        0.0000 
     78 CA         13.9500  -19.7760   25.8800 C.3       9 GLL5        0.0000 
     79 CA         13.7970  -16.5230   28.0190 C.3       6 GLP5        0.0000 
     80 CA         14.3813  -17.4177   25.7302 C.3       3 GLC5        0.0000 
     81 CA         15.1060  -19.1120   25.4830 C.3       9 GLL5        0.0000 
     82 CA         13.5660  -15.9030   26.6420 C.3       6 GLP5        0.0000 
     83 CA         19.0544  -10.1319   18.9894 C.3       3 GLC5        0.0000 
     84 CA         19.2830   -8.4000   18.0540 C.3       6 GLP5        0.0000 
     85 CA         18.7176  -13.6346   18.6620 C.3       3 GLC5        0.0000 
     86 CA         18.4950  -11.3140   19.5340 C.3       9 GLL5        0.0000 
     87 CA         18.4120  -14.6270   17.2550 C.3       6 GLP5        0.0000 
     88 CA         12.8812   -7.5092   21.6103 C.3       3 GLC5        0.0000 
     89 CA         13.2170   -9.9830   21.5820 C.3       9 GLL5        0.0000 
     90 CA         12.5790   -5.6000   21.2370 C.3       6 GLP5        0.0000 
     91 CA         12.8588  -11.6382   24.2093 C.3       3 GLC5        0.0000 
     92 CA         12.4600  -11.0910   21.9140 C.3       9 GLL5        0.0000 
     93 CA         13.6640  -12.1840   25.9420 C.3       6 GLP5        0.0000 
     94 CA         10.6039  -11.0693   21.0151 C.3       3 GLC5        0.0000 
     95 CA          9.1370  -10.7310   19.7640 C.3       6 GLP5        0.0000 
     96 CA         13.9647   -9.5442   24.0042 C.3       3 GLC5        0.0000 
     97 CA         12.3310   -8.8660   23.5040 C.3       9 GLL5        0.0000 
     98 CA         12.8032  -10.7997   24.8087 C.3       3 GLC5        0.0000 
     99 CA         12.4360   -6.8665   22.6240 C.3       3 GLC5        0.0000 
    100 CA         10.9391   -8.0729   22.5541 C.3       3 GLC5        0.0000 
    101 CA         13.1500   -8.8540   22.3850 C.3       9 GLL5        0.0000 
    102 CA         14.6964   -9.5467   23.0055 C.3       3 GLC5        0.0000 
@<TRIPOS>BOND
@<TRIPOS>SUBSTRUCTURE
     1 ALC1       22 GROUP        1 X    ALC  0     ROOT ALC X 1
     2 SEC2       25 GROUP        1 X    SEC  0     **** SEC X 2
     3 GLC5        1 GROUP        1 X    GLC  0     **** GLC X 6
     4 ALP1       24 GROUP        1 Y    ALP  0     ROOT ALP Y 8
     5 SEP2       27 GROUP        1 Y    SEP  0     **** SEP Y 9
     6 GLP5        3 GROUP        1 Y    GLP  0     **** GLP Y 13
     7 ALL1       23 GROUP        1 Z    ALL  0     ROOT ALL Z 15
     8 SEL2       26 GROUP        1 Z    SEL  0     **** SEL Z 16
     9 GLL5        2 GROUP        1 Z    GLL  0     **** GLL Z 20
@<TRIPOS>SET

