#    Name: 3u9a_S33_1_ligand
#    Modification time : Mon Mar 24 21:56:45 2014

@<TRIPOS>MOLECULE
3u9a_S33_1_ligand
   82    85     1     0     0
SMALL
NO_CHARGES


@<TRIPOS>ATOM
      1 S26        17.8780  -15.8350   24.7990 S.o2      1 S331        0.0000 
      2 CL4        20.7920  -11.7680   26.8030 Cl        1 S331        0.0000 
      3 C1         19.2500  -14.9910   24.8640 C.ar      1 S331        0.0000 
      4 C45        23.9150  -13.0610   24.1780 C.3       1 S331        0.0000 
      5 O44        22.7940  -12.7940   25.0210 O.3       1 S331        0.0000 
      6 C43        21.6460  -13.5460   24.9350 C.ar      1 S331        0.0000 
      7 O5         17.2570  -15.8000   26.0770 O.2       1 S331        0.0000 
      8 O42        18.1580  -17.1570   24.3160 O.2       1 S331        0.0000 
      9 C47        20.3310  -15.3550   24.0550 C.ar      1 S331        0.0000 
     10 C40        19.3810  -13.8930   25.7060 C.ar      1 S331        0.0000 
     11 C46        21.5310  -14.6400   24.0860 C.ar      1 S331        0.0000 
     12 C41        20.5810  -13.1870   25.7370 C.ar      1 S331        0.0000 
     13 C8         17.0540  -13.3900   22.0950 C.2       1 S331        0.0000 
     14 N3         16.8570  -15.1320   23.7740 N.pl3     1 S331        0.0000 
     15 O9         16.1190  -12.8020   22.6230 O.2       1 S331        0.0000 
     16 C31        14.4680  -18.6790   21.7690 C.3       1 S331        0.0000 
     17 C32        14.3070  -19.0610   23.2190 C.ar      1 S331        0.0000 
     18 C33        13.1480  -19.7230   23.6150 C.ar      1 S331        0.0000 
     19 C34        12.9670  -20.0800   24.9470 C.ar      1 S331        0.0000 
     20 C35        13.9500  -19.7760   25.8800 C.ar      1 S331        0.0000 
     21 C36        15.1060  -19.1120   25.4830 C.ar      1 S331        0.0000 
     22 C37        15.2870  -18.7530   24.1540 C.ar      1 S331        0.0000 
     23 C38        13.7870  -20.1160   27.1100 C.1       1 S331        0.0000 
     24 N39        13.6360  -20.4240   28.2170 N.1       1 S331        0.0000 
     25 C6         17.3720  -14.8090   22.4690 C.3       1 S331        0.0000 
     26 C7         16.8770  -15.7490   21.3630 C.3       1 S331        0.0000 
     27 C28        15.5710  -16.4700   21.6200 C.2       1 S331        0.0000 
     28 O29        14.5340  -15.8680   21.8530 O.2       1 S331        0.0000 
     29 N30        15.6140  -17.8020   21.5750 N.am      1 S331        0.0000 
     30 N10        17.8540  -12.8400   21.1930 N.am      1 S331        0.0000 
     31 C11        17.5880  -11.4750   20.7530 C.3       1 S331        0.0000 
     32 C15        16.1450  -11.3430   20.3450 C.2       1 S331        0.0000 
     33 O16        15.5550  -12.2120   19.7090 O.2       1 S331        0.0000 
     34 C12        18.4950  -11.3140   19.5340 C.3       1 S331        0.0000 
     35 C13        19.6100  -12.3330   19.7060 C.3       1 S331        0.0000 
     36 C14        18.9940  -13.4610   20.5180 C.3       1 S331        0.0000 
     37 N17        15.5010  -10.2350   20.7070 N.am      1 S331        0.0000 
     38 C18        14.1060   -9.9910   20.3600 C.3       1 S331        0.0000 
     39 C19        13.2170   -9.9830   21.5820 C.ar      1 S331        0.0000 
     40 C20        12.4600  -11.0910   21.9140 C.ar      1 S331        0.0000 
     41 C25        12.5290  -12.3510   21.0730 C.3       1 S331        0.0000 
     42 N27        13.1310  -13.4360   21.8480 N.4       1 S331        0.0000 
     43 C21        11.6470  -11.0940   23.0390 C.ar      1 S331        0.0000 
     44 C22        11.5540   -9.9650   23.8470 C.ar      1 S331        0.0000 
     45 C23        12.3310   -8.8660   23.5040 C.ar      1 S331        0.0000 
     46 CL2        12.2550   -7.4000   24.5180 Cl        1 S331        0.0000 
     47 C24        13.1500   -8.8540   22.3850 C.ar      1 S331        0.0000 
     48 H          20.2401  -16.1682   23.4225 H         1 S331        0.0000 
     49 H          18.5982  -13.6030   26.3023 H         1 S331        0.0000 
     50 H          22.3121  -14.9208   23.4905 H         1 S331        0.0000 
     51 H          15.9645  -14.9688   24.0915 H         1 S331        0.0000 
     52 H          13.5420  -18.1868   21.4321 H         1 S331        0.0000 
     53 H          14.5799  -19.5999   21.1751 H         1 S331        0.0000 
     54 H          12.4235  -19.9486   22.9196 H         1 S331        0.0000 
     55 H          12.1111  -20.5656   25.2382 H         1 S331        0.0000 
     56 H          15.8313  -18.8858   26.1798 H         1 S331        0.0000 
     57 H          16.1407  -18.2624   23.8636 H         1 S331        0.0000 
     58 H          18.4802  -14.8938   22.4752 H         1 S331        0.0000 
     59 H          17.6744  -16.5026   21.1631 H         1 S331        0.0000 
     60 H          16.7873  -15.1608   20.4197 H         1 S331        0.0000 
     61 H          16.5299  -18.3073   21.3866 H         1 S331        0.0000 
     62 H          17.8553  -10.7769   21.4793 H         1 S331        0.0000 
     63 H          18.9044  -10.3261   19.5203 H         1 S331        0.0000 
     64 H          17.9409  -11.5281   18.6447 H         1 S331        0.0000 
     65 H          20.4183  -11.8964   20.2488 H         1 S331        0.0000 
     66 H          19.9153  -12.6995   18.7515 H         1 S331        0.0000 
     67 H          18.6763  -14.2364   19.8514 H         1 S331        0.0000 
     68 H          19.7169  -13.8172   21.2231 H         1 S331        0.0000 
     69 H          15.9664   -9.4800   21.2615 H         1 S331        0.0000 
     70 H          13.7384  -10.7656   19.6667 H         1 S331        0.0000 
     71 H          13.9991   -9.0220   19.8449 H         1 S331        0.0000 
     72 H          13.1206  -12.1403   20.1775 H         1 S331        0.0000 
     73 H          11.5155  -12.6160   20.7584 H         1 S331        0.0000 
     74 H          11.1064  -11.9399   23.2795 H         1 S331        0.0000 
     75 H          10.9439   -9.9465   24.6526 H         1 S331        0.0000 
     76 H          13.6993   -8.0209   22.1540 H         1 S331        0.0000 
     77 H          24.6710  -12.4307   24.3546 H         1 S331        0.0000 
     78 H          24.2681  -13.9870   24.3118 H         1 S331        0.0000 
     79 H          23.6807  -12.9737   23.2098 H         1 S331        0.0000 
     80 H          12.4431  -13.9587   22.3516 H         1 S331        0.0000 
     81 H          13.6205  -14.0829   21.2633 H         1 S331        0.0000 
     82 H          13.7879  -13.0928   22.5194 H         1 S331        0.0000 
@<TRIPOS>BOND
     1    3    1 1    
     2    7    1 2    
     3    8    1 2    
     4   14    1 1    
     5   12    2 1    
     6    9    3 ar   
     7   10    3 ar   
     8    5    4 1    
     9   77    4 1    
    10   78    4 1    
    11   79    4 1    
    12    6    5 1    
    13   11    6 ar   
    14   12    6 ar   
    15   11    9 ar   
    16   48    9 1    
    17   12   10 ar   
    18   49   10 1    
    19   50   11 1    
    20   15   13 2    
    21   25   13 1    
    22   30   13 am   
    23   25   14 1    
    24   51   14 1    
    25   17   16 1    
    26   29   16 1    
    27   52   16 1    
    28   53   16 1    
    29   18   17 ar   
    30   22   17 ar   
    31   19   18 ar   
    32   54   18 1    
    33   20   19 ar   
    34   55   19 1    
    35   21   20 ar   
    36   23   20 1    
    37   22   21 ar   
    38   56   21 1    
    39   57   22 1    
    40   24   23 3    
    41   26   25 1    
    42   58   25 1    
    43   27   26 1    
    44   59   26 1    
    45   60   26 1    
    46   28   27 2    
    47   29   27 am   
    48   61   29 1    
    49   31   30 1    
    50   36   30 1    
    51   32   31 1    
    52   34   31 1    
    53   62   31 1    
    54   33   32 2    
    55   37   32 am   
    56   35   34 1    
    57   63   34 1    
    58   64   34 1    
    59   36   35 1    
    60   65   35 1    
    61   66   35 1    
    62   67   36 1    
    63   68   36 1    
    64   38   37 1    
    65   69   37 1    
    66   39   38 1    
    67   70   38 1    
    68   71   38 1    
    69   40   39 ar   
    70   47   39 ar   
    71   41   40 1    
    72   43   40 ar   
    73   42   41 1    
    74   72   41 1    
    75   73   41 1    
    76   80   42 1    
    77   81   42 1    
    78   82   42 1    
    79   44   43 ar   
    80   74   43 1    
    81   45   44 ar   
    82   75   44 1    
    83   46   45 1    
    84   47   45 ar   
    85   76   47 1    
@<TRIPOS>SUBSTRUCTURE
     1 S331        1 GROUP   
@<TRIPOS>SET

