#    Name: 2dfv_NAD_3_INTS_M
#    Modification time : Tue Mar 25 10:08:11 2014

@<TRIPOS>MOLECULE
2dfv_NAD_3_INTS_M
   84     0    12     0     0
SMALL
NO_CHARGES


@<TRIPOS>ATOM
      1 NZ         40.7920   -1.2290  -14.0735 N.4       3 LYC4        0.0000 
      2 NZ         41.8940   -1.7430  -13.1950 N.4      11 LYL4        0.0000 
      3 NZ         39.0780    0.3840  -14.4830 N.4       7 LYP4        0.0000 
      4 N          40.7920   -1.2290  -14.0735 N.am      2 SEC2        0.0000 
      5 N          41.8940   -1.7430  -13.1950 N.am     10 SEL2        0.0000 
      6 N          39.6900   -0.7150  -14.9520 N.am      6 SEP2        0.0000 
      7 CA         43.2675   -2.3670  -19.3265 C.3       4 GLC5        0.0000 
      8 CA         42.0950   -2.9680  -17.6880 C.3      12 GLL5        0.0000 
      9 CA         44.4400   -1.7660  -20.9650 C.3       8 GLP5        0.0000 
     10 N          39.9015   -1.1525  -16.3175 N.am      2 SEC2        0.0000 
     11 N          40.1130   -1.5900  -17.6830 N.am     10 SEL2        0.0000 
     12 O          40.3665   -1.0830  -18.9085 O.2       1 ALC1        0.0000 
     13 O          40.1130   -1.5900  -17.6830 O.2       9 ALL1        0.0000 
     14 O          40.6200   -0.5760  -20.1340 O.2       5 ALP1        0.0000 
     15 O          39.4025   -1.5045  -19.1860 O.2       1 ALC1        0.0000 
     16 O          38.6920   -1.4190  -20.6890 O.2       5 ALP1        0.0000 
     17 O          38.7415   -2.3890  -19.8600 O.2       1 ALC1        0.0000 
     18 O          38.7910   -3.3590  -19.0310 O.2       9 ALL1        0.0000 
     19 CA         42.7530   -2.8385  -20.2355 C.3       4 GLC5        0.0000 
     20 CA         41.0660   -3.9110  -19.5060 C.3      12 GLL5        0.0000 
     21 CA         40.0330   -3.7190  -21.3250 C.3       4 GLC5        0.0000 
     22 CA         39.0000   -3.5270  -23.1440 C.3       8 GLP5        0.0000 
     23 CA         42.9385   -4.6355  -19.9205 C.3       4 GLC5        0.0000 
     24 CA         44.8110   -5.3600  -20.3350 C.3       8 GLP5        0.0000 
     25 CA         40.5640   -5.5815  -25.0615 C.3       4 GLC5        0.0000 
     26 CA         41.6110   -6.5680  -23.5500 C.3      12 GLL5        0.0000 
     27 CA         39.5170   -4.5950  -26.5730 C.3       8 GLP5        0.0000 
     28 CA         43.5825   -7.0525  -23.9140 C.3       4 GLC5        0.0000 
     29 CA         45.5540   -7.5370  -24.2780 C.3       8 GLP5        0.0000 
     30 CA         44.6385   -4.1600  -24.0980 C.3       4 GLC5        0.0000 
     31 CA         42.6070   -4.3880  -23.6760 C.3      12 GLL5        0.0000 
     32 CA         46.6700   -3.9320  -24.5200 C.3       8 GLP5        0.0000 
     33 CA         43.5235   -3.0770  -22.3205 C.3       4 GLC5        0.0000 
     34 CA         43.0670   -3.1735  -25.4530 C.3       4 GLC5        0.0000 
     35 CA         43.5270   -1.9590  -27.2300 C.3       8 GLP5        0.0000 
     36 CA         41.4565   -2.6485  -23.7890 C.3       4 GLC5        0.0000 
     37 CA         40.3060   -0.9090  -23.9020 C.3       8 GLP5        0.0000 
     38 CA         40.8035   -3.9575  -23.4100 C.3       4 GLC5        0.0000 
     39 CA         41.0620   -4.4915  -25.1245 C.3       4 GLC5        0.0000 
     40 CA         43.7090   -4.8740  -22.0055 C.3       4 GLC5        0.0000 
     41 CA         44.0805   -5.9625  -23.9770 C.3       4 GLC5        0.0000 
     42 N          45.8415    0.5565  -14.1200 N.am      2 SEC2        0.0000 
     43 N          45.1670   -0.8370  -14.0250 N.am     10 SEL2        0.0000 
     44 N          46.5160    1.9500  -14.2150 N.am      6 SEP2        0.0000 
     45 CA         47.5680   -1.4390  -14.4460 C.3       4 GLC5        0.0000 
     46 CA         46.6560   -3.2620  -14.6350 C.3      12 GLL5        0.0000 
     47 CA         48.4800    0.3840  -14.2570 C.3       8 GLP5        0.0000 
     48 N          48.1085   -7.7780  -14.8620 N.am      2 SEC2        0.0000 
     49 N          46.9500   -6.9140  -14.4660 N.am     10 SEL2        0.0000 
     50 N          49.2670   -8.6420  -15.2580 N.am      6 SEP2        0.0000 
     51 O          45.6615   -7.4230  -14.7310 O.2       1 ALC1        0.0000 
     52 O          46.9500   -6.9140  -14.4660 O.2       9 ALL1        0.0000 
     53 O          44.3730   -7.9320  -14.9960 O.2       5 ALP1        0.0000 
     54 CA         49.4220   -5.9605  -14.7450 C.3       4 GLC5        0.0000 
     55 CA         48.9860   -5.2580  -13.0070 C.3      12 GLL5        0.0000 
     56 CA         49.8580   -6.6630  -16.4830 C.3       8 GLP5        0.0000 
     57 CA         49.8040   -7.1030  -12.1610 C.3       4 GLC5        0.0000 
     58 CA         50.6220   -8.9480  -11.3150 C.3       8 GLP5        0.0000 
     59 CA         51.9530   -4.2585  -13.5420 C.3       4 GLC5        0.0000 
     60 CA         51.1670   -5.4130  -12.1120 C.3      12 GLL5        0.0000 
     61 CA         52.7390   -3.1040  -14.9720 C.3       8 GLP5        0.0000 
     62 O          55.5710   -6.3525  -10.1730 O.2       1 ALC1        0.0000 
     63 O          54.3680   -5.9180  -10.5220 O.2       9 ALL1        0.0000 
     64 O          56.7740   -6.7870   -9.8240 O.2       5 ALP1        0.0000 
     65 CA         42.5528   -1.1978  -16.5360 C.3       4 GLC5        0.0000 
     66 CA         42.8180   -3.5170  -16.4540 C.3      12 GLL5        0.0000 
     67 CA         42.6490    0.8470  -16.0010 C.3       8 GLP5        0.0000 
     68 CA         44.0277   -4.2092  -18.0380 C.3       4 GLC5        0.0000 
     69 CA         45.5990   -5.1760  -19.0050 C.3       8 GLP5        0.0000 
     70 CA         43.0660   -5.5310  -21.1535 C.3       4 GLC5        0.0000 
     71 CA         41.1690   -6.3190  -22.2520 C.3      12 GLL5        0.0000 
     72 CA         40.2157   -4.6456  -22.7203 C.3       4 GLC5        0.0000 
     73 CA         42.3922   -7.4566  -21.8582 C.3       4 GLC5        0.0000 
     74 CA         41.4730   -5.0850  -21.6920 C.3      12 GLL5        0.0000 
     75 CA         43.3530   -9.1490  -21.4200 C.3       8 GLP5        0.0000 
     76 CA         48.4877   -5.8955  -15.3392 C.3       4 GLC5        0.0000 
     77 CA         47.4460   -4.5750  -14.6080 C.3      12 GLL5        0.0000 
     78 CA         51.1655   -7.0803  -11.5240 C.3       4 GLC5        0.0000 
     79 CA         53.1322   -3.8022  -12.5562 C.3       4 GLC5        0.0000 
     80 CA         52.2510   -5.0120  -11.3540 C.3      12 GLL5        0.0000 
     81 CA         54.0660   -3.1820  -14.1500 C.3       8 GLP5        0.0000 
     82 CA         49.7677   -1.5990  -11.9198 C.3       4 GLC5        0.0000 
     83 CA         50.9560   -3.0770  -10.5780 C.3      12 GLL5        0.0000 
     84 CA         49.1170    0.1130  -12.8710 C.3       8 GLP5        0.0000 
@<TRIPOS>BOND
@<TRIPOS>SUBSTRUCTURE
     1 ALC1       12 GROUP        1 X    ALC  0     ROOT ALC X 1
     2 SEC2        4 GROUP        1 X    SEC  0     **** SEC X 2
     3 LYC4        1 GROUP        1 X    LYC  0     **** LYC X 4
     4 GLC5        7 GROUP        1 X    GLC  0     **** GLC X 6
     5 ALP1       14 GROUP        1 Y    ALP  0     ROOT ALP Y 8
     6 SEP2        6 GROUP        1 Y    SEP  0     **** SEP Y 9
     7 LYP4        3 GROUP        1 Y    LYP  0     **** LYP Y 11
     8 GLP5        9 GROUP        1 Y    GLP  0     **** GLP Y 13
     9 ALL1       13 GROUP        1 Z    ALL  0     ROOT ALL Z 15
    10 SEL2        5 GROUP        1 Z    SEL  0     **** SEL Z 16
    11 LYL4        2 GROUP        1 Z    LYL  0     **** LYL Z 18
    12 GLL5        8 GROUP        1 Z    GLL  0     **** GLL Z 20
@<TRIPOS>SET

