#    Name: 2dfv_NAD_3_ligand
#    Modification time : Tue Mar 25 10:08:11 2014

@<TRIPOS>MOLECULE
2dfv_NAD_3_ligand
   70    74     1     0     0
SMALL
NO_CHARGES


@<TRIPOS>ATOM
      1 PA         42.5290   -2.9060  -13.8600 P.3       1 NAD3401     0.0000 
      2 O1A        41.8940   -1.7430  -13.1950 O.co2     1 NAD3401     0.0000 
      3 O2A        41.9510   -4.2580  -13.7780 O.co2     1 NAD3401     0.0000 
      4 O5B        42.6050   -2.5570  -15.4310 O.3       1 NAD3401     0.0000 
      5 C5B        42.8180   -3.5170  -16.4540 C.3       1 NAD3401     0.0000 
      6 C4B        42.0950   -2.9680  -17.6880 C.3       1 NAD3401     0.0000 
      7 O4B        42.3010   -3.8090  -18.8100 O.3       1 NAD3401     0.0000 
      8 C3B        40.5650   -2.9020  -17.4420 C.3       1 NAD3401     0.0000 
      9 O3B        40.1130   -1.5900  -17.6830 O.3       1 NAD3401     0.0000 
     10 C2B        39.9660   -3.8710  -18.4390 C.3       1 NAD3401     0.0000 
     11 O2B        38.7910   -3.3590  -19.0310 O.3       1 NAD3401     0.0000 
     12 C1B        41.0660   -3.9110  -19.5060 C.3       1 NAD3401     0.0000 
     13 N9A        40.9510   -5.0770  -20.4130 N.pl3     1 NAD3401     0.0000 
     14 C8A        40.3240   -6.3010  -20.2020 C.2       1 NAD3401     0.0000 
     15 N7A        40.4810   -7.0430  -21.3270 N.2       1 NAD3401     0.0000 
     16 C5A        41.1690   -6.3190  -22.2520 C.ar      1 NAD3401     0.0000 
     17 C6A        41.6110   -6.5680  -23.5500 C.ar      1 NAD3401     0.0000 
     18 N6A        41.3480   -7.7330  -24.1380 N.pl3     1 NAD3401     0.0000 
     19 N1A        42.3260   -5.5970  -24.2420 N.ar      1 NAD3401     0.0000 
     20 C2A        42.6070   -4.3880  -23.6760 C.ar      1 NAD3401     0.0000 
     21 N3A        42.1850   -4.1540  -22.3870 N.ar      1 NAD3401     0.0000 
     22 C4A        41.4730   -5.0850  -21.6920 C.ar      1 NAD3401     0.0000 
     23 O3         44.0470   -3.0400  -13.3040 O.3       1 NAD3401     0.0000 
     24 PN         45.1470   -1.8960  -12.9890 P.3       1 NAD3401     0.0000 
     25 O1N        45.1670   -0.8370  -14.0250 O.co2     1 NAD3401     0.0000 
     26 O2N        45.0840   -1.6340  -11.5410 O.co2     1 NAD3401     0.0000 
     27 O5D        46.4880   -2.7300  -13.3260 O.3       1 NAD3401     0.0000 
     28 C5D        46.6560   -3.2620  -14.6350 C.3       1 NAD3401     0.0000 
     29 C4D        47.4460   -4.5750  -14.6080 C.3       1 NAD3401     0.0000 
     30 O4D        48.7490   -4.3220  -14.0480 O.3       1 NAD3401     0.0000 
     31 C3D        46.7890   -5.6810  -13.7830 C.3       1 NAD3401     0.0000 
     32 O3D        46.9500   -6.9140  -14.4660 O.3       1 NAD3401     0.0000 
     33 C2D        47.5970   -5.6680  -12.4920 C.3       1 NAD3401     0.0000 
     34 O2D        47.5660   -6.9270  -11.8380 O.3       1 NAD3401     0.0000 
     35 C1D        48.9860   -5.2580  -13.0070 C.3       1 NAD3401     0.0000 
     36 N1N        50.0100   -4.7060  -12.1040 N.pl3     1 NAD3401     0.0000 
     37 C2N        51.1670   -5.4130  -12.1120 C.ar      1 NAD3401     0.0000 
     38 C3N        52.2510   -5.0120  -11.3540 C.ar      1 NAD3401     0.0000 
     39 C7N        53.5290   -5.8000  -11.5720 C.2       1 NAD3401     0.0000 
     40 O7N        53.7670   -6.4280  -12.8570 O.2       1 NAD3401     0.0000 
     41 N7N        54.3680   -5.9180  -10.5220 N.am      1 NAD3401     0.0000 
     42 C4N        52.1460   -3.8330  -10.5710 C.ar      1 NAD3401     0.0000 
     43 C5N        50.9560   -3.0770  -10.5780 C.ar      1 NAD3401     0.0000 
     44 C6N        49.8810   -3.5450  -11.3590 C.ar      1 NAD3401     0.0000 
     45 H          42.3852   -4.4775  -16.2162 H         1 NAD3401     0.0000 
     46 H          43.8625   -3.6294  -16.7044 H         1 NAD3401     0.0000 
     47 H          42.4338   -1.9660  -17.8744 H         1 NAD3401     0.0000 
     48 H          40.3821   -3.2514  -16.4620 H         1 NAD3401     0.0000 
     49 H          39.8880   -4.8142  -18.0134 H         1 NAD3401     0.0000 
     50 H          40.9179   -2.9802  -20.1045 H         1 NAD3401     0.0000 
     51 H          39.8715   -6.5531  -19.4042 H         1 NAD3401     0.0000 
     52 H          41.6831   -7.8389  -25.0742 H         1 NAD3401     0.0000 
     53 H          40.8390   -8.3972  -23.5905 H         1 NAD3401     0.0000 
     54 H          43.1195   -3.6677  -24.1933 H         1 NAD3401     0.0000 
     55 H          47.1996   -2.5637  -15.2939 H         1 NAD3401     0.0000 
     56 H          45.6870   -3.4702  -15.1196 H         1 NAD3401     0.0000 
     57 H          47.5529   -4.9307  -15.6287 H         1 NAD3401     0.0000 
     58 H          45.8034   -5.4114  -13.5817 H         1 NAD3401     0.0000 
     59 H          47.2267   -4.8549  -11.8990 H         1 NAD3401     0.0000 
     60 H          49.4097   -6.1753  -13.5075 H         1 NAD3401     0.0000 
     61 H          51.2517   -6.2731  -12.6945 H         1 NAD3401     0.0000 
     62 H          54.1094   -5.4204   -9.6940 H         1 NAD3401     0.0000 
     63 H          55.1738   -6.4926  -10.6651 H         1 NAD3401     0.0000 
     64 H          52.9400   -3.5337  -10.0001 H         1 NAD3401     0.0000 
     65 H          50.8773   -2.2282  -10.0408 H         1 NAD3401     0.0000 
     66 H          48.9997   -3.0145  -11.3693 H         1 NAD3401     0.0000 
     67 H          40.4210   -1.3765  -18.6101 H         1 NAD3401     0.0000 
     68 H          39.1034   -2.6228  -19.6313 H         1 NAD3401     0.0000 
     69 H          46.1423   -6.9935  -15.0503 H         1 NAD3401     0.0000 
     70 H          47.3020   -7.5806  -12.5473 H         1 NAD3401     0.0000 
@<TRIPOS>BOND
     1    2    1 ar   
     2    3    1 ar   
     3    4    1 1    
     4   23    1 1    
     5    5    4 1    
     6    6    5 1    
     7   45    5 1    
     8   46    5 1    
     9    7    6 1    
    10    8    6 1    
    11   47    6 1    
    12   12    7 1    
    13    9    8 1    
    14   10    8 1    
    15   48    8 1    
    16   67    9 1    
    17   11   10 1    
    18   12   10 1    
    19   49   10 1    
    20   68   11 1    
    21   13   12 1    
    22   50   12 1    
    23   14   13 1    
    24   22   13 1    
    25   15   14 2    
    26   51   14 1    
    27   16   15 1    
    28   17   16 ar   
    29   22   16 ar   
    30   18   17 1    
    31   19   17 ar   
    32   52   18 1    
    33   53   18 1    
    34   20   19 ar   
    35   21   20 ar   
    36   54   20 1    
    37   22   21 ar   
    38   24   23 1    
    39   25   24 ar   
    40   26   24 ar   
    41   27   24 1    
    42   28   27 1    
    43   29   28 1    
    44   55   28 1    
    45   56   28 1    
    46   30   29 1    
    47   31   29 1    
    48   57   29 1    
    49   35   30 1    
    50   32   31 1    
    51   33   31 1    
    52   58   31 1    
    53   69   32 1    
    54   34   33 1    
    55   35   33 1    
    56   59   33 1    
    57   70   34 1    
    58   36   35 1    
    59   60   35 1    
    60   37   36 ar   
    61   44   36 ar   
    62   38   37 ar   
    63   61   37 1    
    64   39   38 1    
    65   42   38 ar   
    66   40   39 2    
    67   41   39 am   
    68   62   41 1    
    69   63   41 1    
    70   43   42 ar   
    71   64   42 1    
    72   44   43 ar   
    73   65   43 1    
    74   66   44 1    
@<TRIPOS>SUBSTRUCTURE
     1 NAD3401     1 GROUP   
@<TRIPOS>SET

