#    Name: 2P0A_1_CAVITY_N1_6.mol2
#    Modification time : Tue Mar 11 04:15:50 2014

@<TRIPOS>MOLECULE
2P0A_1_CAVITY_N1_6.mol2
   78     0     6     0     0
SMALL
NO_CHARGES


@<TRIPOS>ATOM
      1 N         -28.4305   -5.7767  -14.2679 N.2       1 ALA2        0.0000 
      2 CA        -28.1841   -6.6930  -13.1062 C.3       5 GLY6        0.0000 
      3 CA        -29.1244   -6.8884  -14.9976 C.3       5 GLY6        0.0000 
      4 N         -28.8781   -7.8047  -13.8359 N.2       1 ALA2        0.0000 
      5 N         -29.5721   -8.9165  -14.5656 N.2       1 ALA2        0.0000 
      6 N         -29.3257   -9.8328  -13.4039 N.2       1 ALA2        0.0000 
      7 NZ        -24.2277   -1.4441  -15.6155 N.2       3 LYS4        0.0000 
      8 CA        -23.9813   -2.3605  -14.4537 C.3       5 GLY6        0.0000 
      9 O         -24.9217   -2.5559  -16.3452 O.2       1 ALA2        0.0000 
     10 DU        -24.6753   -3.4722  -15.1834 H         6 CUB7        0.0000 
     11 CZ        -24.4289   -4.3885  -14.0217 C.ar      4 PHE5        0.0000 
     12 CA        -25.3693   -4.5839  -15.9131 C.3       5 GLY6        0.0000 
     13 N         -25.1229   -5.5002  -14.7514 N.2       1 ALA2        0.0000 
     14 N         -25.8169   -6.6120  -15.4811 N.2       1 ALA2        0.0000 
     15 NZ        -26.5109   -7.7237  -16.2108 N.2       3 LYS4        0.0000 
     16 NZ        -22.6745   -2.7781  -15.0603 N.2       3 LYS4        0.0000 
     17 CZ        -22.4281   -3.6944  -13.8986 C.ar      4 PHE5        0.0000 
     18 CA        -23.6149   -2.9735  -16.9517 C.3       5 GLY6        0.0000 
     19 CA        -23.3685   -3.8898  -15.7900 C.3       5 GLY6        0.0000 
     20 CZ        -23.1221   -4.8061  -14.6283 C.ar      4 PHE5        0.0000 
     21 CZ        -22.8757   -5.7225  -13.4665 C.ar      4 PHE5        0.0000 
     22 CZ        -22.6294   -6.6388  -12.3048 C.ar      4 PHE5        0.0000 
     23 CA        -24.0625   -5.0015  -16.5197 C.3       5 GLY6        0.0000 
     24 CA        -23.8161   -5.9179  -15.3579 C.3       5 GLY6        0.0000 
     25 N         -23.5697   -6.8342  -14.1962 N.2       1 ALA2        0.0000 
     26 CA        -24.5101   -7.0296  -16.0876 C.3       5 GLY6        0.0000 
     27 N         -24.2637   -7.9459  -14.9259 N.2       1 ALA2        0.0000 
     28 CA        -29.4908   -6.2754  -12.4996 C.3       5 GLY6        0.0000 
     29 O         -30.4312   -6.4708  -14.3911 O.2       1 ALA2        0.0000 
     30 CA        -30.1848   -7.3871  -13.2293 C.3       5 GLY6        0.0000 
     31 OD1       -21.1214   -4.1121  -14.5051 O.3       2 ASP3        0.0000 
     32 OD1       -20.8750   -5.0284  -13.3434 O.3       2 ASP3        0.0000 
     33 CZ        -20.6286   -5.9447  -12.1817 C.ar      4 PHE5        0.0000 
     34 CA        -21.8154   -5.2238  -15.2348 C.3       5 GLY6        0.0000 
     35 CZ        -21.5690   -6.1401  -14.0731 C.ar      4 PHE5        0.0000 
     36 CA        -21.3226   -7.0564  -12.9113 C.3       5 GLY6        0.0000 
     37 CA        -21.0762   -7.9728  -11.7496 C.3       5 GLY6        0.0000 
     38 CA        -22.5094   -6.3355  -15.9645 C.3       5 GLY6        0.0000 
     39 CA        -22.2630   -7.2518  -14.8028 C.3       5 GLY6        0.0000 
     40 CA        -22.0166   -8.1682  -13.6410 C.3       5 GLY6        0.0000 
     41 NZ        -23.2033   -7.4472  -16.6942 N.2       3 LYS4        0.0000 
     42 NZ        -22.9570   -8.3636  -15.5325 N.2       3 LYS4        0.0000 
     43 O         -22.7106   -9.2799  -14.3707 O.2       1 ALA2        0.0000 
     44 CA        -18.8742   -4.3343  -13.2203 C.3       5 GLY6        0.0000 
     45 OD1       -19.5682   -5.4460  -13.9500 O.3       2 ASP3        0.0000 
     46 CA        -19.3218   -6.3623  -12.7882 C.3       5 GLY6        0.0000 
     47 CA        -19.0754   -7.2787  -11.6265 C.3       5 GLY6        0.0000 
     48 CA        -20.2622   -6.5577  -14.6796 C.3       5 GLY6        0.0000 
     49 N         -20.0158   -7.4741  -13.5179 N.2       1 ALA2        0.0000 
     50 N         -19.7694   -8.3904  -12.3562 N.2       1 ALA2        0.0000 
     51 CA        -20.9562   -7.6695  -15.4093 C.3       5 GLY6        0.0000 
     52 N         -20.7098   -8.5858  -14.2476 N.2       1 ALA2        0.0000 
     53 NZ        -21.6502   -8.7812  -16.1390 N.2       3 LYS4        0.0000 
     54 CA        -17.5674   -4.7519  -13.8268 C.3       5 GLY6        0.0000 
     55 OD1       -18.5078   -4.9473  -15.7183 O.3       2 ASP3        0.0000 
     56 OD1       -18.2614   -5.8637  -14.5565 O.3       2 ASP3        0.0000 
     57 CA        -18.0150   -6.7800  -13.3948 C.3       5 GLY6        0.0000 
     58 O         -17.7686   -7.6963  -12.2330 O.2       1 ALA2        0.0000 
     59 OD1       -18.9554   -6.9754  -15.2862 O.3       2 ASP3        0.0000 
     60 O         -18.7090   -7.8917  -14.1245 O.2       1 ALA2        0.0000 
     61 O         -18.4626   -8.8080  -12.9627 O.2       1 ALA2        0.0000 
     62 CA        -16.2607   -5.1696  -14.4334 C.3       5 GLY6        0.0000 
     63 NZ        -17.2010   -5.3650  -16.3248 N.2       3 LYS4        0.0000 
     64 NZ        -16.9546   -6.2813  -15.1631 N.2       3 LYS4        0.0000 
     65 CA        -16.7083   -7.1976  -14.0013 C.3       5 GLY6        0.0000 
     66 O         -16.4619   -8.1139  -12.8396 O.2       1 ALA2        0.0000 
     67 NZ        -17.6486   -7.3930  -15.8928 N.2       3 LYS4        0.0000 
     68 OD1       -17.4023   -8.3093  -14.7310 O.3       2 ASP3        0.0000 
     69 OD1       -15.4015   -7.6152  -14.6079 O.3       2 ASP3        0.0000 
     70 CZ        -25.9821   -3.0546  -14.5769 C.ar      4 PHE5        0.0000 
     71 N         -26.6761   -4.1663  -15.3066 N.2       1 ALA2        0.0000 
     72 CZ        -26.4297   -5.0826  -14.1448 C.ar      4 PHE5        0.0000 
     73 N         -27.3701   -5.2780  -16.0362 N.2       1 ALA2        0.0000 
     74 CA        -27.8177   -7.3060  -15.6042 C.3       5 GLY6        0.0000 
     75 N         -28.2653   -9.3341  -15.1722 N.2       1 ALA2        0.0000 
     76 N         -28.0189  -10.2504  -14.0104 N.2       1 ALA2        0.0000 
     77 N         -28.9593  -10.4458  -15.9018 N.2       1 ALA2        0.0000 
     78 CA        -28.7129  -11.3621  -14.7401 C.3       5 GLY6        0.0000 
@<TRIPOS>BOND
@<TRIPOS>SUBSTRUCTURE
     1 ALA2        1 GROUP   
     2 ASP3       31 GROUP   
     3 LYS4        7 GROUP   
     4 PHE5       11 GROUP   
     5 GLY6        2 GROUP   
     6 CUB7       10 GROUP   
@<TRIPOS>SET

