#    Name: 2p0a_ANP_1_INTS_M
#    Modification time : Mon Mar 24 18:08:00 2014

@<TRIPOS>MOLECULE
2p0a_ANP_1_INTS_M
   92     0    15     0     0
SMALL
NO_CHARGES


@<TRIPOS>ATOM
      1 NZ        -13.1475   -7.2425  -14.6550 N.4       4 LYC4        0.0000 
      2 NZ        -13.0250   -8.5410  -14.7450 N.4      14 LYL4        0.0000 
      3 NZ        -13.2700   -5.9440  -14.5650 N.4       9 LYP4        0.0000 
      4 N         -11.6655   -8.6365  -14.1280 N.am      2 SEC2        0.0000 
      5 N         -13.0250   -8.5410  -14.7450 N.am     12 SEL2        0.0000 
      6 N         -10.3060   -8.7320  -13.5110 N.am      7 SEP2        0.0000 
      7 N         -14.2840  -10.3985  -12.2250 N.am      2 SEC2        0.0000 
      8 N         -14.2860  -10.4270  -13.5450 N.am     12 SEL2        0.0000 
      9 N         -14.2820  -10.3700  -10.9050 N.am      7 SEP2        0.0000 
     10 NZ        -14.1595   -6.6760  -13.4695 N.4       4 LYC4        0.0000 
     11 NZ        -15.0490   -7.4080  -12.3740 N.4      14 LYL4        0.0000 
     12 NZ        -15.0490   -6.2780  -11.7180 N.4       4 LYC4        0.0000 
     13 NZ        -15.0490   -5.1480  -11.0620 N.4       9 LYP4        0.0000 
     14 N         -14.1595   -6.6760  -13.4695 N.am      2 SEC2        0.0000 
     15 N         -15.0490   -7.4080  -12.3740 N.am     12 SEL2        0.0000 
     16 N         -13.2700   -5.9440  -14.5650 N.am      7 SEP2        0.0000 
     17 N         -15.0490   -6.2780  -11.7180 N.am      2 SEC2        0.0000 
     18 N         -15.0490   -5.1480  -11.0620 N.am      7 SEP2        0.0000 
     19 N         -16.8635   -9.1595  -11.2750 N.am      2 SEC2        0.0000 
     20 N         -16.9900   -8.9890  -12.6400 N.am     12 SEL2        0.0000 
     21 N         -16.7370   -9.3300   -9.9100 N.am      7 SEP2        0.0000 
     22 N         -17.6010  -10.0750  -13.3165 N.am      2 SEC2        0.0000 
     23 N         -18.2120  -11.1610  -13.9930 N.am      7 SEP2        0.0000 
     24 OD1       -15.7100   -8.1650  -16.1990 O.co2     3 ASC3        0.0000 
     25 OD1       -15.6190   -8.4330  -14.6820 O.co2    13 ASL3        0.0000 
     26 OD1       -15.8010   -7.8970  -17.7160 O.co2     8 ASP3        0.0000 
     27 OD1       -14.7220   -7.7355  -15.9715 O.co2     3 ASC3        0.0000 
     28 OD1       -13.8250   -7.0380  -17.2610 O.co2     8 ASP3        0.0000 
     29 NZ        -18.3945   -8.4940  -16.4365 N.4       4 LYC4        0.0000 
     30 NZ        -18.1880   -7.3460  -15.8480 N.4      14 LYL4        0.0000 
     31 NZ        -18.6010   -9.6420  -17.0250 N.4       9 LYP4        0.0000 
     32 N         -18.3945   -8.4940  -16.4365 N.am      2 SEC2        0.0000 
     33 N         -18.1880   -7.3460  -15.8480 N.am     12 SEL2        0.0000 
     34 N         -18.6010   -9.6420  -17.0250 N.am      7 SEP2        0.0000 
     35 NZ        -18.7645   -3.6370  -15.1025 N.4       4 LYC4        0.0000 
     36 NZ        -18.1580   -4.9500  -15.0140 N.4      14 LYL4        0.0000 
     37 NZ        -19.3710   -2.3240  -15.1910 N.4       9 LYP4        0.0000 
     38 N         -18.7645   -3.6370  -15.1025 N.am      2 SEC2        0.0000 
     39 N         -18.1580   -4.9500  -15.0140 N.am     12 SEL2        0.0000 
     40 N         -19.3710   -2.3240  -15.1910 N.am      7 SEP2        0.0000 
     41 CA        -21.3450   -8.5495  -11.7505 C.3       5 GLC5        0.0000 
     42 CA        -19.9670   -7.8470  -13.3500 C.3      15 GLL5        0.0000 
     43 CA        -22.7230   -9.2520  -10.1510 C.3      10 GLP5        0.0000 
     44 CA        -22.5775   -8.7305  -12.5530 C.3       5 GLC5        0.0000 
     45 CA        -21.3820   -8.1100  -13.8500 C.3      15 GLL5        0.0000 
     46 CA        -23.7730   -9.3510  -11.2560 C.3      10 GLP5        0.0000 
     47 CA        -20.2395   -8.5220  -16.8460 C.3       5 GLC5        0.0000 
     48 CA        -21.5500   -8.0430  -15.3680 C.3      15 GLL5        0.0000 
     49 CA        -18.9290   -9.0010  -18.3240 C.3      10 GLP5        0.0000 
     50 N         -19.9575   -9.4745  -16.4800 N.am      2 SEC2        0.0000 
     51 N         -21.3140   -9.3070  -15.9350 N.am     12 SEL2        0.0000 
     52 O         -22.1215  -10.1905  -16.5815 O.2       1 ALC1        0.0000 
     53 O         -21.3140   -9.3070  -15.9350 O.2      11 ALL1        0.0000 
     54 O         -22.9290  -11.0740  -17.2280 O.2       6 ALP1        0.0000 
     55 CA        -23.9780   -6.9860  -17.0480 C.3       5 GLC5        0.0000 
     56 CA        -23.0250   -7.7290  -15.4900 C.3      15 GLL5        0.0000 
     57 CA        -24.9310   -6.2430  -18.6060 C.3      10 GLP5        0.0000 
     58 N         -24.0370   -9.9220  -14.1980 N.am      2 SEC2        0.0000 
     59 N         -23.8020   -8.9460  -15.3520 N.am     12 SEL2        0.0000 
     60 N         -24.2720  -10.8980  -13.0440 N.am      7 SEP2        0.0000 
     61 O         -24.1500   -9.2880  -16.5800 O.2       1 ALC1        0.0000 
     62 O         -23.8020   -8.9460  -15.3520 O.2      11 ALL1        0.0000 
     63 O         -24.4980   -9.6300  -17.8080 O.2       6 ALP1        0.0000 
     64 CA        -24.1050   -6.0145  -12.7895 C.3       5 GLC5        0.0000 
     65 CA        -23.2560   -6.7840  -14.3190 C.3      15 GLL5        0.0000 
     66 CA        -24.9540   -5.2450  -11.2600 C.3      10 GLP5        0.0000 
     67 CA        -23.5145   -8.0675  -12.7875 C.3       5 GLC5        0.0000 
     68 N         -20.7970   -2.8765  -15.2230 N.am      2 SEC2        0.0000 
     69 N         -22.2230   -3.4290  -15.2550 N.am     12 SEL2        0.0000 
     70 CA        -26.0025   -0.8925  -14.9870 C.3       5 GLC5        0.0000 
     71 CA        -24.4310   -2.3260  -15.7130 C.3      15 GLL5        0.0000 
     72 CA        -27.5740    0.5410  -14.2610 C.3      10 GLP5        0.0000 
     73 O         -22.6650   -0.7435  -16.2545 O.2       1 ALC1        0.0000 
     74 O         -24.0180   -1.1010  -16.0310 O.2      11 ALL1        0.0000 
     75 O         -21.3120   -0.3860  -16.4780 O.2       6 ALP1        0.0000 
     76 O         -24.9055    0.1885  -16.0840 O.2       1 ALC1        0.0000 
     77 O         -25.7930    1.4780  -16.1370 O.2       6 ALP1        0.0000 
     78 N         -27.0580   -1.7685  -15.8580 N.am      2 SEC2        0.0000 
     79 N         -25.7950   -2.5960  -15.7030 N.am     12 SEL2        0.0000 
     80 N         -28.3210   -0.9410  -16.0130 N.am      7 SEP2        0.0000 
     81 CA        -27.3285   -2.9505  -16.8055 C.3       5 GLC5        0.0000 
     82 CA        -26.2790   -3.8650  -15.3600 C.3      15 GLL5        0.0000 
     83 CA        -28.3780   -2.0360  -18.2510 C.3      10 GLP5        0.0000 
     84 CA        -25.6050   -5.0540  -16.9830 C.3       5 GLC5        0.0000 
     85 CA        -24.5165   -5.4135  -16.8230 C.3       5 GLC5        0.0000 
     86 CA        -24.1020   -4.5840  -15.0400 C.3      15 GLL5        0.0000 
     87 CA        -21.6337   -6.7460  -16.7415 C.3       5 GLC5        0.0000 
     88 CA        -20.9800   -5.6060  -18.0540 C.3      10 GLP5        0.0000 
     89 CA        -24.2515   -1.7290  -13.8940 C.3       5 GLC5        0.0000 
     90 CA        -23.5590   -3.3520  -15.3610 C.3      15 GLL5        0.0000 
     91 CA        -24.5080   -0.6190  -12.2510 C.3      10 GLP5        0.0000 
     92 CA        -22.4053   -4.7870  -16.6272 C.3       5 GLC5        0.0000 
@<TRIPOS>BOND
@<TRIPOS>SUBSTRUCTURE
     1 ALC1       52 GROUP        1 X    ALC  0     ROOT ALC X 1
     2 SEC2        4 GROUP        1 X    SEC  0     **** SEC X 2
     3 ASC3       24 GROUP        1 X    ASC  0     **** ASC X 3
     4 LYC4        1 GROUP        1 X    LYC  0     **** LYC X 4
     5 GLC5       41 GROUP        1 X    GLC  0     **** GLC X 6
     6 ALP1       54 GROUP        1 Y    ALP  0     ROOT ALP Y 8
     7 SEP2        6 GROUP        1 Y    SEP  0     **** SEP Y 9
     8 ASP3       26 GROUP        1 Y    ASP  0     **** ASP Y 10
     9 LYP4        3 GROUP        1 Y    LYP  0     **** LYP Y 11
    10 GLP5       43 GROUP        1 Y    GLP  0     **** GLP Y 13
    11 ALL1       53 GROUP        1 Z    ALL  0     ROOT ALL Z 15
    12 SEL2        5 GROUP        1 Z    SEL  0     **** SEL Z 16
    13 ASL3       25 GROUP        1 Z    ASL  0     **** ASL Z 17
    14 LYL4        2 GROUP        1 Z    LYL  0     **** LYL Z 18
    15 GLL5       42 GROUP        1 Z    GLL  0     **** GLL Z 20
@<TRIPOS>SET

