#    Name: 2p0a_ANP_1_ligand
#    Modification time : Mon Mar 24 18:08:00 2014

@<TRIPOS>MOLECULE
2p0a_ANP_1_ligand
   43    45     1     0     0
SMALL
NO_CHARGES


@<TRIPOS>ATOM
      1 PG        -14.2650   -9.3740  -14.7250 P.3       1 ANP707      0.0000 
      2 O1G       -13.0250   -8.5410  -14.7450 O.co2     1 ANP707      0.0000 
      3 O2G       -14.3450  -10.2690  -16.0600 O.co2     1 ANP707      0.0000 
      4 O3G       -14.2860  -10.4270  -13.5450 O.co2     1 ANP707      0.0000 
      5 PB        -16.1170   -7.9350  -13.2220 P.3       1 ANP707      0.0000 
      6 O1B       -15.0490   -7.4080  -12.3740 O.co2     1 ANP707      0.0000 
      7 O2B       -16.9900   -8.9890  -12.6400 O.co2     1 ANP707      0.0000 
      8 N3B       -15.6190   -8.4330  -14.6820 N.4       1 ANP707      0.0000 
      9 PA        -18.1580   -6.3900  -14.6990 P.3       1 ANP707      0.0000 
     10 O1A       -18.1880   -7.3460  -15.8480 O.co2     1 ANP707      0.0000 
     11 O2A       -18.1580   -4.9500  -15.0140 O.co2     1 ANP707      0.0000 
     12 O3A       -17.0040   -6.6510  -13.6160 O.3       1 ANP707      0.0000 
     13 O5'       -19.4850   -6.5840  -13.8230 O.3       1 ANP707      0.0000 
     14 C5'       -19.9670   -7.8470  -13.3500 C.3       1 ANP707      0.0000 
     15 C4'       -21.3820   -8.1100  -13.8500 C.3       1 ANP707      0.0000 
     16 O4'       -22.2670   -7.0880  -13.3240 O.3       1 ANP707      0.0000 
     17 C3'       -21.5500   -8.0430  -15.3680 C.3       1 ANP707      0.0000 
     18 O3'       -21.3140   -9.3070  -15.9350 O.3       1 ANP707      0.0000 
     19 C2'       -23.0250   -7.7290  -15.4900 C.3       1 ANP707      0.0000 
     20 O2'       -23.8020   -8.9460  -15.3520 O.3       1 ANP707      0.0000 
     21 C1'       -23.2560   -6.7840  -14.3190 C.3       1 ANP707      0.0000 
     22 N9        -23.0890   -5.3790  -14.7130 N.pl3     1 ANP707      0.0000 
     23 C8        -21.9400   -4.6820  -14.8630 C.2       1 ANP707      0.0000 
     24 N7        -22.2230   -3.4290  -15.2550 N.2       1 ANP707      0.0000 
     25 C5        -23.5590   -3.3520  -15.3610 C.ar      1 ANP707      0.0000 
     26 C6        -24.4310   -2.3260  -15.7130 C.ar      1 ANP707      0.0000 
     27 N6        -24.0180   -1.1010  -16.0310 N.pl3     1 ANP707      0.0000 
     28 N1        -25.7950   -2.5960  -15.7030 N.ar      1 ANP707      0.0000 
     29 C2        -26.2790   -3.8650  -15.3600 C.ar      1 ANP707      0.0000 
     30 N3        -25.4400   -4.8250  -15.0490 N.ar      1 ANP707      0.0000 
     31 C4        -24.1020   -4.5840  -15.0400 C.ar      1 ANP707      0.0000 
     32 H         -19.9862   -7.8847  -12.2501 H         1 ANP707      0.0000 
     33 H         -19.3292   -8.6759  -13.6932 H         1 ANP707      0.0000 
     34 H         -21.7128   -9.0766  -13.5121 H         1 ANP707      0.0000 
     35 H         -20.9949   -7.2603  -15.7436 H         1 ANP707      0.0000 
     36 H         -23.1933   -7.2148  -16.3870 H         1 ANP707      0.0000 
     37 H         -24.2394   -6.9525  -13.9327 H         1 ANP707      0.0000 
     38 H         -21.0473   -5.0384  -14.7092 H         1 ANP707      0.0000 
     39 H         -24.7331   -0.4431  -16.2674 H         1 ANP707      0.0000 
     40 H         -23.0300   -0.9491  -16.0048 H         1 ANP707      0.0000 
     41 H         -27.3097   -4.0062  -15.3636 H         1 ANP707      0.0000 
     42 H         -22.2061   -9.6113  -16.2690 H         1 ANP707      0.0000 
     43 H         -24.4703   -8.9119  -16.0952 H         1 ANP707      0.0000 
@<TRIPOS>BOND
     1    2    1 ar   
     2    3    1 ar   
     3    4    1 ar   
     4    8    1 1    
     5    6    5 ar   
     6    7    5 ar   
     7    8    5 1    
     8   12    5 1    
     9   10    9 ar   
    10   11    9 ar   
    11   12    9 1    
    12   13    9 1    
    13   14   13 1    
    14   15   14 1    
    15   32   14 1    
    16   33   14 1    
    17   16   15 1    
    18   17   15 1    
    19   34   15 1    
    20   21   16 1    
    21   18   17 1    
    22   19   17 1    
    23   35   17 1    
    24   42   18 1    
    25   20   19 1    
    26   21   19 1    
    27   36   19 1    
    28   43   20 1    
    29   22   21 1    
    30   37   21 1    
    31   23   22 1    
    32   31   22 1    
    33   24   23 2    
    34   38   23 1    
    35   25   24 1    
    36   26   25 ar   
    37   31   25 ar   
    38   27   26 1    
    39   28   26 ar   
    40   39   27 1    
    41   40   27 1    
    42   29   28 ar   
    43   30   29 ar   
    44   41   29 1    
    45   31   30 ar   
@<TRIPOS>SUBSTRUCTURE
     1 ANP707      1 GROUP   
@<TRIPOS>SET

