#    Name: 2AI2_2_CAVITY_N1_ALL.mol2
#    Modification time : Tue Mar 11 01:54:55 2014

@<TRIPOS>MOLECULE
2AI2_2_CAVITY_N1_ALL.mol2
   85     0     5     0     0
SMALL
NO_CHARGES


@<TRIPOS>ATOM
      1 O          65.7842  -47.4616  103.1571 O.2       2 ALA2        0.0000 
      2 N          63.8064  -48.0165  102.6275 N.2       2 ALA2        0.0000 
      3 CZ         65.1677  -48.2583  102.0457 C.ar      3 PHE5        0.0000 
      4 N          64.5512  -49.0550  100.9343 N.2       2 ALA2        0.0000 
      5 DU         64.2930  -45.9721  102.9165 H         5 CUB7        0.0000 
      6 O          65.6543  -46.2139  102.3347 O.2       2 ALA2        0.0000 
      7 N          63.6765  -46.7688  101.8051 N.2       2 ALA2        0.0000 
      8 DU         65.0378  -47.0106  101.2233 H         5 CUB7        0.0000 
      9 CZ         66.3991  -47.2524  100.6415 C.ar      3 PHE5        0.0000 
     10 CZ         67.7604  -47.4942  100.0597 C.ar      3 PHE5        0.0000 
     11 CA         64.4213  -47.8073  100.1119 C.3       4 GLY6        0.0000 
     12 CZ         65.7826  -48.0491   99.5301 C.ar      3 PHE5        0.0000 
     13 CZ         68.5051  -48.5327   98.3666 C.ar      3 PHE5        0.0000 
     14 CZ         67.8886  -49.3294   97.2552 C.ar      3 PHE5        0.0000 
     15 N          69.2499  -49.5712   96.6734 N.2       2 ALA2        0.0000 
     16 CZ         65.9109  -49.8843   96.7256 C.ar      3 PHE5        0.0000 
     17 CZ         67.2721  -50.1261   96.1438 C.ar      3 PHE5        0.0000 
     18 N          66.1409  -44.1694  102.6236 N.2       2 ALA2        0.0000 
     19 CZ         62.8019  -44.4826  102.6758 C.ar      3 PHE5        0.0000 
     20 OG         64.1632  -44.7244  102.0940 O.2       1 SER1        0.0000 
     21 OG         65.5244  -44.9662  101.5123 O.2       1 SER1        0.0000 
     22 O          66.8857  -45.2079  100.9305 O.2       2 ALA2        0.0000 
     23 O          68.2470  -45.4497  100.3487 O.2       2 ALA2        0.0000 
     24 CZ         63.5467  -45.5211  100.9827 C.ar      3 PHE5        0.0000 
     25 CA         64.9079  -45.7629  100.4009 C.3       4 GLY6        0.0000 
     26 DU         66.2692  -46.0047   99.8191 H         5 CUB7        0.0000 
     27 DU         67.6305  -46.2465   99.2373 H         5 CUB7        0.0000 
     28 CA         68.9918  -46.4882   98.6555 C.3       4 GLY6        0.0000 
     29 CA         65.6527  -46.8014   98.7077 C.3       4 GLY6        0.0000 
     30 CZ         67.0140  -47.0432   98.1259 C.ar      3 PHE5        0.0000 
     31 CZ         68.3753  -47.2850   97.5441 C.ar      3 PHE5        0.0000 
     32 OG         69.7365  -47.5268   96.9624 O.2       1 SER1        0.0000 
     33 CZ         66.3975  -47.8399   97.0146 C.ar      3 PHE5        0.0000 
     34 O          67.7588  -48.0817   96.4328 O.2       2 ALA2        0.0000 
     35 O          69.1200  -48.3235   95.8510 O.2       2 ALA2        0.0000 
     36 N          65.7810  -48.6366   95.9032 N.2       2 ALA2        0.0000 
     37 N          67.1423  -48.8784   95.3214 N.2       2 ALA2        0.0000 
     38 N          67.9888  -42.3668  102.3308 N.2       2 ALA2        0.0000 
     39 OG         66.0111  -42.9217  101.8012 O.2       1 SER1        0.0000 
     40 O          67.3723  -43.1635  101.2194 O.2       2 ALA2        0.0000 
     41 OG         68.7336  -43.4053  100.6376 O.2       1 SER1        0.0000 
     42 OG         65.3946  -43.7185  100.6898 O.2       1 SER1        0.0000 
     43 DU         66.7558  -43.9602  100.1081 H         5 CUB7        0.0000 
     44 OG         68.1171  -44.2020   99.5263 O.2       1 SER1        0.0000 
     45 CA         69.4784  -44.4438   98.9445 C.3       4 GLY6        0.0000 
     46 OG         64.7781  -44.5152   99.5785 O.2       1 SER1        0.0000 
     47 DU         66.1393  -44.7570   98.9967 H         5 CUB7        0.0000 
     48 DU         67.5006  -44.9988   98.4149 H         5 CUB7        0.0000 
     49 CA         68.8619  -45.2405   97.8331 C.3       4 GLY6        0.0000 
     50 CA         64.1616  -45.3119   98.4671 C.3       4 GLY6        0.0000 
     51 CA         65.5228  -45.5537   97.8853 C.3       4 GLY6        0.0000 
     52 N          66.8841  -45.7955   97.3035 N.2       2 ALA2        0.0000 
     53 N          68.2454  -46.0373   96.7217 N.2       2 ALA2        0.0000 
     54 CA         64.9063  -46.3504   96.7739 C.3       4 GLY6        0.0000 
     55 CA         66.2676  -46.5922   96.1921 C.3       4 GLY6        0.0000 
     56 N          67.6289  -46.8340   95.6104 N.2       2 ALA2        0.0000 
     57 OG         65.8812  -41.6740  100.9788 O.2       1 SER1        0.0000 
     58 OG         67.2425  -41.9158  100.3970 O.2       1 SER1        0.0000 
     59 OG         65.2647  -42.4707   99.8674 O.2       1 SER1        0.0000 
     60 OG         66.6260  -42.7125   99.2856 O.2       1 SER1        0.0000 
     61 OG         67.9872  -42.9543   98.7039 O.2       1 SER1        0.0000 
     62 OG         64.6482  -43.2675   98.7561 O.2       1 SER1        0.0000 
     63 DU         66.0095  -43.5093   98.1743 H         5 CUB7        0.0000 
     64 N          67.3707  -43.7510   97.5925 N.2       2 ALA2        0.0000 
     65 CA         64.0317  -44.0642   97.6447 C.3       4 GLY6        0.0000 
     66 O          65.3930  -44.3060   97.0629 O.2       2 ALA2        0.0000 
     67 N          66.7542  -44.5478   96.4811 N.2       2 ALA2        0.0000 
     68 DU         66.3678  -39.6296  101.2678 H         5 CUB7        0.0000 
     69 OG         67.7291  -39.8714  100.6860 O.2       1 SER1        0.0000 
     70 N          65.7513  -40.4263  100.1564 N.2       2 ALA2        0.0000 
     71 OG         67.1126  -40.6681   99.5746 O.2       1 SER1        0.0000 
     72 OG         66.4961  -41.4648   98.4632 O.2       1 SER1        0.0000 
     73 N          64.5183  -42.0198   97.9336 N.2       2 ALA2        0.0000 
     74 N          65.8796  -42.2616   97.3518 N.2       2 ALA2        0.0000 
     75 N          67.2409  -42.5033   96.7701 N.2       2 ALA2        0.0000 
     76 O          65.2631  -43.0583   96.2405 O.2       2 ALA2        0.0000 
     77 N          66.6244  -43.3001   95.6587 N.2       2 ALA2        0.0000 
     78 OG         67.5992  -38.6237   99.8636 O.2       1 SER1        0.0000 
     79 OG         66.9827  -39.4204   98.7522 O.2       1 SER1        0.0000 
     80 N          66.3662  -40.2171   97.6408 N.2       2 ALA2        0.0000 
     81 OG         67.7275  -40.4589   97.0590 O.2       1 SER1        0.0000 
     82 N          65.7497  -41.0139   96.5294 N.2       2 ALA2        0.0000 
     83 O          67.1110  -41.2556   95.9476 O.2       2 ALA2        0.0000 
     84 CA         65.9141  -48.7093  103.9795 C.3       4 GLY6        0.0000 
     85 N          63.9363  -49.2642  103.4499 N.2       2 ALA2        0.0000 
@<TRIPOS>BOND
@<TRIPOS>SUBSTRUCTURE
     1 SER1       20 GROUP   
     2 ALA2        1 GROUP   
     3 PHE5        3 GROUP   
     4 GLY6       11 GROUP   
     5 CUB7        5 GROUP   
@<TRIPOS>SET

