#    Name: 2ai2_P1D_2_INTS_M
#    Modification time : Mon Mar 24 19:20:28 2014

@<TRIPOS>MOLECULE
2ai2_P1D_2_INTS_M
   68     0    12     0     0
SMALL
NO_CHARGES


@<TRIPOS>ATOM
      1 N          69.2830  -39.5810   96.9105 N.am      2 SEC2        0.0000 
      2 N          68.1300  -40.5060   96.4490 N.am     10 SEL2        0.0000 
      3 N          70.4360  -38.6560   97.3720 N.am      6 SEP2        0.0000 
      4 N          68.9485  -40.7620   97.5975 N.am      2 SEC2        0.0000 
      5 N          69.7670  -41.0180   98.7460 N.am      6 SEP2        0.0000 
      6 N          69.0630  -41.2530   95.5110 N.am      2 SEC2        0.0000 
      7 N          69.9960  -42.0000   94.5730 N.am      6 SEP2        0.0000 
      8 NZ         65.8855  -38.6390   96.0105 N.4       3 LYC4        0.0000 
      9 NZ         65.7690  -39.6180   97.1370 N.4      11 LYL4        0.0000 
     10 NZ         65.0590  -37.0180   94.2080 N.4       7 LYP4        0.0000 
     11 N          65.8855  -38.6390   96.0105 N.am      2 SEC2        0.0000 
     12 N          65.7690  -39.6180   97.1370 N.am     10 SEL2        0.0000 
     13 N          66.0020  -37.6600   94.8840 N.am      6 SEP2        0.0000 
     14 N          64.5790  -39.7275   97.7815 N.am      2 SEC2        0.0000 
     15 N          63.3890  -39.8370   98.4260 N.am      6 SEP2        0.0000 
     16 N          65.1390  -40.8805   94.4970 N.am      2 SEC2        0.0000 
     17 N          65.9660  -41.3820   95.3720 N.am     10 SEL2        0.0000 
     18 N          64.3120  -40.3790   93.6220 N.am      6 SEP2        0.0000 
     19 CA         63.7320  -41.7665   97.8880 C.3       4 GLC5        0.0000 
     20 CA         65.2180  -43.0610   97.7730 C.3      12 GLL5        0.0000 
     21 CA         62.2460  -40.4720   98.0030 C.3       8 GLP5        0.0000 
     22 CA         63.3230  -43.3720   98.6730 C.3       4 GLC5        0.0000 
     23 CA         61.4280  -43.6830   99.5730 C.3       8 GLP5        0.0000 
     24 CA         63.5925  -44.1055   96.8990 C.3       4 GLC5        0.0000 
     25 CA         61.9670  -45.1500   96.0250 C.3       8 GLP5        0.0000 
     26 N          63.9925  -43.0810   99.9375 N.am      2 SEC2        0.0000 
     27 N          65.0410  -43.7860   99.0080 N.am     10 SEL2        0.0000 
     28 N          62.9440  -42.3760  100.8670 N.am      6 SEP2        0.0000 
     29 N          64.4005  -44.6160   95.4465 N.am      2 SEC2        0.0000 
     30 N          65.3180  -44.1060   96.7830 N.am     10 SEL2        0.0000 
     31 N          63.4830  -45.1260   94.1100 N.am      6 SEP2        0.0000 
     32 CA         63.4880  -44.4060   99.2335 C.3       4 GLC5        0.0000 
     33 CA         65.5480  -45.1290   98.8940 C.3      12 GLL5        0.0000 
     34 CA         67.3195  -48.4300  100.6865 C.3       4 GLC5        0.0000 
     35 CA         67.0070  -46.5980  100.3510 C.3      12 GLL5        0.0000 
     36 CA         67.6320  -50.2620  101.0220 C.3       8 GLP5        0.0000 
     37 N          68.5350  -46.4110  102.0995 N.am      2 SEC2        0.0000 
     38 N          68.3390  -46.8080  100.8270 N.am     10 SEL2        0.0000 
     39 N          68.7310  -46.0140  103.3720 N.am      6 SEP2        0.0000 
     40 CA         69.0985  -44.4195   96.8665 C.3       4 GLC5        0.0000 
     41 CA         67.3100  -45.5460   97.2780 C.3      12 GLL5        0.0000 
     42 CA         70.8870  -43.2930   96.4550 C.3       8 GLP5        0.0000 
     43 CA         69.9990  -45.3045   96.7790 C.3       4 GLC5        0.0000 
     44 CA         69.1110  -47.3160   97.1030 C.3      12 GLL5        0.0000 
     45 CA         70.3765  -46.7605   98.6225 C.3       4 GLC5        0.0000 
     46 CA         71.6420  -46.2050  100.1420 C.3       8 GLP5        0.0000 
     47 O          70.5385  -49.2240   96.7490 O.2       1 ALC1        0.0000 
     48 O          69.2550  -48.5970   96.7670 O.2       9 ALL1        0.0000 
     49 O          71.8220  -49.8510   96.7310 O.2       5 ALP1        0.0000 
     50 CA         69.2755  -49.6175   94.8405 C.3       4 GLC5        0.0000 
     51 CA         68.0840  -49.0710   96.3470 C.3      12 GLL5        0.0000 
     52 CA         70.4670  -50.1640   93.3340 C.3       8 GLP5        0.0000 
     53 CA         66.1410  -47.1865   94.6040 C.3       4 GLC5        0.0000 
     54 CA         67.1450  -48.0370   96.4040 C.3      12 GLL5        0.0000 
     55 CA         65.1370  -46.3360   92.8040 C.3       8 GLP5        0.0000 
     56 O          65.7030  -51.7570   95.3560 O.2       1 ALC1        0.0000 
     57 O          66.2570  -50.4670   95.5740 O.2       9 ALL1        0.0000 
     58 O          65.1490  -53.0470   95.1380 O.2       5 ALP1        0.0000 
     59 O          64.7765  -51.1770   95.3170 O.2       1 ALC1        0.0000 
     60 O          63.2960  -51.8870   95.0600 O.2       5 ALP1        0.0000 
     61 N          69.7720  -51.6620   96.3490 N.am      2 SEC2        0.0000 
     62 N          68.3500  -51.3140   95.9010 N.am     10 SEL2        0.0000 
     63 N          71.1940  -52.0100   96.7970 N.am      6 SEP2        0.0000 
     64 CA         63.9945  -46.0970   98.1290 C.3       4 GLC5        0.0000 
     65 CA         65.7980  -45.3170   97.4040 C.3      12 GLL5        0.0000 
     66 CA         62.3160  -46.9710   98.1090 C.3       8 GLP5        0.0000 
     67 CA         68.9775  -47.1374   94.9627 C.3       4 GLC5        0.0000 
     68 CA         69.9080  -46.4340   93.2370 C.3       8 GLP5        0.0000 
@<TRIPOS>BOND
@<TRIPOS>SUBSTRUCTURE
     1 ALC1       47 GROUP        1 X    ALC  0     ROOT ALC X 1
     2 SEC2        1 GROUP        1 X    SEC  0     **** SEC X 2
     3 LYC4        8 GROUP        1 X    LYC  0     **** LYC X 4
     4 GLC5       19 GROUP        1 X    GLC  0     **** GLC X 6
     5 ALP1       49 GROUP        1 Y    ALP  0     ROOT ALP Y 8
     6 SEP2        3 GROUP        1 Y    SEP  0     **** SEP Y 9
     7 LYP4       10 GROUP        1 Y    LYP  0     **** LYP Y 11
     8 GLP5       21 GROUP        1 Y    GLP  0     **** GLP Y 13
     9 ALL1       48 GROUP        1 Z    ALL  0     ROOT ALL Z 15
    10 SEL2        2 GROUP        1 Z    SEL  0     **** SEL Z 16
    11 LYL4        9 GROUP        1 Z    LYL  0     **** LYL Z 18
    12 GLL5       20 GROUP        1 Z    GLL  0     **** GLL Z 20
@<TRIPOS>SET

