#    Name: 2ai2_P1D_2_ligand
#    Modification time : Mon Mar 24 19:20:28 2014

@<TRIPOS>MOLECULE
2ai2_P1D_2_ligand
   39    42     1     0     0
SMALL
NO_CHARGES


@<TRIPOS>ATOM
      1 O3         68.1300  -40.5060   96.4490 O.co2     1 P1D293      0.0000 
      2 P          66.5830  -40.8980   96.6340 P.3       1 P1D293      0.0000 
      3 O4         65.7690  -39.6180   97.1370 O.co2     1 P1D293      0.0000 
      4 O2         65.9660  -41.3820   95.3720 O.co2     1 P1D293      0.0000 
      5 C1P        66.4570  -42.1560   97.9270 C.3       1 P1D293      0.0000 
      6 C1         65.2180  -43.0610   97.7730 C.3       1 P1D293      0.0000 
      7 O3'        65.0410  -43.7860   99.0080 O.3       1 P1D293      0.0000 
      8 O2'        65.3180  -44.1060   96.7830 O.3       1 P1D293      0.0000 
      9 C2'        65.7980  -45.3170   97.4040 C.3       1 P1D293      0.0000 
     10 C3'        65.5480  -45.1290   98.8940 C.3       1 P1D293      0.0000 
     11 C4'        66.8990  -45.2690   99.5870 C.3       1 P1D293      0.0000 
     12 C5'        67.0070  -46.5980  100.3510 C.3       1 P1D293      0.0000 
     13 O5'        68.3390  -46.8080  100.8270 O.3       1 P1D293      0.0000 
     14 O4'        67.8540  -45.0490   98.5220 O.3       1 P1D293      0.0000 
     15 C1'        67.3100  -45.5460   97.2780 C.3       1 P1D293      0.0000 
     16 C9         67.8480  -46.9390   96.9000 C.2       1 P1D293      0.0000 
     17 C8         69.1110  -47.3160   97.1030 C.2       1 P1D293      0.0000 
     18 N7         69.2550  -48.5970   96.7670 N.pl3     1 P1D293      0.0000 
     19 C5         68.0840  -49.0710   96.3470 C.2       1 P1D293      0.0000 
     20 C4         67.1450  -48.0370   96.4040 C.2       1 P1D293      0.0000 
     21 N3         65.8420  -48.2120   96.0660 N.2       1 P1D293      0.0000 
     22 C2         65.3560  -49.3830   95.6600 C.2       1 P1D293      0.0000 
     23 N1         66.2570  -50.4670   95.5740 N.am      1 P1D293      0.0000 
     24 C6         67.6180  -50.3220   95.9200 C.2       1 P1D293      0.0000 
     25 O6         68.3500  -51.3140   95.9010 O.2       1 P1D293      0.0000 
     26 H          66.4400  -41.5693   98.8252 H         1 P1D293      0.0000 
     27 H          67.3825  -42.6897   97.8270 H         1 P1D293      0.0000 
     28 H          64.3549  -42.4476   97.6026 H         1 P1D293      0.0000 
     29 H          65.2759  -46.1787   97.0948 H         1 P1D293      0.0000 
     30 H          64.8810  -45.8529   99.2248 H         1 P1D293      0.0000 
     31 H          66.9544  -44.4421  100.3043 H         1 P1D293      0.0000 
     32 H          66.6880  -47.3985   99.6671 H         1 P1D293      0.0000 
     33 H          66.2802  -46.5641  101.1762 H         1 P1D293      0.0000 
     34 H          67.6548  -44.8241   96.4783 H         1 P1D293      0.0000 
     35 H          69.8237  -46.7383   97.4468 H         1 P1D293      0.0000 
     36 H          70.0867  -49.1064   96.8204 H         1 P1D293      0.0000 
     37 H          64.3800  -49.5307   95.4125 H         1 P1D293      0.0000 
     38 H          65.9132  -51.3842   95.2515 H         1 P1D293      0.0000 
     39 H          68.8420  -45.9863  100.5590 H         1 P1D293      0.0000 
@<TRIPOS>BOND
     1    2    1 ar   
     2    3    2 ar   
     3    4    2 ar   
     4    5    2 1    
     5    6    5 1    
     6   26    5 1    
     7   27    5 1    
     8    7    6 1    
     9    8    6 1    
    10   28    6 1    
    11   10    7 1    
    12    9    8 1    
    13   10    9 1    
    14   15    9 1    
    15   29    9 1    
    16   11   10 1    
    17   30   10 1    
    18   12   11 1    
    19   14   11 1    
    20   31   11 1    
    21   13   12 1    
    22   32   12 1    
    23   33   12 1    
    24   39   13 1    
    25   15   14 1    
    26   16   15 1    
    27   34   15 1    
    28   17   16 2    
    29   20   16 1    
    30   18   17 1    
    31   35   17 1    
    32   19   18 1    
    33   36   18 1    
    34   20   19 2    
    35   24   19 1    
    36   21   20 1    
    37   22   21 2    
    38   23   22 1    
    39   37   22 1    
    40   24   23 am   
    41   38   23 1    
    42   25   24 2    
@<TRIPOS>SUBSTRUCTURE
     1 P1D293      1 GROUP   
@<TRIPOS>SET

