#    Name: 1xap_TTB_1_INTS_M
#    Modification time : Tue Mar 25 09:41:11 2014

@<TRIPOS>MOLECULE
1xap_TTB_1_INTS_M
   97     0     9     0     0
SMALL
NO_CHARGES


@<TRIPOS>ATOM
      1 CA         41.5535   18.8195  102.5390 C.3       3 GLC5        0.0000 
      2 CA         41.9000   20.3100  101.3100 C.3       9 GLL5        0.0000 
      3 CA         41.2070   17.3290  103.7680 C.3       6 GLP5        0.0000 
      4 CA         39.9825   19.6210  101.5085 C.3       3 GLC5        0.0000 
      5 CA         38.0650   18.9320  101.7070 C.3       6 GLP5        0.0000 
      6 CA         41.0600   19.9750   99.3965 C.3       3 GLC5        0.0000 
      7 CA         40.2200   19.6400   97.4830 C.3       6 GLP5        0.0000 
      8 CA         42.5190   22.3810   98.9820 C.3       3 GLC5        0.0000 
      9 CA         42.5580   21.6170  100.8350 C.3       9 GLL5        0.0000 
     10 CA         42.4800   23.1450   97.1290 C.3       6 GLP5        0.0000 
     11 CA         41.6790   23.2665   99.3105 C.3       3 GLC5        0.0000 
     12 CA         42.0980   22.9050  101.0410 C.3       9 GLL5        0.0000 
     13 CA         41.2600   23.6280   97.5800 C.3       6 GLP5        0.0000 
     14 CA         43.0115   24.7300  100.7115 C.3       3 GLC5        0.0000 
     15 CA         43.9250   26.5550  100.3820 C.3       6 GLP5        0.0000 
     16 CA         39.1725   27.2005  101.0715 C.3       3 GLC5        0.0000 
     17 CA         39.3570   25.4000  101.9780 C.3       9 GLL5        0.0000 
     18 CA         38.9880   29.0010  100.1650 C.3       6 GLP5        0.0000 
     19 CA         37.1480   23.3320  101.9880 C.3       3 GLC5        0.0000 
     20 CA         38.5920   24.7080  102.9640 C.3       9 GLL5        0.0000 
     21 CA         35.7040   21.9560  101.0120 C.3       6 GLP5        0.0000 
     22 N          35.7355   26.8245  103.3225 N.am      1 SEC2        0.0000 
     23 N          37.0460   26.4750  103.2510 N.am      7 SEL2        0.0000 
     24 N          34.4250   27.1740  103.3940 N.am      4 SEP2        0.0000 
     25 N          36.4220   26.9045  104.6490 N.am      1 SEC2        0.0000 
     26 N          35.7980   27.3340  106.0470 N.am      4 SEP2        0.0000 
     27 NZ         35.2725   24.4170  104.6730 N.4       2 LYC4        0.0000 
     28 NZ         36.7500   24.7070  104.4460 N.4       8 LYL4        0.0000 
     29 NZ         33.0940   24.3550  106.0080 N.4       5 LYP4        0.0000 
     30 N          35.2725   24.4170  104.6730 N.am      1 SEC2        0.0000 
     31 N          36.7500   24.7070  104.4460 N.am      7 SEL2        0.0000 
     32 N          33.7950   24.1270  104.9000 N.am      4 SEP2        0.0000 
     33 N          36.2740   26.0205  105.2465 N.am      1 SEC2        0.0000 
     34 CA         44.4030   24.4850  100.2660 C.3       3 GLC5        0.0000 
     35 CA         44.8810   22.4150  100.1500 C.3       9 GLL5        0.0000 
     36 CA         45.0925   22.5405  102.1440 C.3       3 GLC5        0.0000 
     37 CA         45.3040   22.6660  104.1380 C.3       6 GLP5        0.0000 
     38 CA         45.5450   18.3560  100.0870 C.3       3 GLC5        0.0000 
     39 CA         44.7910   17.6850   98.2070 C.3       9 GLL5        0.0000 
     40 CA         46.2990   19.0270  101.9670 C.3       6 GLP5        0.0000 
     41 CA         42.7600   18.0160   97.7930 C.3       3 GLC5        0.0000 
     42 CA         40.7290   18.3470   97.3790 C.3       6 GLP5        0.0000 
     43 CA         45.4335   16.2040   96.7940 C.3       3 GLC5        0.0000 
     44 CA         46.0760   14.7230   95.3810 C.3       6 GLP5        0.0000 
     45 CA         42.7590   18.4465   96.1385 C.3       3 GLC5        0.0000 
     46 CA         44.5550   19.0970   96.1590 C.3       9 GLL5        0.0000 
     47 CA         40.9630   17.7960   96.1180 C.3       6 GLP5        0.0000 
     48 CA         46.1745   18.5320   94.8450 C.3       3 GLC5        0.0000 
     49 CA         47.7940   17.9670   93.5310 C.3       6 GLP5        0.0000 
     50 CA         46.4555   16.6785   96.2420 C.3       3 GLC5        0.0000 
     51 CA         46.8350   18.6340   97.1030 C.3       9 GLL5        0.0000 
     52 CA         48.3375   17.3750   97.5875 C.3       3 GLC5        0.0000 
     53 CA         49.8400   16.1160   98.0720 C.3       6 GLP5        0.0000 
     54 CA         47.7165   20.9935   94.9210 C.3       3 GLC5        0.0000 
     55 CA         47.6340   19.8930   96.6890 C.3       9 GLL5        0.0000 
     56 CA         47.7990   22.0940   93.1530 C.3       6 GLP5        0.0000 
     57 CA         47.4850   24.1005   95.5945 C.3       3 GLC5        0.0000 
     58 CA         47.8830   22.3810   96.9760 C.3       9 GLL5        0.0000 
     59 CA         47.0870   25.8200   94.2130 C.3       6 GLP5        0.0000 
     60 CA         47.8410   22.2375   95.0645 C.3       3 GLC5        0.0000 
     61 CA         48.8205   23.8085   98.0505 C.3       3 GLC5        0.0000 
     62 CA         49.7580   25.2360   99.1250 C.3       6 GLP5        0.0000 
     63 CA         48.5590   19.2435  100.1175 C.3       3 GLC5        0.0000 
     64 CA         48.7720   20.8130   98.7170 C.3       9 GLL5        0.0000 
     65 CA         48.3460   17.6740  101.5180 C.3       6 GLP5        0.0000 
     66 CA         50.1720   20.6130   97.8955 C.3       3 GLC5        0.0000 
     67 CA         51.5720   20.4130   97.0740 C.3       6 GLP5        0.0000 
     68 CA         48.7095   21.7615  100.5720 C.3       3 GLC5        0.0000 
     69 CA         48.6470   22.7100  102.4270 C.3       6 GLP5        0.0000 
     70 CA         50.4830   20.6155   99.5315 C.3       3 GLC5        0.0000 
     71 CA         52.1940   20.4180  100.3460 C.3       6 GLP5        0.0000 
     72 CA         42.7810   21.0612  102.8332 C.3       3 GLC5        0.0000 
     73 CA         43.3330   21.1590  104.5940 C.3       6 GLP5        0.0000 
     74 CA         42.0383   23.8111  103.1216 C.3       3 GLC5        0.0000 
     75 CA         40.4810   24.7890  101.3780 C.3       9 GLL5        0.0000 
     76 CA         43.0870   23.6350  104.8590 C.3       6 GLP5        0.0000 
     77 CA         41.5226   25.9894  101.5948 C.3       3 GLC5        0.0000 
     78 CA         40.8980   23.4660  101.7400 C.3       9 GLL5        0.0000 
     79 CA         43.0220   27.2150  101.4210 C.3       6 GLP5        0.0000 
     80 CA         40.1467   25.6706  103.9060 C.3       3 GLC5        0.0000 
     81 CA         41.0380   26.4400  105.4910 C.3       6 GLP5        0.0000 
     82 CA         39.9510   24.1232  104.7908 C.3       3 GLC5        0.0000 
     83 CA         39.0060   23.3980  103.3350 C.3       9 GLL5        0.0000 
     84 CA         40.3310   25.1520  106.5490 C.3       6 GLP5        0.0000 
     85 CA         41.3290   23.3648  103.9458 C.3       3 GLC5        0.0000 
     86 CA         38.4060   21.6318  102.5318 C.3       3 GLC5        0.0000 
     87 CA         40.1360   22.7910  102.7300 C.3       9 GLL5        0.0000 
     88 CA         37.2410   20.1690  102.0310 C.3       6 GLP5        0.0000 
     89 CA         45.3290   20.4832  101.0330 C.3       3 GLC5        0.0000 
     90 CA         43.8370   21.4640  100.0480 C.3       9 GLL5        0.0000 
     91 CA         47.0585   22.5252  101.1025 C.3       3 GLC5        0.0000 
     92 CA         46.2323   20.3693  100.4657 C.3       3 GLC5        0.0000 
     93 CA         46.0590   22.2660   99.4060 C.3       9 GLL5        0.0000 
     94 CA         45.4617   19.6455  100.3777 C.3       3 GLC5        0.0000 
     95 CA         45.2180   20.1710   98.4020 C.3       9 GLL5        0.0000 
     96 CA         47.5142   18.6152   95.2135 C.3       3 GLC5        0.0000 
     97 CA         49.6623   20.9207   97.0839 C.3       3 GLC5        0.0000 
@<TRIPOS>BOND
@<TRIPOS>SUBSTRUCTURE
     1 SEC2       22 GROUP        1 X    SEC  0     ROOT SEC X 2
     2 LYC4       27 GROUP        1 X    LYC  0     **** LYC X 4
     3 GLC5        1 GROUP        1 X    GLC  0     **** GLC X 6
     4 SEP2       24 GROUP        1 Y    SEP  0     ROOT SEP Y 9
     5 LYP4       29 GROUP        1 Y    LYP  0     **** LYP Y 11
     6 GLP5        3 GROUP        1 Y    GLP  0     **** GLP Y 13
     7 SEL2       23 GROUP        1 Z    SEL  0     ROOT SEL Z 16
     8 LYL4       28 GROUP        1 Z    LYL  0     **** LYL Z 18
     9 GLL5        2 GROUP        1 Z    GLL  0     **** GLL Z 20
@<TRIPOS>SET

