#    Name: 1xap_TTB_1_ligand
#    Modification time : Tue Mar 25 09:41:11 2014

@<TRIPOS>MOLECULE
1xap_TTB_1_ligand
   53    55     1     0     0
SMALL
NO_CHARGES


@<TRIPOS>ATOM
      1 C          41.9000   20.3100  101.3100 C.3       1 TTB1        0.0000 
      2 C2         42.5580   21.6170  100.8350 C.2       1 TTB1        0.0000 
      3 C3         42.0980   22.9050  101.0410 C.2       1 TTB1        0.0000 
      4 C4         40.8980   23.4660  101.7400 C.ar      1 TTB1        0.0000 
      5 C5         40.4810   24.7890  101.3780 C.ar      1 TTB1        0.0000 
      6 C6         39.3570   25.4000  101.9780 C.ar      1 TTB1        0.0000 
      7 C7         38.5920   24.7080  102.9640 C.ar      1 TTB1        0.0000 
      8 C8         37.3890   25.3380  103.5950 C.2       1 TTB1        0.0000 
      9 O          37.0460   26.4750  103.2510 O.co2     1 TTB1        0.0000 
     10 O1         36.7500   24.7070  104.4460 O.co2     1 TTB1        0.0000 
     11 C9         39.0060   23.3980  103.3350 C.ar      1 TTB1        0.0000 
     12 C10        40.1360   22.7910  102.7300 C.ar      1 TTB1        0.0000 
     13 C11        43.8370   21.4640  100.0480 C.ar      1 TTB1        0.0000 
     14 C12        44.8810   22.4150  100.1500 C.ar      1 TTB1        0.0000 
     15 C13        46.0590   22.2660   99.4060 C.ar      1 TTB1        0.0000 
     16 C14        46.2720   21.1570   98.5230 C.ar      1 TTB1        0.0000 
     17 C15        45.2180   20.1710   98.4020 C.ar      1 TTB1        0.0000 
     18 C16        44.0310   20.3570   99.1750 C.ar      1 TTB1        0.0000 
     19 C17        45.3510   18.9280   97.4770 C.3       1 TTB1        0.0000 
     20 C18        44.7910   17.6850   98.2070 C.3       1 TTB1        0.0000 
     21 C19        44.5550   19.0970   96.1590 C.3       1 TTB1        0.0000 
     22 C20        46.8350   18.6340   97.1030 C.3       1 TTB1        0.0000 
     23 C21        47.6340   19.8930   96.6890 C.3       1 TTB1        0.0000 
     24 C22        47.6100   21.0590   97.7340 C.3       1 TTB1        0.0000 
     25 C23        47.8830   22.3810   96.9760 C.3       1 TTB1        0.0000 
     26 C24        48.7720   20.8130   98.7170 C.3       1 TTB1        0.0000 
     27 H          42.7236   23.7179  100.6128 H         1 TTB1        0.0000 
     28 H          41.0183   25.2981  100.6639 H         1 TTB1        0.0000 
     29 H          39.0839   26.3482  101.7068 H         1 TTB1        0.0000 
     30 H          38.4783   22.8873  104.0503 H         1 TTB1        0.0000 
     31 H          40.4103   21.8407  103.0141 H         1 TTB1        0.0000 
     32 H          44.7675   23.2201  100.7776 H         1 TTB1        0.0000 
     33 H          46.8102   22.9746   99.4874 H         1 TTB1        0.0000 
     34 H          43.2747   19.6490   99.0943 H         1 TTB1        0.0000 
     35 H          46.8504   17.9144   96.2766 H         1 TTB1        0.0000 
     36 H          47.3260   18.1677   97.9647 H         1 TTB1        0.0000 
     37 H          47.2336   20.2742   95.7381 H         1 TTB1        0.0000 
     38 H          48.6821   19.6097   96.5129 H         1 TTB1        0.0000 
     39 H          42.4287   19.5069  101.0353 H         1 TTB1        0.0000 
     40 H          41.8142   20.2779  102.3058 H         1 TTB1        0.0000 
     41 H          40.9805   20.1987  100.9329 H         1 TTB1        0.0000 
     42 H          44.8622   16.8609   97.6451 H         1 TTB1        0.0000 
     43 H          45.2817   17.5022   99.0590 H         1 TTB1        0.0000 
     44 H          43.8256   17.7964   98.4429 H         1 TTB1        0.0000 
     45 H          44.8711   19.8864   95.6328 H         1 TTB1        0.0000 
     46 H          44.6426   18.2959   95.5669 H         1 TTB1        0.0000 
     47 H          43.5786   19.2302   96.3293 H         1 TTB1        0.0000 
     48 H          47.9485   23.1600   97.5996 H         1 TTB1        0.0000 
     49 H          48.7400   22.3442   96.4620 H         1 TTB1        0.0000 
     50 H          47.1570   22.5902   96.3209 H         1 TTB1        0.0000 
     51 H          49.6499   20.7406   98.2436 H         1 TTB1        0.0000 
     52 H          48.8583   21.5540   99.3829 H         1 TTB1        0.0000 
     53 H          48.6475   19.9666   99.2348 H         1 TTB1        0.0000 
@<TRIPOS>BOND
     1    2    1 1    
     2   39    1 1    
     3   40    1 1    
     4   41    1 1    
     5    3    2 2    
     6   13    2 1    
     7    4    3 1    
     8   27    3 1    
     9    5    4 ar   
    10   12    4 ar   
    11    6    5 ar   
    12   28    5 1    
    13    7    6 ar   
    14   29    6 1    
    15    8    7 1    
    16   11    7 ar   
    17    9    8 ar   
    18   10    8 ar   
    19   12   11 ar   
    20   30   11 1    
    21   31   12 1    
    22   14   13 ar   
    23   18   13 ar   
    24   15   14 ar   
    25   32   14 1    
    26   16   15 ar   
    27   33   15 1    
    28   17   16 ar   
    29   24   16 1    
    30   18   17 ar   
    31   19   17 1    
    32   34   18 1    
    33   20   19 1    
    34   21   19 1    
    35   22   19 1    
    36   42   20 1    
    37   43   20 1    
    38   44   20 1    
    39   45   21 1    
    40   46   21 1    
    41   47   21 1    
    42   23   22 1    
    43   35   22 1    
    44   36   22 1    
    45   24   23 1    
    46   37   23 1    
    47   38   23 1    
    48   25   24 1    
    49   26   24 1    
    50   48   25 1    
    51   49   25 1    
    52   50   25 1    
    53   51   26 1    
    54   52   26 1    
    55   53   26 1    
@<TRIPOS>SUBSTRUCTURE
     1 TTB1        1 GROUP   
@<TRIPOS>SET

