#    Name: 4fi1_ATP_1_INTS_M
#    Modification time : Mon Mar 24 20:04:12 2014

@<TRIPOS>MOLECULE
4fi1_ATP_1_INTS_M
   80     0    15     0     0
SMALL
NO_CHARGES


@<TRIPOS>ATOM
      1 N          29.6225  -19.8510  -24.4215 N.am      2 SEC2        0.0000 
      2 N          28.9030  -19.2200  -23.3650 N.am     12 SEL2        0.0000 
      3 N          30.3420  -20.4820  -25.4780 N.am      7 SEP2        0.0000 
      4 N          29.4985  -19.1735  -20.1245 N.am      2 SEC2        0.0000 
      5 N          30.1040  -18.6420  -21.2410 N.am     12 SEL2        0.0000 
      6 N          28.8930  -19.7050  -19.0080 N.am      7 SEP2        0.0000 
      7 Zn         27.5545  -19.6715  -20.7885 Zn        4 ZIC7        0.0000 
      8 Zn         27.5590  -18.7660  -21.2570 Zn       14 ZIL7        0.0000 
      9 Zn         27.5500  -20.5770  -20.3200 Zn        9 ZIP7        0.0000 
     10 N          26.9145  -18.3050  -19.8425 N.am      2 SEC2        0.0000 
     11 N          27.5590  -18.7660  -21.2570 N.am     12 SEL2        0.0000 
     12 N          26.2700  -17.8440  -18.4280 N.am      7 SEP2        0.0000 
     13 N          31.9300  -21.6330  -23.5000 N.am      2 SEC2        0.0000 
     14 N          30.9960  -22.2510  -22.5460 N.am     12 SEL2        0.0000 
     15 N          32.8640  -21.0150  -24.4540 N.am      7 SEP2        0.0000 
     16 N          31.1560  -23.6290  -22.3715 N.am      2 SEC2        0.0000 
     17 N          31.3160  -25.0070  -22.1970 N.am      7 SEP2        0.0000 
     18 NZ         31.7495  -22.1115  -19.1180 N.4       3 LYC4        0.0000 
     19 NZ         31.2980  -21.0520  -20.3060 N.4      13 LYL4        0.0000 
     20 NZ         32.2010  -23.1710  -17.9300 N.4       8 LYP4        0.0000 
     21 N          30.0955  -20.3785  -19.6570 N.am      2 SEC2        0.0000 
     22 N          31.2980  -21.0520  -20.3060 N.am     12 SEL2        0.0000 
     23 Zn         28.2780  -20.7285  -20.9255 Zn        4 ZIC7        0.0000 
     24 Zn         29.0060  -20.8800  -21.5310 Zn       14 ZIL7        0.0000 
     25 Zn         27.5915  -21.4775  -19.9470 Zn        4 ZIC7        0.0000 
     26 Zn         27.6330  -22.3780  -19.5740 Zn       14 ZIL7        0.0000 
     27 NZ         30.7465  -23.4980  -18.0510 N.4       3 LYC4        0.0000 
     28 NZ         29.2920  -23.8250  -18.1720 N.4      13 LYL4        0.0000 
     29 N          30.7465  -23.4980  -18.0510 N.am      2 SEC2        0.0000 
     30 N          29.2920  -23.8250  -18.1720 N.am     12 SEL2        0.0000 
     31 N          32.2010  -23.1710  -17.9300 N.am      7 SEP2        0.0000 
     32 N          30.6150  -24.0745  -21.3655 N.am      2 SEC2        0.0000 
     33 N          29.9140  -23.1420  -20.5340 N.am     12 SEL2        0.0000 
     34 CA         28.2680  -23.5300  -23.2580 C.3       5 GLC5        0.0000 
     35 CA         27.6330  -24.7090  -21.5160 C.3      15 GLL5        0.0000 
     36 CA         28.9030  -22.3510  -25.0000 C.3      10 GLP5        0.0000 
     37 CA         25.7870  -26.9545  -22.9685 C.3       5 GLC5        0.0000 
     38 CA         26.2720  -25.3790  -21.6020 C.3      15 GLL5        0.0000 
     39 CA         25.3020  -28.5300  -24.3350 C.3      10 GLP5        0.0000 
     40 O          23.8655  -22.8320  -20.3380 O.2       1 ALC1        0.0000 
     41 O          24.5810  -23.6440  -21.1780 O.2      11 ALL1        0.0000 
     42 O          23.1500  -22.0200  -19.4980 O.2       6 ALP1        0.0000 
     43 CA         25.2545  -27.8465  -22.4150 C.3       5 GLC5        0.0000 
     44 CA         25.2070  -27.1630  -20.4950 C.3      15 GLL5        0.0000 
     45 CA         26.9840  -28.2345  -20.9480 C.3       5 GLC5        0.0000 
     46 CA         28.7610  -29.3060  -21.4010 C.3      10 GLP5        0.0000 
     47 CA         23.6785  -27.5805  -15.8040 C.3       5 GLC5        0.0000 
     48 CA         25.1080  -29.1840  -15.9340 C.3      15 GLL5        0.0000 
     49 CA         22.2490  -25.9770  -15.6740 C.3      10 GLP5        0.0000 
     50 O          25.8915  -30.1410  -13.7590 O.2       1 ALC1        0.0000 
     51 O          25.7430  -29.1800  -14.7350 O.2      11 ALL1        0.0000 
     52 O          26.0400  -31.1020  -12.7830 O.2       6 ALP1        0.0000 
     53 N          23.2600  -30.8150  -15.1555 N.am      2 SEC2        0.0000 
     54 N          24.0230  -29.9650  -16.1960 N.am     12 SEL2        0.0000 
     55 N          22.4970  -31.6650  -14.1150 N.am      7 SEP2        0.0000 
     56 CA         24.8895  -31.2710  -17.3120 C.3       5 GLC5        0.0000 
     57 CA         23.4070  -29.9350  -17.4060 C.3      15 GLL5        0.0000 
     58 CA         26.3720  -32.6070  -17.2180 C.3      10 GLP5        0.0000 
     59 CA         22.2635  -30.5620  -15.6985 C.3       5 GLC5        0.0000 
     60 CA         21.1200  -31.1890  -13.9910 C.3      10 GLP5        0.0000 
     61 CA         22.6650  -28.0785  -17.4200 C.3       5 GLC5        0.0000 
     62 CA         21.9230  -26.2220  -17.4340 C.3      10 GLP5        0.0000 
     63 CA         26.6830  -29.1860  -19.1980 C.3       5 GLC5        0.0000 
     64 CA         24.9030  -28.3460  -18.3040 C.3      15 GLL5        0.0000 
     65 CA         28.4630  -30.0260  -20.0920 C.3      10 GLP5        0.0000 
     66 CA         27.3842  -25.4970  -23.5165 C.3       5 GLC5        0.0000 
     67 CA         27.8160  -25.9500  -25.4740 C.3      10 GLP5        0.0000 
     68 CA         28.1872  -26.5025  -21.3365 C.3       5 GLC5        0.0000 
     69 CA         29.4220  -27.9610  -21.1140 C.3      10 GLP5        0.0000 
     70 CA         23.2473  -24.9565  -19.2920 C.3       5 GLC5        0.0000 
     71 CA         25.2510  -24.7870  -20.6540 C.3      15 GLL5        0.0000 
     72 CA         21.7180  -24.5440  -18.0440 C.3      10 GLP5        0.0000 
     73 CA         25.0968  -24.7335  -18.7445 C.3       5 GLC5        0.0000 
     74 CA         24.3020  -25.9510  -20.4260 C.3      15 GLL5        0.0000 
     75 CA         25.4170  -24.0980  -16.9490 C.3      10 GLP5        0.0000 
     76 CA         26.7572  -29.9465  -16.3440 C.3       5 GLC5        0.0000 
     77 CA         25.6130  -28.3100  -17.0180 C.3      15 GLL5        0.0000 
     78 CA         28.1540  -31.1460  -16.2120 C.3      10 GLP5        0.0000 
     79 CA         23.5905  -27.2750  -17.5475 C.3       5 GLC5        0.0000 
     80 CA         25.3375  -26.2130  -17.3050 C.3       5 GLC5        0.0000 
@<TRIPOS>BOND
@<TRIPOS>SUBSTRUCTURE
     1 ALC1       40 GROUP        1 X    ALC  0     ROOT ALC X 1
     2 SEC2        1 GROUP        1 X    SEC  0     **** SEC X 2
     3 LYC4       18 GROUP        1 X    LYC  0     **** LYC X 4
     4 ZIC7        7 GROUP        1 X    ZIC  0     **** ZIC X 5
     5 GLC5       34 GROUP        1 X    GLC  0     **** GLC X 6
     6 ALP1       42 GROUP        1 Y    ALP  0     ROOT ALP Y 8
     7 SEP2        3 GROUP        1 Y    SEP  0     **** SEP Y 9
     8 LYP4       20 GROUP        1 Y    LYP  0     **** LYP Y 11
     9 ZIP7        9 GROUP        1 Y    ZIP  0     **** ZIP Y 12
    10 GLP5       36 GROUP        1 Y    GLP  0     **** GLP Y 13
    11 ALL1       41 GROUP        1 Z    ALL  0     ROOT ALL Z 15
    12 SEL2        2 GROUP        1 Z    SEL  0     **** SEL Z 16
    13 LYL4       19 GROUP        1 Z    LYL  0     **** LYL Z 18
    14 ZIL7        8 GROUP        1 Z    ZIL  0     **** ZIL Z 19
    15 GLL5       35 GROUP        1 Z    GLL  0     **** GLL Z 20
@<TRIPOS>SET

