#    Name: 4fi1_ATP_1_ligand
#    Modification time : Mon Mar 24 20:04:12 2014

@<TRIPOS>MOLECULE
4fi1_ATP_1_ligand
   43    45     1     0     0
SMALL
NO_CHARGES


@<TRIPOS>ATOM
      1 PG         28.8800  -19.2790  -21.8570 P.3       1 ATP403      0.0000 
      2 O1G        28.9030  -19.2200  -23.3650 O.co2     1 ATP403      0.0000 
      3 O2G        30.1040  -18.6420  -21.2410 O.co2     1 ATP403      0.0000 
      4 O3G        27.5590  -18.7660  -21.2570 O.co2     1 ATP403      0.0000 
      5 PB         30.3520  -21.7590  -21.2720 P.3       1 ATP403      0.0000 
      6 O1B        30.9960  -22.2510  -22.5460 O.co2     1 ATP403      0.0000 
      7 O2B        31.2980  -21.0520  -20.3060 O.co2     1 ATP403      0.0000 
      8 O3B        29.0060  -20.8800  -21.5310 O.3       1 ATP403      0.0000 
      9 PA         28.6970  -23.4430  -19.5050 P.3       1 ATP403      0.0000 
     10 O1A        27.6330  -22.3780  -19.5740 O.co2     1 ATP403      0.0000 
     11 O2A        29.2920  -23.8250  -18.1720 O.co2     1 ATP403      0.0000 
     12 O3A        29.9140  -23.1420  -20.5340 O.3       1 ATP403      0.0000 
     13 O5'        28.1210  -24.7870  -20.1750 O.3       1 ATP403      0.0000 
     14 C5'        27.6330  -24.7090  -21.5160 C.3       1 ATP403      0.0000 
     15 C4'        26.2720  -25.3790  -21.6020 C.3       1 ATP403      0.0000 
     16 O4'        26.3790  -26.7560  -21.2160 O.3       1 ATP403      0.0000 
     17 C3'        25.2510  -24.7870  -20.6540 C.3       1 ATP403      0.0000 
     18 O3'        24.5810  -23.6440  -21.1780 O.3       1 ATP403      0.0000 
     19 C2'        24.3020  -25.9510  -20.4260 C.3       1 ATP403      0.0000 
     20 O2'        23.3130  -26.0590  -21.4560 O.3       1 ATP403      0.0000 
     21 C1'        25.2070  -27.1630  -20.4950 C.3       1 ATP403      0.0000 
     22 N9         25.5560  -27.4860  -19.0910 N.pl3     1 ATP403      0.0000 
     23 C8         26.5860  -26.9490  -18.4020 C.2       1 ATP403      0.0000 
     24 N7         26.6360  -27.4350  -17.1440 N.2       1 ATP403      0.0000 
     25 C5         25.6130  -28.3100  -17.0180 C.ar      1 ATP403      0.0000 
     26 C6         25.1080  -29.1840  -15.9340 C.ar      1 ATP403      0.0000 
     27 N6         25.7430  -29.1800  -14.7350 N.pl3     1 ATP403      0.0000 
     28 N1         24.0230  -29.9650  -16.1960 N.ar      1 ATP403      0.0000 
     29 C2         23.4070  -29.9350  -17.4060 C.ar      1 ATP403      0.0000 
     30 N3         23.8220  -29.1660  -18.4410 N.ar      1 ATP403      0.0000 
     31 C4         24.9030  -28.3460  -18.3040 C.ar      1 ATP403      0.0000 
     32 H          28.3041  -25.2139  -22.2203 H         1 ATP403      0.0000 
     33 H          27.5202  -23.6696  -21.8452 H         1 ATP403      0.0000 
     34 H          25.8929  -25.3035  -22.6036 H         1 ATP403      0.0000 
     35 H          25.7485  -24.5977  -19.7176 H         1 ATP403      0.0000 
     36 H          23.9011  -25.8884  -19.4536 H         1 ATP403      0.0000 
     37 H          24.6948  -27.9500  -20.9503 H         1 ATP403      0.0000 
     38 H          27.2165  -26.2904  -18.7692 H         1 ATP403      0.0000 
     39 H          25.7452  -30.0463  -14.2354 H         1 ATP403      0.0000 
     40 H          26.1526  -28.3112  -14.4569 H         1 ATP403      0.0000 
     41 H          22.5499  -30.5510  -17.5476 H         1 ATP403      0.0000 
     42 H          24.1406  -23.2175  -20.3880 H         1 ATP403      0.0000 
     43 H          23.2969  -25.1603  -21.8944 H         1 ATP403      0.0000 
@<TRIPOS>BOND
     1    2    1 ar   
     2    3    1 ar   
     3    4    1 ar   
     4    8    1 1    
     5    6    5 ar   
     6    7    5 ar   
     7    8    5 1    
     8   12    5 1    
     9   10    9 ar   
    10   11    9 ar   
    11   12    9 1    
    12   13    9 1    
    13   14   13 1    
    14   15   14 1    
    15   32   14 1    
    16   33   14 1    
    17   16   15 1    
    18   17   15 1    
    19   34   15 1    
    20   21   16 1    
    21   18   17 1    
    22   19   17 1    
    23   35   17 1    
    24   42   18 1    
    25   20   19 1    
    26   21   19 1    
    27   36   19 1    
    28   43   20 1    
    29   22   21 1    
    30   37   21 1    
    31   23   22 1    
    32   31   22 1    
    33   24   23 2    
    34   38   23 1    
    35   25   24 1    
    36   26   25 ar   
    37   31   25 ar   
    38   27   26 1    
    39   28   26 ar   
    40   39   27 1    
    41   40   27 1    
    42   29   28 ar   
    43   30   29 ar   
    44   41   29 1    
    45   31   30 ar   
@<TRIPOS>SUBSTRUCTURE
     1 ATP403      1 GROUP   
@<TRIPOS>SET

