#    Name: 4j91_ADP_3_INTS_M
#    Modification time : Tue Mar 25 05:35:52 2014

@<TRIPOS>MOLECULE
4j91_ADP_3_INTS_M
   64     0    12     0     0
SMALL
NO_CHARGES


@<TRIPOS>ATOM
      1 NZ          9.9840   21.2445   21.1910 N.4       3 LYC4        0.0000 
      2 NZ          8.8140   20.3230   21.8050 N.4      11 LYL4        0.0000 
      3 NZ         11.1540   22.1660   20.5770 N.4       7 LYP4        0.0000 
      4 NZ          6.6765   22.0555   24.3145 N.4       3 LYC4        0.0000 
      5 NZ          6.8330   20.7780   23.3080 N.4      11 LYL4        0.0000 
      6 NZ          6.5200   23.3330   25.3210 N.4       7 LYP4        0.0000 
      7 N           8.6730   18.1785   24.0720 N.am      2 SEC2        0.0000 
      8 N           7.6310   18.4030   23.0050 N.am     10 SEL2        0.0000 
      9 N           9.7150   17.9540   25.1390 N.am      6 SEP2        0.0000 
     10 N           9.4180   17.8305   21.2375 N.am      2 SEC2        0.0000 
     11 N           8.4760   18.4660   19.9840 N.am     10 SEL2        0.0000 
     12 N          10.3600   17.1950   22.4910 N.am      6 SEP2        0.0000 
     13 CA          4.0595   14.6025   21.6060 C.3       4 GLC5        0.0000 
     14 CA          4.6500   15.5990   19.9000 C.3      12 GLL5        0.0000 
     15 CA          3.4690   13.6060   23.3120 C.3       8 GLP5        0.0000 
     16 N           7.6420   14.2085   17.8920 N.am      2 SEC2        0.0000 
     17 N           6.2050   14.2430   18.6860 N.am     10 SEL2        0.0000 
     18 N           9.0790   14.1740   17.0980 N.am      6 SEP2        0.0000 
     19 O           5.7345   12.9835   19.2095 O.2       1 ALC1        0.0000 
     20 O           6.2050   14.2430   18.6860 O.2       9 ALL1        0.0000 
     21 O           5.2640   11.7240   19.7330 O.2       5 ALP1        0.0000 
     22 O           4.2950   12.3195   17.4725 O.2       1 ALC1        0.0000 
     23 O           4.3740   13.4550   17.0710 O.2       9 ALL1        0.0000 
     24 O           4.2160   11.1840   17.8740 O.2       5 ALP1        0.0000 
     25 CA          1.6635   15.1930   20.2050 C.3       4 GLC5        0.0000 
     26 CA          3.0010   14.3190   18.8780 C.3      12 GLL5        0.0000 
     27 CA          0.3260   16.0670   21.5320 C.3       8 GLP5        0.0000 
     28 CA         -0.7575   12.2525   17.0255 C.3       4 GLC5        0.0000 
     29 CA         -1.8670   13.4790   18.1300 C.3      12 GLL5        0.0000 
     30 CA          0.3520   11.0260   15.9210 C.3       8 GLP5        0.0000 
     31 CA         -2.8310   11.6130   17.7875 C.3       4 GLC5        0.0000 
     32 CA         -3.7950    9.7470   17.4450 C.3       8 GLP5        0.0000 
     33 O          -4.0635   13.0520   17.2570 O.2       1 ALC1        0.0000 
     34 O          -3.0090   13.9040   17.5440 O.2       9 ALL1        0.0000 
     35 O          -5.1180   12.2000   16.9700 O.2       5 ALP1        0.0000 
     36 N          -2.9335   11.5580   19.2550 N.am      2 SEC2        0.0000 
     37 N          -1.8630   12.3510   18.8750 N.am     10 SEL2        0.0000 
     38 N          -4.0040   10.7650   19.6350 N.am      6 SEP2        0.0000 
     39 CA         -0.8770   12.0235   21.6265 C.3       4 GLC5        0.0000 
     40 CA         -0.7340   11.9050   19.4670 C.3      12 GLL5        0.0000 
     41 CA         -1.0200   12.1420   23.7860 C.3       8 GLP5        0.0000 
     42 CA          1.0175   10.6215   19.6310 C.3       4 GLC5        0.0000 
     43 CA          2.7690    9.3380   19.7950 C.3       8 GLP5        0.0000 
     44 CA         -0.1910   11.4655   17.6940 C.3       4 GLC5        0.0000 
     45 CA         -2.2645   10.8260   18.4560 C.3       4 GLC5        0.0000 
     46 CA         -2.1680   11.7665   20.6750 C.3       4 GLC5        0.0000 
     47 CA         -3.6020   11.6280   21.8830 C.3       8 GLP5        0.0000 
     48 CA         -0.9425   13.8360   20.5280 C.3       4 GLC5        0.0000 
     49 CA         -1.1510   15.7670   21.5890 C.3       8 GLP5        0.0000 
     50 N           1.0975   11.2525   18.5390 N.am      2 SEC2        0.0000 
     51 N           0.4640   12.5250   19.3770 N.am     10 SEL2        0.0000 
     52 N           1.7310    9.9800   17.7010 N.am      6 SEP2        0.0000 
     53 CA          0.4630   14.8695   20.0980 C.3       4 GLC5        0.0000 
     54 CA          0.6000   13.6720   18.6640 C.3      12 GLL5        0.0000 
     55 CA          6.7218   15.9657   20.9050 C.3       4 GLC5        0.0000 
     56 CA          8.6930   15.5920   21.7710 C.3       8 GLP5        0.0000 
     57 CA          3.2803   17.1397   21.1625 C.3       4 GLC5        0.0000 
     58 CA          4.8510   17.0800   20.1780 C.3      12 GLL5        0.0000 
     59 CA          1.8100   17.9400   22.2860 C.3       8 GLP5        0.0000 
     60 CA          2.3998   13.3260   16.9545 C.3       4 GLC5        0.0000 
     61 CA          1.2980   12.1760   15.5780 C.3       8 GLP5        0.0000 
     62 CA          0.6522   13.0625   16.9510 C.3       4 GLC5        0.0000 
     63 CA         -1.1890   14.8098   19.8230 C.3       4 GLC5        0.0000 
     64 CA         -0.5870   14.2260   17.9840 C.3      12 GLL5        0.0000 
@<TRIPOS>BOND
@<TRIPOS>SUBSTRUCTURE
     1 ALC1       19 GROUP        1 X    ALC  0     ROOT ALC X 1
     2 SEC2        7 GROUP        1 X    SEC  0     **** SEC X 2
     3 LYC4        1 GROUP        1 X    LYC  0     **** LYC X 4
     4 GLC5       13 GROUP        1 X    GLC  0     **** GLC X 6
     5 ALP1       21 GROUP        1 Y    ALP  0     ROOT ALP Y 8
     6 SEP2        9 GROUP        1 Y    SEP  0     **** SEP Y 9
     7 LYP4        3 GROUP        1 Y    LYP  0     **** LYP Y 11
     8 GLP5       15 GROUP        1 Y    GLP  0     **** GLP Y 13
     9 ALL1       20 GROUP        1 Z    ALL  0     ROOT ALL Z 15
    10 SEL2        8 GROUP        1 Z    SEL  0     **** SEL Z 16
    11 LYL4        2 GROUP        1 Z    LYL  0     **** LYL Z 18
    12 GLL5       14 GROUP        1 Z    GLL  0     **** GLL Z 20
@<TRIPOS>SET

