#    Name: 4j91_ADP_3_ligand
#    Modification time : Tue Mar 25 05:35:52 2014

@<TRIPOS>MOLECULE
4j91_ADP_3_ligand
   39    41     1     0     0
SMALL
NO_CHARGES


@<TRIPOS>ATOM
      1 PB          7.5460   19.7920   22.4210 P.3       1 ADP601      0.0000 
      2 O1B         8.8140   20.3230   21.8050 O.co2     1 ADP601      0.0000 
      3 O2B         6.8330   20.7780   23.3080 O.co2     1 ADP601      0.0000 
      4 O3B         7.6310   18.4030   23.0050 O.co2     1 ADP601      0.0000 
      5 PA          6.9810   18.6570   19.9450 P.3       1 ADP601      0.0000 
      6 O1A         6.3280   19.1690   18.6820 O.co2     1 ADP601      0.0000 
      7 O2A         8.4760   18.4660   19.9840 O.co2     1 ADP601      0.0000 
      8 O3A         6.5700   19.6180   21.1620 O.3       1 ADP601      0.0000 
      9 O5'         6.2500   17.2870   20.3640 O.3       1 ADP601      0.0000 
     10 C5'         4.8510   17.0800   20.1780 C.3       1 ADP601      0.0000 
     11 C4'         4.6500   15.5990   19.9000 C.3       1 ADP601      0.0000 
     12 O4'         3.2710   15.2380   19.9340 O.3       1 ADP601      0.0000 
     13 C3'         5.1780   15.2260   18.5270 C.3       1 ADP601      0.0000 
     14 O3'         6.2050   14.2430   18.6860 O.3       1 ADP601      0.0000 
     15 C2'         4.0020   14.6330   17.7840 C.3       1 ADP601      0.0000 
     16 O2'         4.3740   13.4550   17.0710 O.3       1 ADP601      0.0000 
     17 C1'         3.0010   14.3190   18.8780 C.3       1 ADP601      0.0000 
     18 N9          1.6140   14.4970   18.3920 N.pl3     1 ADP601      0.0000 
     19 C8          1.1530   15.4970   17.6150 C.2       1 ADP601      0.0000 
     20 N7         -0.1740   15.3480   17.3630 N.2       1 ADP601      0.0000 
     21 C5         -0.5870   14.2260   17.9840 C.ar      1 ADP601      0.0000 
     22 C6         -1.8670   13.4790   18.1300 C.ar      1 ADP601      0.0000 
     23 N6         -3.0090   13.9040   17.5440 N.pl3     1 ADP601      0.0000 
     24 N1         -1.8630   12.3510   18.8750 N.ar      1 ADP601      0.0000 
     25 C2         -0.7340   11.9050   19.4670 C.ar      1 ADP601      0.0000 
     26 N3          0.4640   12.5250   19.3770 N.ar      1 ADP601      0.0000 
     27 C4          0.6000   13.6720   18.6640 C.ar      1 ADP601      0.0000 
     28 H           4.4665   17.6391   19.3293 H         1 ADP601      0.0000 
     29 H           4.2801   17.3384   21.0657 H         1 ADP601      0.0000 
     30 H           5.2120   15.0295   20.6323 H         1 ADP601      0.0000 
     31 H           5.5053   16.0964   18.0358 H         1 ADP601      0.0000 
     32 H           3.5840   15.3904   17.1596 H         1 ADP601      0.0000 
     33 H           3.1595   13.3104   19.1984 H         1 ADP601      0.0000 
     34 H           1.6985   16.2377   17.2732 H         1 ADP601      0.0000 
     35 H          -3.8109   13.3195   17.6676 H         1 ADP601      0.0000 
     36 H          -2.9504   14.7651   17.0390 H         1 ADP601      0.0000 
     37 H          -0.7906   11.0057   20.0428 H         1 ADP601      0.0000 
     38 H           5.7189   13.3876   18.8651 H         1 ADP601      0.0000 
     39 H           3.7843   12.7346   17.4361 H         1 ADP601      0.0000 
@<TRIPOS>BOND
     1    2    1 ar   
     2    3    1 ar   
     3    4    1 ar   
     4    8    1 1    
     5    6    5 ar   
     6    7    5 ar   
     7    8    5 1    
     8    9    5 1    
     9   10    9 1    
    10   11   10 1    
    11   28   10 1    
    12   29   10 1    
    13   12   11 1    
    14   13   11 1    
    15   30   11 1    
    16   17   12 1    
    17   14   13 1    
    18   15   13 1    
    19   31   13 1    
    20   38   14 1    
    21   16   15 1    
    22   17   15 1    
    23   32   15 1    
    24   39   16 1    
    25   18   17 1    
    26   33   17 1    
    27   19   18 1    
    28   27   18 1    
    29   20   19 2    
    30   34   19 1    
    31   21   20 1    
    32   22   21 ar   
    33   27   21 ar   
    34   23   22 1    
    35   24   22 ar   
    36   35   23 1    
    37   36   23 1    
    38   25   24 ar   
    39   26   25 ar   
    40   37   25 1    
    41   27   26 ar   
@<TRIPOS>SUBSTRUCTURE
     1 ADP601      1 GROUP   
@<TRIPOS>SET

