#    Name: 3mx5_UTP_1_INTS_M
#    Modification time : Tue Mar 25 00:09:55 2014

@<TRIPOS>MOLECULE
3mx5_UTP_1_INTS_M
   46     0     9     0     0
SMALL
NO_CHARGES


@<TRIPOS>ATOM
      1 NZ         20.7770   26.8270   -1.2240 N.4       2 LYC4        0.0000 
      2 NZ         19.1520   26.5750   -1.1800 N.4       8 LYL4        0.0000 
      3 NZ         22.4020   27.0790   -1.2680 N.4       5 LYP4        0.0000 
      4 N          14.0070   29.0670   -1.7400 N.am      1 SEC2        0.0000 
      5 N          15.4350   29.4920   -1.2750 N.am      7 SEL2        0.0000 
      6 N          12.5790   28.6420   -2.2050 N.am      4 SEP2        0.0000 
      7 N          14.3910   30.3925   -2.0640 N.am      1 SEC2        0.0000 
      8 N          13.3470   31.2930   -2.8530 N.am      4 SEP2        0.0000 
      9 NZ         15.5120   29.6050   -4.1880 N.4       2 LYC4        0.0000 
     10 NZ         16.1120   28.3360   -3.3300 N.4       8 LYL4        0.0000 
     11 NZ         14.9120   30.8740   -5.0460 N.4       5 LYP4        0.0000 
     12 NZ         17.6945   28.8680   -4.0095 N.4       2 LYC4        0.0000 
     13 NZ         19.2770   29.4000   -4.6890 N.4       5 LYP4        0.0000 
     14 NZ         15.6140   27.4320   -4.2430 N.4       2 LYC4        0.0000 
     15 NZ         14.1690   26.4190   -6.0800 N.4       5 LYP4        0.0000 
     16 N          15.5120   29.6050   -4.1880 N.am      1 SEC2        0.0000 
     17 N          16.1120   28.3360   -3.3300 N.am      7 SEL2        0.0000 
     18 N          14.9120   30.8740   -5.0460 N.am      4 SEP2        0.0000 
     19 N          15.6140   27.4320   -4.2430 N.am      1 SEC2        0.0000 
     20 N          15.1160   26.5280   -5.1560 N.am      4 SEP2        0.0000 
     21 N          15.9705   30.7600   -4.0505 N.am      1 SEC2        0.0000 
     22 N          17.0290   30.6460   -3.0550 N.am      7 SEL2        0.0000 
     23 N          18.1530   30.0230   -3.8720 N.am      1 SEC2        0.0000 
     24 N          19.2770   29.4000   -4.6890 N.am      4 SEP2        0.0000 
     25 CA         15.5210   25.2040    3.9025 C.3       3 GLC5        0.0000 
     26 CA         17.2820   25.8190    4.9090 C.3       9 GLL5        0.0000 
     27 CA         13.7600   24.5890    2.8960 C.3       6 GLP5        0.0000 
     28 CA         16.5865   26.7700    6.7595 C.3       3 GLC5        0.0000 
     29 CA         15.8910   27.7210    8.6100 C.3       6 GLP5        0.0000 
     30 CA         18.4680   28.1630    5.9020 C.3       3 GLC5        0.0000 
     31 CA         18.7870   26.1240    5.0580 C.3       9 GLL5        0.0000 
     32 CA         18.1490   30.2020    6.7460 C.3       6 GLP5        0.0000 
     33 N          17.9280   27.7660    6.8945 N.am      1 SEC2        0.0000 
     34 N          18.9660   27.1430    6.0400 N.am      7 SEL2        0.0000 
     35 N          16.8900   28.3890    7.7490 N.am      4 SEP2        0.0000 
     36 CA         19.8300   23.4050    5.1235 C.3       3 GLC5        0.0000 
     37 CA         18.0290   23.5440    5.3330 C.3       9 GLL5        0.0000 
     38 CA         21.6310   23.2660    4.9140 C.3       6 GLP5        0.0000 
     39 CA         19.8145   22.2225    5.8865 C.3       3 GLC5        0.0000 
     40 CA         17.8900   22.3130    5.8600 C.3       9 GLL5        0.0000 
     41 CA         21.7390   22.1320    5.9130 C.3       6 GLP5        0.0000 
     42 CA         20.3263   24.7952    4.6303 C.3       3 GLC5        0.0000 
     43 CA         18.3833   23.3368    7.2837 C.3       3 GLC5        0.0000 
     44 CA         18.8070   23.7450    8.9710 C.3       6 GLP5        0.0000 
     45 CA         15.9648   22.6152    4.7737 C.3       3 GLC5        0.0000 
     46 CA         13.9700   22.3020    3.9510 C.3       6 GLP5        0.0000 
@<TRIPOS>BOND
@<TRIPOS>SUBSTRUCTURE
     1 SEC2        4 GROUP        1 X    SEC  0     ROOT SEC X 2
     2 LYC4        1 GROUP        1 X    LYC  0     **** LYC X 4
     3 GLC5       25 GROUP        1 X    GLC  0     **** GLC X 6
     4 SEP2        6 GROUP        1 Y    SEP  0     ROOT SEP Y 9
     5 LYP4        3 GROUP        1 Y    LYP  0     **** LYP Y 11
     6 GLP5       27 GROUP        1 Y    GLP  0     **** GLP Y 13
     7 SEL2        5 GROUP        1 Z    SEL  0     ROOT SEL Z 16
     8 LYL4        2 GROUP        1 Z    LYL  0     **** LYL Z 18
     9 GLL5       26 GROUP        1 Z    GLL  0     **** GLL Z 20
@<TRIPOS>SET

