#    Name: 3mx5_UTP_1_ligand
#    Modification time : Tue Mar 25 00:09:55 2014

@<TRIPOS>MOLECULE
3mx5_UTP_1_ligand
   40    41     1     0     0
SMALL
NO_CHARGES


@<TRIPOS>ATOM
      1 PA         17.8860   27.2790   -0.8900 P.3       1 UTP993      0.0000 
      2 O1A        19.1520   26.5750   -1.1800 O.co2     1 UTP993      0.0000 
      3 O2A        16.6510   26.3650   -1.3550 O.co2     1 UTP993      0.0000 
      4 O3A        17.9760   28.6900   -1.6720 O.3       1 UTP993      0.0000 
      5 O5'        17.7490   27.5870    0.6830 O.3       1 UTP993      0.0000 
      6 PB         16.6080   29.2570   -2.3020 P.3       1 UTP993      0.0000 
      7 O1B        15.4350   29.4920   -1.2750 O.co2     1 UTP993      0.0000 
      8 O2B        16.1120   28.3360   -3.3300 O.co2     1 UTP993      0.0000 
      9 O3B        17.0290   30.6460   -3.0550 O.3       1 UTP993      0.0000 
     10 PG         17.4930   31.7980   -2.0050 P.3       1 UTP993      0.0000 
     11 O1G        18.6710   31.2850   -1.0500 O.co2     1 UTP993      0.0000 
     12 O2G        16.3110   32.2350   -1.2240 O.co2     1 UTP993      0.0000 
     13 O3G        18.0460   33.0690   -2.7940 O.co2     1 UTP993      0.0000 
     14 C5'        18.0240   26.3790    1.3830 C.3       1 UTP993      0.0000 
     15 C4'        17.9190   26.7020    2.8790 C.3       1 UTP993      0.0000 
     16 O4'        17.0220   25.7530    3.4960 O.3       1 UTP993      0.0000 
     17 C1'        17.2820   25.8190    4.9090 C.3       1 UTP993      0.0000 
     18 C2'        18.7870   26.1240    5.0580 C.3       1 UTP993      0.0000 
     19 O2'        18.9660   27.1430    6.0400 O.3       1 UTP993      0.0000 
     20 C3'        19.2560   26.5250    3.6350 C.3       1 UTP993      0.0000 
     21 O3'        20.0230   27.7280    3.6710 O.3       1 UTP993      0.0000 
     22 N1         17.0560   24.5020    5.5010 N.am      1 UTP993      0.0000 
     23 C6         18.0290   23.5440    5.3330 C.2       1 UTP993      0.0000 
     24 C2         15.9330   24.2330    6.1900 C.2       1 UTP993      0.0000 
     25 O2         15.0790   25.0940    6.3210 O.2       1 UTP993      0.0000 
     26 N3         15.7590   23.0000    6.7310 N.am      1 UTP993      0.0000 
     27 C4         16.7070   22.0340    6.5890 C.2       1 UTP993      0.0000 
     28 O4         16.5650   20.9200    7.0620 O.2       1 UTP993      0.0000 
     29 C5         17.8900   22.3130    5.8600 C.2       1 UTP993      0.0000 
     30 H          19.0261   26.0120    1.1929 H         1 UTP993      0.0000 
     31 H          17.3027   25.6010    1.1607 H         1 UTP993      0.0000 
     32 H          17.5751   27.6933    3.0192 H         1 UTP993      0.0000 
     33 H          16.7392   26.5676    5.3887 H         1 UTP993      0.0000 
     34 H          19.2673   25.1997    5.3135 H         1 UTP993      0.0000 
     35 H          19.7591   25.6924    3.2195 H         1 UTP993      0.0000 
     36 H          18.8852   23.7886    4.7852 H         1 UTP993      0.0000 
     37 H          14.8855   22.7884    7.2641 H         1 UTP993      0.0000 
     38 H          18.5916   21.5840    5.7571 H         1 UTP993      0.0000 
     39 H          19.2382   26.6570    6.8705 H         1 UTP993      0.0000 
     40 H          19.9441   28.0570    4.6120 H         1 UTP993      0.0000 
@<TRIPOS>BOND
     1    2    1 ar   
     2    3    1 ar   
     3    4    1 1    
     4    5    1 1    
     5    6    4 1    
     6   14    5 1    
     7    7    6 ar   
     8    8    6 ar   
     9    9    6 1    
    10   10    9 1    
    11   11   10 ar   
    12   12   10 ar   
    13   13   10 ar   
    14   15   14 1    
    15   30   14 1    
    16   31   14 1    
    17   16   15 1    
    18   20   15 1    
    19   32   15 1    
    20   17   16 1    
    21   18   17 1    
    22   22   17 1    
    23   33   17 1    
    24   19   18 1    
    25   20   18 1    
    26   34   18 1    
    27   39   19 1    
    28   21   20 1    
    29   35   20 1    
    30   40   21 1    
    31   23   22 1    
    32   24   22 1    
    33   29   23 2    
    34   36   23 1    
    35   25   24 2    
    36   26   24 1    
    37   27   26 1    
    38   37   26 1    
    39   28   27 2    
    40   29   27 1    
    41   38   29 1    
@<TRIPOS>SUBSTRUCTURE
     1 UTP993      1 GROUP   
@<TRIPOS>SET

