#    Name: 2OAG_1_CAVITY_N1_ALL.mol2
#    Modification time : Tue Mar 11 02:17:52 2014

@<TRIPOS>MOLECULE
2OAG_1_CAVITY_N1_ALL.mol2
   76     0     6     0     0
SMALL
NO_CHARGES


@<TRIPOS>ATOM
      1 CZ         35.1234    7.0049   65.0063 C.ar      4 PHE5        0.0000 
      2 NZ         35.2965    5.9286   66.0366 N.2       3 LYS4        0.0000 
      3 OG         33.5829    8.4369   62.3936 O.2       1 SER1        0.0000 
      4 CZ         33.7560    7.3606   63.4239 C.ar      4 PHE5        0.0000 
      5 CZ         33.9292    6.2843   64.4543 C.ar      4 PHE5        0.0000 
      6 O          33.3227    3.3301   61.4702 O.2       2 ALA2        0.0000 
      7 OG         34.4739    7.6803   61.4535 O.2       1 SER1        0.0000 
      8 CZ         34.6470    6.6040   62.4839 C.ar      4 PHE5        0.0000 
      9 DU         34.8202    5.5277   63.5142 H         6 CUB7        0.0000 
     10 N          34.9933    4.4514   64.5446 N.2       2 ALA2        0.0000 
     11 OG         33.2797    6.9598   60.9015 O.2       1 SER1        0.0000 
     12 DU         33.4528    5.8835   61.9319 H         6 CUB7        0.0000 
     13 NZ         33.6260    4.8072   62.9622 N.2       3 LYS4        0.0000 
     14 N          33.7991    3.7309   63.9926 N.2       2 ALA2        0.0000 
     15 OG         32.0855    6.2393   60.3495 O.2       1 SER1        0.0000 
     16 O          32.2586    5.1630   61.3799 O.2       2 ALA2        0.0000 
     17 NZ         32.4317    4.0867   62.4102 N.2       3 LYS4        0.0000 
     18 CZ         30.5450    7.6713   57.7369 C.ar      4 PHE5        0.0000 
     19 OG         30.7181    6.5950   58.7672 O.2       1 SER1        0.0000 
     20 O          30.8913    5.5187   59.7976 O.2       2 ALA2        0.0000 
     21 OG         29.5239    5.8745   58.2152 O.2       1 SER1        0.0000 
     22 O          29.6970    4.7982   59.2456 O.2       2 ALA2        0.0000 
     23 CZ         38.9906    5.4556   62.7381 C.ar      4 PHE5        0.0000 
     24 OG         39.1637    4.3793   63.7685 O.2       1 SER1        0.0000 
     25 OG         39.3369    3.3030   64.7988 O.2       1 SER1        0.0000 
     26 OG         39.5100    2.2268   65.8291 O.2       1 SER1        0.0000 
     27 DU         37.7964    4.7351   62.1861 H         6 CUB7        0.0000 
     28 OG         37.9695    3.6588   63.2165 O.2       1 SER1        0.0000 
     29 DU         36.6022    4.0146   61.6341 H         6 CUB7        0.0000 
     30 OG         36.7753    2.9383   62.6645 O.2       1 SER1        0.0000 
     31 CA         39.6401    4.7802   66.2908 C.3       5 GLY6        0.0000 
     32 CZ         38.0996    6.2122   63.6782 C.ar      4 PHE5        0.0000 
     33 CA         38.2727    5.1359   64.7085 C.3       5 GLY6        0.0000 
     34 N          38.4459    4.0596   65.7389 N.2       2 ALA2        0.0000 
     35 CZ         36.5591    7.6443   61.0655 C.ar      4 PHE5        0.0000 
     36 CZ         36.7322    6.5680   62.0958 C.ar      4 PHE5        0.0000 
     37 CZ         36.9054    5.4917   63.1262 C.ar      4 PHE5        0.0000 
     38 OG         37.0785    4.4154   64.1565 O.2       1 SER1        0.0000 
     39 N          37.2517    3.3391   65.1869 N.2       2 ALA2        0.0000 
     40 DU         35.3649    6.9237   60.5135 H         6 CUB7        0.0000 
     41 DU         35.5380    5.8475   61.5438 H         6 CUB7        0.0000 
     42 DU         35.7112    4.7712   62.5742 H         6 CUB7        0.0000 
     43 N          35.8843    3.6949   63.6045 N.2       2 ALA2        0.0000 
     44 DU         34.3438    5.1269   60.9918 H         6 CUB7        0.0000 
     45 DU         34.5170    4.0506   62.0222 H         6 CUB7        0.0000 
     46 CA         40.3579    5.0999   64.3205 C.3       5 GLY6        0.0000 
     47 CA         40.5311    4.0236   65.3508 C.3       5 GLY6        0.0000 
     48 O          40.7042    2.9473   66.3811 O.2       2 ALA2        0.0000 
     49 CZ         31.6708    7.3967   63.8120 C.ar      4 PHE5        0.0000 
     50 CZ         31.8439    6.3204   64.8423 C.ar      4 PHE5        0.0000 
     51 OG         30.3035    7.7524   62.2296 O.2       1 SER1        0.0000 
     52 OG         30.4766    6.6761   63.2600 O.2       1 SER1        0.0000 
     53 CA         29.1092    7.0319   61.6777 C.3       5 GLY6        0.0000 
     54 OG         29.2824    5.9556   62.7080 O.2       1 SER1        0.0000 
     55 OG         32.5618    6.6401   62.8719 O.2       1 SER1        0.0000 
     56 NZ         32.7349    5.5638   63.9023 N.2       3 LYS4        0.0000 
     57 NZ         32.9081    4.4875   64.9326 N.2       3 LYS4        0.0000 
     58 OG         31.1945    6.9959   61.2896 O.2       1 SER1        0.0000 
     59 NZ         31.3676    5.9196   62.3199 N.2       3 LYS4        0.0000 
     60 NZ         31.5407    4.8433   63.3503 N.2       3 LYS4        0.0000 
     61 CA         29.8271    7.3516   59.7073 C.3       5 GLY6        0.0000 
     62 OG         30.0003    6.2753   60.7376 O.2       1 SER1        0.0000 
     63 O          30.1734    5.1990   61.7680 O.2       2 ALA2        0.0000 
     64 N          28.8060    5.5548   60.1856 N.2       2 ALA2        0.0000 
     65 CZ         37.3817    5.8925   65.6486 C.ar      4 PHE5        0.0000 
     66 N          37.5549    4.8162   66.6789 N.2       2 ALA2        0.0000 
     67 CZ         35.4950    9.4772   60.9752 C.ar      4 PHE5        0.0000 
     68 CZ         35.6681    8.4009   62.0055 C.ar      4 PHE5        0.0000 
     69 CZ         35.8412    7.3246   63.0359 C.ar      4 PHE5        0.0000 
     70 CZ         36.0144    6.2483   64.0662 C.ar      4 PHE5        0.0000 
     71 CZ         36.1875    5.1720   65.0966 C.ar      4 PHE5        0.0000 
     72 N          36.3606    4.0957   66.1269 N.2       2 ALA2        0.0000 
     73 O          41.4221    3.2670   64.4107 O.2       2 ALA2        0.0000 
     74 O          41.5952    2.1907   65.4411 O.2       2 ALA2        0.0000 
     75 OG         40.2279    2.5465   63.8588 O.2       1 SER1        0.0000 
     76 OG         40.4010    1.4702   64.8891 O.2       1 SER1        0.0000 
@<TRIPOS>BOND
@<TRIPOS>SUBSTRUCTURE
     1 SER1        3 GROUP   
     2 ALA2        6 GROUP   
     3 LYS4        2 GROUP   
     4 PHE5        1 GROUP   
     5 GLY6       31 GROUP   
     6 CUB7        9 GROUP   
@<TRIPOS>SET

