#    Name: 2oag_DLI_1_INTS_M
#    Modification time : Tue Mar 25 22:07:15 2014

@<TRIPOS>MOLECULE
2oag_DLI_1_INTS_M
   60     0    12     0     0
SMALL
NO_CHARGES


@<TRIPOS>ATOM
      1 CA         38.7055    2.0240   67.8345 C.3       4 GLC5        0.0000 
      2 CA         39.1460    2.8410   65.9650 C.3      12 GLL5        0.0000 
      3 CA         38.2650    1.2070   69.7040 C.3       8 GLP5        0.0000 
      4 CA         28.8770   10.2500   62.3040 C.3       4 GLC5        0.0000 
      5 CA         28.6710    8.5100   63.3150 C.3      12 GLL5        0.0000 
      6 CA         29.0830   11.9900   61.2930 C.3       8 GLP5        0.0000 
      7 CA         29.8020    5.6815   65.4605 C.3       4 GLC5        0.0000 
      8 CA         31.8210    5.5040   64.5730 C.3      12 GLL5        0.0000 
      9 CA         27.7830    5.8590   66.3480 C.3       8 GLP5        0.0000 
     10 CA         26.1535    8.5005   60.9945 C.3       4 GLC5        0.0000 
     11 CA         26.3540    8.1500   62.7030 C.3      12 GLL5        0.0000 
     12 CA         25.9530    8.8510   59.2860 C.3       8 GLP5        0.0000 
     13 CA         26.9755    9.9880   61.8310 C.3       4 GLC5        0.0000 
     14 CA         27.5970   11.8260   60.9590 C.3       8 GLP5        0.0000 
     15 CA         26.3845    6.9110   64.5480 C.3       4 GLC5        0.0000 
     16 CA         26.4150    5.6720   66.3930 C.3       8 GLP5        0.0000 
     17 CA         29.0830   11.3100   63.6695 C.3       4 GLC5        0.0000 
     18 CA         28.5710    9.7940   63.7170 C.3      12 GLL5        0.0000 
     19 CA         29.5950   12.8260   63.6220 C.3       8 GLP5        0.0000 
     20 CA         26.5655    9.7305   64.4290 C.3       4 GLC5        0.0000 
     21 CA         24.5600    9.6670   65.1410 C.3       8 GLP5        0.0000 
     22 CA         27.9630   11.1280   65.2210 C.3       4 GLC5        0.0000 
     23 CA         27.3550   12.4620   66.7250 C.3       8 GLP5        0.0000 
     24 CA         29.7575    9.9310   65.2685 C.3       4 GLC5        0.0000 
     25 CA         30.9440   10.0680   66.8200 C.3       8 GLP5        0.0000 
     26 OD1        31.0315    3.2790   64.1735 O.co2     3 ASC3        0.0000 
     27 OD1        30.9090    4.3720   64.7820 O.co2    11 ASL3        0.0000 
     28 OD1        31.1540    2.1860   63.5650 O.co2     7 ASP3        0.0000 
     29 O          31.0315    3.2790   64.1735 O.2       1 ALC1        0.0000 
     30 O          30.9090    4.3720   64.7820 O.2       9 ALL1        0.0000 
     31 O          31.1540    2.1860   63.5650 O.2       5 ALP1        0.0000 
     32 O          31.0420    4.1860   66.2130 O.2       1 ALC1        0.0000 
     33 O          31.1750    4.0000   67.6440 O.2       5 ALP1        0.0000 
     34 CA         41.6800    2.7950   67.1110 C.3       4 GLC5        0.0000 
     35 CA         40.4720    2.8420   65.5060 C.3      12 GLL5        0.0000 
     36 CA         42.8880    2.7480   68.7160 C.3       8 GLP5        0.0000 
     37 N          43.3415    3.0935   66.1965 N.am      2 SEC2        0.0000 
     38 N          43.2980    4.0420   64.9110 N.am     10 SEL2        0.0000 
     39 N          43.3850    2.1450   67.4820 N.am      6 SEP2        0.0000 
     40 CA         25.7715    8.7935   63.9505 C.3       4 GLC5        0.0000 
     41 CA         32.5607    7.6858   64.4710 C.3       4 GLC5        0.0000 
     42 CA         31.6200    6.0610   63.1460 C.3      12 GLL5        0.0000 
     43 CA         32.8890    8.9410   66.0070 C.3       8 GLP5        0.0000 
     44 CA         39.3855    1.1438   64.6767 C.3       4 GLC5        0.0000 
     45 CA         38.9620   -0.5540   63.6180 C.3       8 GLP5        0.0000 
     46 CA         40.0840    5.6653   65.0882 C.3       4 GLC5        0.0000 
     47 CA         40.8100    3.6080   64.3630 C.3      12 GLL5        0.0000 
     48 CA         39.8490    7.3430   66.1520 C.3       8 GLP5        0.0000 
     49 CA         27.7641    7.9765   61.0804 C.3       4 GLC5        0.0000 
     50 CA         27.3240    8.1920   59.1920 C.3       8 GLP5        0.0000 
     51 CA         32.6750    6.6883   65.8077 C.3       4 GLC5        0.0000 
     52 CA         32.7860    8.0250   67.0430 C.3       8 GLP5        0.0000 
     53 CA         27.7679    4.5556   61.0059 C.3       4 GLC5        0.0000 
     54 CA         29.1900    5.8310   62.5430 C.3      12 GLL5        0.0000 
     55 CA         26.5070    3.7900   59.6730 C.3       8 GLP5        0.0000 
     56 CA         25.6989    6.7530   62.9904 C.3       4 GLC5        0.0000 
     57 CA         27.6120    7.6900   62.8170 C.3      12 GLL5        0.0000 
     58 CA         24.3520    5.9250   63.3180 C.3       8 GLP5        0.0000 
     59 CA         38.9574    5.7669   65.3340 C.3       4 GLC5        0.0000 
     60 CA         37.4370    5.1860   63.3820 C.3      12 GLL5        0.0000 
@<TRIPOS>BOND
@<TRIPOS>SUBSTRUCTURE
     1 ALC1       29 GROUP        1 X    ALC  0     ROOT ALC X 1
     2 SEC2       37 GROUP        1 X    SEC  0     **** SEC X 2
     3 ASC3       26 GROUP        1 X    ASC  0     **** ASC X 3
     4 GLC5        1 GROUP        1 X    GLC  0     **** GLC X 6
     5 ALP1       31 GROUP        1 Y    ALP  0     ROOT ALP Y 8
     6 SEP2       39 GROUP        1 Y    SEP  0     **** SEP Y 9
     7 ASP3       28 GROUP        1 Y    ASP  0     **** ASP Y 10
     8 GLP5        3 GROUP        1 Y    GLP  0     **** GLP Y 13
     9 ALL1       30 GROUP        1 Z    ALL  0     ROOT ALL Z 15
    10 SEL2       38 GROUP        1 Z    SEL  0     **** SEL Z 16
    11 ASL3       27 GROUP        1 Z    ASL  0     **** ASL Z 17
    12 GLL5        2 GROUP        1 Z    GLL  0     **** GLL Z 20
@<TRIPOS>SET

