#    Name: 2oag_DLI_1_ligand
#    Modification time : Tue Mar 25 22:07:15 2014

@<TRIPOS>MOLECULE
2oag_DLI_1_ligand
   51    54     1     0     0
SMALL
NO_CHARGES


@<TRIPOS>ATOM
      1 C4         29.1900    5.8310   62.5430 C.ar      1 DLI4000     0.0000 
      2 C5         27.8630    6.3340   62.4280 C.ar      1 DLI4000     0.0000 
      3 C6         27.6120    7.6900   62.8170 C.ar      1 DLI4000     0.0000 
      4 C7         31.6200    6.0610   63.1460 C.3       1 DLI4000     0.0000 
      5 C8         32.8450    6.8000   62.7240 C.3       1 DLI4000     0.0000 
      6 C10        42.7350    4.6720   62.4390 C.3       1 DLI4000     0.0000 
      7 C17        36.8490    6.6850   61.6130 C.ar      1 DLI4000     0.0000 
      8 C20        36.0980    5.2160   63.7830 C.ar      1 DLI4000     0.0000 
      9 C21        38.4860    4.3830   64.1240 C.ar      1 DLI4000     0.0000 
     10 C24        39.1460    2.8410   65.9650 C.ar      1 DLI4000     0.0000 
     11 C26        40.8100    3.6080   64.3630 C.ar      1 DLI4000     0.0000 
     12 C1         28.6710    8.5100   63.3150 C.ar      1 DLI4000     0.0000 
     13 C2         29.9800    8.0000   63.4200 C.ar      1 DLI4000     0.0000 
     14 C3         30.2380    6.6510   63.0420 C.ar      1 DLI4000     0.0000 
     15 C9         31.8210    5.5040   64.5730 C.3       1 DLI4000     0.0000 
     16 F10        29.5310    4.5600   62.1920 F         1 DLI4000     0.0000 
     17 N11        33.8410    5.9990   63.4380 N.3       1 DLI4000     0.0000 
     18 C12        33.3070    5.1990   64.5720 C.3       1 DLI4000     0.0000 
     19 F13        26.3540    8.1500   62.7030 F         1 DLI4000     0.0000 
     20 C14        35.1670    5.9850   63.0510 C.ar      1 DLI4000     0.0000 
     21 F15        28.5710    9.7940   63.7170 F         1 DLI4000     0.0000 
     22 N16        35.5430    6.7410   61.9760 N.ar      1 DLI4000     0.0000 
     23 N18        37.7890    5.9640   62.2640 N.ar      1 DLI4000     0.0000 
     24 C19        37.4370    5.1860   63.3820 C.ar      1 DLI4000     0.0000 
     25 N22        30.9090    4.3720   64.7820 N.4       1 DLI4000     0.0000 
     26 C23        38.1700    3.5970   65.2790 C.ar      1 DLI4000     0.0000 
     27 C25        40.4720    2.8420   65.5060 C.ar      1 DLI4000     0.0000 
     28 C27        39.8280    4.3670   63.6860 C.ar      1 DLI4000     0.0000 
     29 S1         42.5030    3.5570   63.8240 S.o2      1 DLI4000     0.0000 
     30 O2         42.7410    2.2190   63.3630 O.2       1 DLI4000     0.0000 
     31 O1         43.2980    4.0420   64.9110 O.2       1 DLI4000     0.0000 
     32 H          27.1180    5.7557   62.0830 H         1 DLI4000     0.0000 
     33 H          31.5944    5.0880   62.5162 H         1 DLI4000     0.0000 
     34 H          32.8158    7.7863   63.0910 H         1 DLI4000     0.0000 
     35 H          32.9714    6.7235   61.6816 H         1 DLI4000     0.0000 
     36 H          37.1525    7.2485   60.7560 H         1 DLI4000     0.0000 
     37 H          35.7888    4.6871   64.5996 H         1 DLI4000     0.0000 
     38 H          38.8846    2.2992   66.7883 H         1 DLI4000     0.0000 
     39 H          30.7380    8.5833   63.7614 H         1 DLI4000     0.0000 
     40 H          31.6339    6.3190   65.2390 H         1 DLI4000     0.0000 
     41 H          33.4554    4.1559   64.4000 H         1 DLI4000     0.0000 
     42 H          33.7363    5.5206   65.4950 H         1 DLI4000     0.0000 
     43 H          37.1926    3.5883   65.6151 H         1 DLI4000     0.0000 
     44 H          41.1876    2.3005   65.9845 H         1 DLI4000     0.0000 
     45 H          40.0972    4.9175   62.8590 H         1 DLI4000     0.0000 
     46 H          43.6796    4.6653   62.1110 H         1 DLI4000     0.0000 
     47 H          42.1536    4.4266   61.6633 H         1 DLI4000     0.0000 
     48 H          42.5159    5.6169   62.6822 H         1 DLI4000     0.0000 
     49 H          30.6373    4.2860   65.7405 H         1 DLI4000     0.0000 
     50 H          30.0697    4.4676   64.2469 H         1 DLI4000     0.0000 
     51 H          31.3281    3.5036   64.5171 H         1 DLI4000     0.0000 
@<TRIPOS>BOND
     1    2    1 ar   
     2   14    1 ar   
     3   16    1 1    
     4    3    2 ar   
     5   32    2 1    
     6   12    3 ar   
     7   19    3 1    
     8    5    4 1    
     9   14    4 1    
    10   15    4 1    
    11   33    4 1    
    12   17    5 1    
    13   34    5 1    
    14   35    5 1    
    15   29    6 1    
    16   46    6 1    
    17   47    6 1    
    18   48    6 1    
    19   22    7 ar   
    20   23    7 ar   
    21   36    7 1    
    22   20    8 ar   
    23   24    8 ar   
    24   37    8 1    
    25   24    9 1    
    26   26    9 ar   
    27   28    9 ar   
    28   26   10 ar   
    29   27   10 ar   
    30   38   10 1    
    31   27   11 ar   
    32   28   11 ar   
    33   29   11 1    
    34   13   12 ar   
    35   21   12 1    
    36   14   13 ar   
    37   39   13 1    
    38   18   15 1    
    39   25   15 1    
    40   40   15 1    
    41   18   17 1    
    42   20   17 1    
    43   41   18 1    
    44   42   18 1    
    45   22   20 ar   
    46   24   23 ar   
    47   49   25 1    
    48   50   25 1    
    49   51   25 1    
    50   43   26 1    
    51   44   27 1    
    52   45   28 1    
    53   30   29 2    
    54   31   29 2    
@<TRIPOS>SUBSTRUCTURE
     1 DLI4000     1 GROUP   
@<TRIPOS>SET

