#    Name: 4PAH_1_CAVITY_N1_ALL.mol2
#    Modification time : Tue Mar 11 17:31:50 2014

@<TRIPOS>MOLECULE
4PAH_1_CAVITY_N1_ALL.mol2
  110     0     7     0     0
SMALL
NO_CHARGES


@<TRIPOS>ATOM
      1 OG         -8.9190   30.6921    3.2169 O.2       1 SER1        0.0000 
      2 OG         -9.5532   29.4738    3.8198 O.2       1 SER1        0.0000 
      3 OG        -10.8217   27.0371    5.0255 O.2       1 SER1        0.0000 
      4 CA        -10.6123   24.9444    4.7488 C.3       6 GLY6        0.0000 
      5 CZ         -6.1658   28.9105    2.5128 C.ar      5 PHE5        0.0000 
      6 OG         -7.0095   29.7849    3.3923 O.2       1 SER1        0.0000 
      7 CA         -7.8532   30.6593    4.2719 C.3       6 GLY6        0.0000 
      8 CZ         -5.9564   26.8177    2.2361 C.ar      5 PHE5        0.0000 
      9 DU         -6.8001   27.6922    3.1156 H         7 CUB7        0.0000 
     10 DU         -7.6437   28.5666    3.9952 H         7 CUB7        0.0000 
     11 OG         -8.4874   29.4410    4.8748 O.2       1 SER1        0.0000 
     12 DU         -5.7470   24.7250    1.9593 H         7 CUB7        0.0000 
     13 DU         -6.5906   25.5994    2.8389 H         7 CUB7        0.0000 
     14 DU         -7.4343   26.4738    3.7185 H         7 CUB7        0.0000 
     15 OG         -8.2780   27.3482    4.5980 O.2       1 SER1        0.0000 
     16 CA         -6.3812   23.5067    2.5622 C.3       6 GLY6        0.0000 
     17 CA         -7.2249   24.3811    3.4417 C.3       6 GLY6        0.0000 
     18 CA         -8.0685   25.2555    4.3213 C.3       6 GLY6        0.0000 
     19 CA         -8.9122   26.1299    5.2009 C.3       6 GLY6        0.0000 
     20 OG         -9.7559   27.0043    6.0804 O.2       1 SER1        0.0000 
     21 N          -9.5464   24.9116    5.8037 N.2       2 ALA2        0.0000 
     22 CZ         -5.3095   30.9704    3.8445 C.ar      5 PHE5        0.0000 
     23 CZ         -5.1000   28.8777    3.5677 C.ar      5 PHE5        0.0000 
     24 CZ         -5.9437   29.7521    4.4473 C.ar      5 PHE5        0.0000 
     25 N          -6.7874   30.6265    5.3269 N.2       2 ALA2        0.0000 
     26 DU         -3.2033   25.0361    1.5319 H         7 CUB7        0.0000 
     27 CZ         -4.0469   25.9105    2.4115 C.ar      5 PHE5        0.0000 
     28 CZ         -4.8906   26.7849    3.2910 C.ar      5 PHE5        0.0000 
     29 DU         -5.7343   27.6593    4.1706 H         7 CUB7        0.0000 
     30 DU         -6.5779   28.5337    5.0502 H         7 CUB7        0.0000 
     31 CA         -7.4216   29.4081    5.9297 C.3       6 GLY6        0.0000 
     32 CA         -3.8375   23.8178    2.1347 C.3       6 GLY6        0.0000 
     33 DU         -4.6812   24.6922    3.0143 H         7 CUB7        0.0000 
     34 DU         -5.5248   25.5666    3.8939 H         7 CUB7        0.0000 
     35 DU         -6.3685   26.4410    4.7734 H         7 CUB7        0.0000 
     36 DU         -7.2122   27.3154    5.6530 H         7 CUB7        0.0000 
     37 OG         -8.0558   28.1898    6.5326 O.2       1 SER1        0.0000 
     38 CA         -5.3154   23.4738    3.6171 C.3       6 GLY6        0.0000 
     39 CA         -6.1591   24.3483    4.4967 C.3       6 GLY6        0.0000 
     40 CA         -7.0027   25.2227    5.3763 C.3       6 GLY6        0.0000 
     41 DU         -7.8464   26.0971    6.2558 H         7 CUB7        0.0000 
     42 CA         -8.6901   26.9715    7.1354 C.3       6 GLY6        0.0000 
     43 CA         -5.9496   22.2555    4.2200 C.3       6 GLY6        0.0000 
     44 CA         -6.7933   23.1299    5.0996 C.3       6 GLY6        0.0000 
     45 CA         -7.6370   24.0043    5.9791 C.3       6 GLY6        0.0000 
     46 N          -8.4806   24.8787    6.8587 N.2       2 ALA2        0.0000 
     47 N          -9.3243   25.7532    7.7382 N.2       2 ALA2        0.0000 
     48 CA         -7.4275   21.9116    5.7024 C.3       6 GLY6        0.0000 
     49 CA         -8.2712   22.7860    6.5820 C.3       6 GLY6        0.0000 
     50 NZ         -1.5032   26.2216    1.9840 N.2       4 LYS4        0.0000 
     51 CZ         -2.3469   27.0960    2.8636 C.ar      5 PHE5        0.0000 
     52 CZ         -3.1905   27.9704    3.7431 C.ar      5 PHE5        0.0000 
     53 CZ         -4.0342   28.8448    4.6227 C.ar      5 PHE5        0.0000 
     54 CZ         -4.8779   29.7192    5.5023 C.ar      5 PHE5        0.0000 
     55 CZ         -5.7215   30.5936    6.3818 C.ar      5 PHE5        0.0000 
     56 DU         -2.1374   25.0033    2.5869 H         7 CUB7        0.0000 
     57 CZ         -2.9811   25.8777    3.4664 C.ar      5 PHE5        0.0000 
     58 CZ         -3.8248   26.7521    4.3460 C.ar      5 PHE5        0.0000 
     59 CZ         -4.6684   27.6265    5.2256 C.ar      5 PHE5        0.0000 
     60 CZ         -5.5121   28.5009    6.1051 C.ar      5 PHE5        0.0000 
     61 CZ         -6.3558   29.3753    6.9847 C.ar      5 PHE5        0.0000 
     62 CA         -2.7717   23.7849    3.1897 C.3       6 GLY6        0.0000 
     63 DU         -3.6153   24.6593    4.0693 H         7 CUB7        0.0000 
     64 DU         -4.4590   25.5337    4.9488 H         7 CUB7        0.0000 
     65 DU         -5.3027   26.4082    5.8284 H         7 CUB7        0.0000 
     66 CZ         -6.1463   27.2826    6.7080 C.ar      5 PHE5        0.0000 
     67 CZ         -6.9900   28.1570    7.5875 C.ar      5 PHE5        0.0000 
     68 CA         -4.2496   23.4410    4.6721 C.3       6 GLY6        0.0000 
     69 DU         -5.0932   24.3154    5.5517 H         7 CUB7        0.0000 
     70 DU         -5.9369   25.1898    6.4312 H         7 CUB7        0.0000 
     71 CZ         -6.7806   26.0642    7.3108 C.ar      5 PHE5        0.0000 
     72 CZ         -7.6242   26.9386    8.1904 C.ar      5 PHE5        0.0000 
     73 CA         -4.8838   22.2227    5.2750 C.3       6 GLY6        0.0000 
     74 DU         -5.7275   23.0971    6.1545 H         7 CUB7        0.0000 
     75 CZ         -6.5711   23.9715    7.0341 C.ar      5 PHE5        0.0000 
     76 CZ         -7.4148   24.8459    7.9136 C.ar      5 PHE5        0.0000 
     77 CA         -5.5180   21.0043    5.8778 C.3       6 GLY6        0.0000 
     78 DU         -6.3617   21.8788    6.7574 H         7 CUB7        0.0000 
     79 CZ         -7.2054   22.7532    7.6369 C.ar      5 PHE5        0.0000 
     80 CA         -8.0490   23.6276    8.5165 C.3       6 GLY6        0.0000 
     81 CA         -5.3086   18.9116    5.6011 C.3       6 GLY6        0.0000 
     82 N          -6.1523   19.7860    6.4806 N.2       2 ALA2        0.0000 
     83 N          -6.9959   20.6604    7.3602 N.2       2 ALA2        0.0000 
     84 O          -7.8396   21.5348    8.2398 O.2       2 ALA2        0.0000 
     85 OD1        -1.0716   24.9704    3.6418 O.3       3 ASP3        0.0000 
     86 OD1        -1.9153   25.8448    4.5214 O.3       3 ASP3        0.0000 
     87 NZ         -2.7589   26.7192    5.4010 N.2       4 LYS4        0.0000 
     88 OD1        -1.7058   23.7521    4.2447 O.3       3 ASP3        0.0000 
     89 OD1        -2.5495   24.6265    5.1242 O.3       3 ASP3        0.0000 
     90 OD1        -3.3932   25.5009    6.0038 O.3       3 ASP3        0.0000 
     91 CZ         -4.2368   26.3753    6.8834 C.ar      5 PHE5        0.0000 
     92 CZ         -5.0805   27.2497    7.7629 C.ar      5 PHE5        0.0000 
     93 CA         -3.1837   23.4082    5.7271 C.3       6 GLY6        0.0000 
     94 DU         -4.0274   24.2826    6.6066 H         7 CUB7        0.0000 
     95 CZ         -4.8711   25.1570    7.4862 C.ar      5 PHE5        0.0000 
     96 CA         -3.8180   22.1898    6.3299 C.3       6 GLY6        0.0000 
     97 CZ         -4.6616   23.0643    7.2095 C.ar      5 PHE5        0.0000 
     98 CZ         -5.5053   23.9387    8.0890 C.ar      5 PHE5        0.0000 
     99 CA         -4.4522   20.9715    6.9328 C.3       6 GLY6        0.0000 
    100 CZ         -5.2959   21.8459    7.8123 C.ar      5 PHE5        0.0000 
    101 CA         -5.0864   19.7532    7.5356 C.3       6 GLY6        0.0000 
    102 CA         -5.9301   20.6276    8.4152 C.3       6 GLY6        0.0000 
    103 CZ         -6.7738   21.5020    9.2947 C.ar      5 PHE5        0.0000 
    104 OD1        -2.3274   25.4681    7.0588 O.3       3 ASP3        0.0000 
    105 OD1        -2.1179   23.3753    6.7820 O.3       3 ASP3        0.0000 
    106 CZ         -2.9616   24.2498    7.6616 C.ar      5 PHE5        0.0000 
    107 NZ         -2.7522   22.1570    7.3849 N.2       4 LYS4        0.0000 
    108 CZ         -3.5958   23.0314    8.2644 C.ar      5 PHE5        0.0000 
    109 NZ         -3.3864   20.9387    7.9877 N.2       4 LYS4        0.0000 
    110 N          -4.2301   21.8131    8.8673 N.2       2 ALA2        0.0000 
@<TRIPOS>BOND
@<TRIPOS>SUBSTRUCTURE
     1 SER1        1 GROUP   
     2 ALA2       21 GROUP   
     3 ASP3       85 GROUP   
     4 LYS4       50 GROUP   
     5 PHE5        5 GROUP   
     6 GLY6        4 GROUP   
     7 CUB7        9 GROUP   
@<TRIPOS>SET

