#    Name: 4pah_LNR_1_ligand
#    Modification time : Tue Mar 25 13:39:37 2014

@<TRIPOS>MOLECULE
4pah_LNR_1_ligand
   22    22     1     0     0
SMALL
NO_CHARGES


@<TRIPOS>ATOM
      1 C7         -6.3790   25.0020    3.8370 C.3       1 LNR600      0.0000 
      2 C1         -5.0570   25.2810    4.6450 C.ar      1 LNR600      0.0000 
      3 C4         -2.7320   25.7230    6.2490 C.ar      1 LNR600      0.0000 
      4 C2         -3.7320   24.9340    4.1190 C.ar      1 LNR600      0.0000 
      5 C6         -5.1680   25.8490    5.9760 C.ar      1 LNR600      0.0000 
      6 C5         -4.0170   26.0670    6.7600 C.ar      1 LNR600      0.0000 
      7 C3         -2.5670   25.1570    4.9300 C.ar      1 LNR600      0.0000 
      8 O1         -1.2650   24.8400    4.5210 O.3       1 LNR600      0.0000 
      9 O2         -1.6470   25.9260    7.0350 O.3       1 LNR600      0.0000 
     10 O3         -6.1060   24.4380    2.5420 O.3       1 LNR600      0.0000 
     11 C8         -7.2680   26.3100    3.7100 C.3       1 LNR600      0.0000 
     12 N1         -7.5700   26.8780    5.0620 N.4       1 LNR600      0.0000 
     13 H          -6.9701   24.2964    4.4441 H         1 LNR600      0.0000 
     14 H          -3.6540   24.5439    3.1966 H         1 LNR600      0.0000 
     15 H          -6.0936   26.0860    6.3302 H         1 LNR600      0.0000 
     16 H          -4.0966   26.4701    7.6927 H         1 LNR600      0.0000 
     17 H          -8.1814   26.0323    3.1929 H         1 LNR600      0.0000 
     18 H          -6.7137   27.0213    3.1053 H         1 LNR600      0.0000 
     19 H          -6.7362   27.1249    5.5558 H         1 LNR600      0.0000 
     20 H          -8.1301   27.7042    5.0011 H         1 LNR600      0.0000 
     21 H          -8.0684   26.2276    5.6352 H         1 LNR600      0.0000 
     22 H          -5.9334   24.0582    3.4509 H         1 LNR600      0.0000 
@<TRIPOS>BOND
     1    2    1 1    
     2   10    1 1    
     3   11    1 1    
     4   13    1 1    
     5    4    2 ar   
     6    5    2 ar   
     7    6    3 ar   
     8    7    3 ar   
     9    9    3 1    
    10    7    4 ar   
    11   14    4 1    
    12    6    5 ar   
    13   15    5 1    
    14   16    6 1    
    15    8    7 1    
    16   22   10 1    
    17   12   11 1    
    18   17   11 1    
    19   18   11 1    
    20   19   12 1    
    21   20   12 1    
    22   21   12 1    
@<TRIPOS>SUBSTRUCTURE
     1 LNR600      1 GROUP   
@<TRIPOS>SET

