#    Name: 4bus_32F_1_INTS_M
#    Modification time : Tue Mar 25 08:24:57 2014

@<TRIPOS>MOLECULE
4bus_32F_1_INTS_M
   46     0     9     0     0
SMALL
NO_CHARGES


@<TRIPOS>ATOM
      1 CA        -38.3175   -9.0790    4.9965 C.3       3 GLC5        0.0000 
      2 CA        -39.2420  -10.5480    5.5190 C.3       9 GLL5        0.0000 
      3 CA        -37.3930   -7.6100    4.4740 C.3       6 GLP5        0.0000 
      4 O         -36.6030  -10.3955   12.2950 O.2       1 ALC1        0.0000 
      5 O         -37.7210  -11.0870   12.7640 O.2       7 ALL1        0.0000 
      6 O         -35.4850   -9.7040   11.8260 O.2       4 ALP1        0.0000 
      7 N         -35.9335   -9.8085   14.6225 N.am      2 SEC2        0.0000 
      8 N         -36.9970  -10.7320   14.8740 N.am      8 SEL2        0.0000 
      9 N         -34.8700   -8.8850   14.3710 N.am      5 SEP2        0.0000 
     10 N         -36.3360  -10.7285   16.1710 N.am      2 SEC2        0.0000 
     11 N         -35.6750  -10.7250   17.4680 N.am      5 SEP2        0.0000 
     12 CA        -39.6970  -10.9620   16.8040 C.3       3 GLC5        0.0000 
     13 CA        -38.7870  -12.6750   15.9270 C.3       9 GLL5        0.0000 
     14 CA        -40.6070   -9.2490   17.6810 C.3       6 GLP5        0.0000 
     15 CA        -36.5725  -12.5735   16.1775 C.3       3 GLC5        0.0000 
     16 CA        -34.3580  -12.4720   16.4280 C.3       6 GLP5        0.0000 
     17 CA        -40.5750  -14.5820   18.0620 C.3       3 GLC5        0.0000 
     18 CA        -39.6720  -13.6890   16.3150 C.3       9 GLL5        0.0000 
     19 CA        -41.4780  -15.4750   19.8090 C.3       6 GLP5        0.0000 
     20 CA        -38.9240  -15.6110   16.1740 C.3       3 GLC5        0.0000 
     21 CA        -40.4000  -14.3810   15.3520 C.3       9 GLL5        0.0000 
     22 CA        -37.4480  -16.8410   16.9960 C.3       6 GLP5        0.0000 
     23 CA        -40.4770  -11.9533   14.6178 C.3       3 GLC5        0.0000 
     24 CA        -38.6770  -12.3520   14.5720 C.3       9 GLL5        0.0000 
     25 CA        -42.2220  -11.3930   13.9860 C.3       6 GLP5        0.0000 
     26 CA        -38.5978  -12.8230   17.9100 C.3       3 GLC5        0.0000 
     27 CA        -37.9660  -12.4640   19.6990 C.3       6 GLP5        0.0000 
     28 CA        -38.2843  -14.4505   17.0700 C.3       3 GLC5        0.0000 
     29 CA        -37.3390  -15.7190   18.0190 C.3       6 GLP5        0.0000 
     30 CA        -41.1290  -12.7140   14.9098 C.3       3 GLC5        0.0000 
     31 CA        -41.0595  -12.4827   13.8863 C.3       3 GLC5        0.0000 
     32 CA        -40.3220  -14.0710   14.0020 C.3       9 GLL5        0.0000 
     33 CA        -38.6525  -13.6723    7.6180 C.3       3 GLC5        0.0000 
     34 CA        -39.0300  -12.2670    9.4620 C.3       9 GLL5        0.0000 
     35 CA        -38.2940  -15.2950    6.4400 C.3       6 GLP5        0.0000 
     36 CA        -36.2505   -9.9677    7.6330 C.3       3 GLC5        0.0000 
     37 CA        -38.4110  -10.6000    7.7990 C.3       9 GLL5        0.0000 
     38 CA        -34.3430   -9.7450    6.9830 C.3       6 GLP5        0.0000 
     39 CA        -36.5533   -8.6310    9.5780 C.3       3 GLC5        0.0000 
     40 CA        -37.9050   -9.7810    8.7670 C.3       9 GLL5        0.0000 
     41 CA        -35.1800   -7.2840    9.7350 C.3       6 GLP5        0.0000 
     42 CA        -40.6950  -12.0519    9.3500 C.3       3 GLC5        0.0000 
     43 CA        -38.4790  -11.4260   10.4500 C.3       9 GLL5        0.0000 
     44 CA        -42.6450  -12.3660    9.0770 C.3       6 GLP5        0.0000 
     45 CA        -36.6268  -11.9407   10.8352 C.3       3 GLC5        0.0000 
     46 CA        -35.0400  -13.0810   11.4080 C.3       6 GLP5        0.0000 
@<TRIPOS>BOND
@<TRIPOS>SUBSTRUCTURE
     1 ALC1        4 GROUP        1 X    ALC  0     ROOT ALC X 1
     2 SEC2        7 GROUP        1 X    SEC  0     **** SEC X 2
     3 GLC5        1 GROUP        1 X    GLC  0     **** GLC X 6
     4 ALP1        6 GROUP        1 Y    ALP  0     ROOT ALP Y 8
     5 SEP2        9 GROUP        1 Y    SEP  0     **** SEP Y 9
     6 GLP5        3 GROUP        1 Y    GLP  0     **** GLP Y 13
     7 ALL1        5 GROUP        1 Z    ALL  0     ROOT ALL Z 15
     8 SEL2        8 GROUP        1 Z    SEL  0     **** SEL Z 16
     9 GLL5        2 GROUP        1 Z    GLL  0     **** GLL Z 20
@<TRIPOS>SET

