#    Name: 4bus_32F_1_ligand
#    Modification time : Tue Mar 25 08:24:57 2014

@<TRIPOS>MOLECULE
4bus_32F_1_ligand
   33    35     1     0     0
SMALL
NO_CHARGES


@<TRIPOS>ATOM
      1 O22       -37.2030  -11.8580    5.1330 O.co2     1 32F3165     0.0000 
      2 C20       -38.4420  -11.5510    4.7520 C.2       1 32F3165     0.0000 
      3 O21       -38.9280  -12.0560    3.7700 O.co2     1 32F3165     0.0000 
      4 C18       -39.2420  -10.5480    5.5190 C.3       1 32F3165     0.0000 
      5 C8        -38.5230  -11.7690   11.8870 C.2       1 32F3165     0.0000 
      6 N11       -37.7210  -11.0870   12.7640 N.am      1 32F3165     0.0000 
      7 C10       -37.7420  -11.3280   14.0740 C.2       1 32F3165     0.0000 
      8 O19       -36.9970  -10.7320   14.8740 O.2       1 32F3165     0.0000 
      9 C12       -38.6770  -12.3520   14.5720 C.ar      1 32F3165     0.0000 
     10 C17       -38.7870  -12.6750   15.9270 C.ar      1 32F3165     0.0000 
     11 C16       -39.6720  -13.6890   16.3150 C.ar      1 32F3165     0.0000 
     12 C15       -40.4000  -14.3810   15.3520 C.ar      1 32F3165     0.0000 
     13 C14       -40.3220  -14.0710   14.0020 C.ar      1 32F3165     0.0000 
     14 C13       -39.4720  -13.0740   13.5710 C.ar      1 32F3165     0.0000 
     15 N9        -39.3900  -12.7470   12.2710 N.2       1 32F3165     0.0000 
     16 C3        -39.0300  -12.2670    9.4620 C.ar      1 32F3165     0.0000 
     17 C2        -38.9920  -11.8320    8.1300 C.ar      1 32F3165     0.0000 
     18 C1        -38.4110  -10.6000    7.7990 C.ar      1 32F3165     0.0000 
     19 C4        -37.9050   -9.7810    8.7670 C.ar      1 32F3165     0.0000 
     20 O2        -38.3360  -10.1070    6.5130 O.3       1 32F3165     0.0000 
     21 C5        -38.4790  -11.4260   10.4500 C.ar      1 32F3165     0.0000 
     22 C6        -37.9480  -10.1750   10.0750 C.ar      1 32F3165     0.0000 
     23 H         -40.1021  -11.0362    5.9405 H         1 32F3165     0.0000 
     24 H         -39.5356   -9.7547    4.8556 H         1 32F3165     0.0000 
     25 H         -37.0726  -10.3515   12.3737 H         1 32F3165     0.0000 
     26 H         -38.2320  -12.1809   16.6241 H         1 32F3165     0.0000 
     27 H         -39.7804  -13.9182   17.3091 H         1 32F3165     0.0000 
     28 H         -41.0254  -15.1594   15.6574 H         1 32F3165     0.0000 
     29 H         -40.9010  -14.5880   13.3237 H         1 32F3165     0.0000 
     30 H         -39.4392  -13.1559    9.7102 H         1 32F3165     0.0000 
     31 H         -39.3938  -12.4217    7.3893 H         1 32F3165     0.0000 
     32 H         -37.4917   -8.8682    8.5129 H         1 32F3165     0.0000 
     33 H         -37.5857   -9.5516   10.8240 H         1 32F3165     0.0000 
@<TRIPOS>BOND
     1    2    1 ar   
     2    3    2 ar   
     3    4    2 1    
     4   20    4 1    
     5   23    4 1    
     6   24    4 1    
     7    6    5 1    
     8   15    5 2    
     9   21    5 1    
    10    7    6 am   
    11   25    6 1    
    12    8    7 2    
    13    9    7 1    
    14   10    9 ar   
    15   14    9 ar   
    16   11   10 ar   
    17   26   10 1    
    18   12   11 ar   
    19   27   11 1    
    20   13   12 ar   
    21   28   12 1    
    22   14   13 ar   
    23   29   13 1    
    24   15   14 1    
    25   17   16 ar   
    26   21   16 ar   
    27   30   16 1    
    28   18   17 ar   
    29   31   17 1    
    30   19   18 ar   
    31   20   18 1    
    32   22   19 ar   
    33   32   19 1    
    34   22   21 ar   
    35   33   22 1    
@<TRIPOS>SUBSTRUCTURE
     1 32F3165     1 GROUP   
@<TRIPOS>SET

