#    Name: 2f3m_GTD_1_INTS_M
#    Modification time : Tue Mar 25 12:17:12 2014

@<TRIPOS>MOLECULE
2f3m_GTD_1_INTS_M
   48     0    15     0     0
SMALL
NO_CHARGES


@<TRIPOS>ATOM
      1 OD1        -5.2625   -1.4505   -1.4040 O.co2     3 ASC3        0.0000 
      2 OD1        -5.6050   -2.7890   -0.1590 O.co2    13 ASL3        0.0000 
      3 OD1        -4.9200   -0.1120   -2.6490 O.co2     8 ASP3        0.0000 
      4 OD1        -6.2275   -1.7305   -0.9380 O.co2     3 ASC3        0.0000 
      5 OD1        -6.8500   -0.6720   -1.7170 O.co2     8 ASP3        0.0000 
      6 O          -5.8970   -1.9890    0.9560 O.2       1 ALC1        0.0000 
      7 O          -5.6050   -2.7890   -0.1590 O.2      11 ALL1        0.0000 
      8 O          -6.1890   -1.1890    2.0710 O.2       6 ALP1        0.0000 
      9 O          -6.2275   -1.7305   -0.9380 O.2       1 ALC1        0.0000 
     10 O          -6.8500   -0.6720   -1.7170 O.2       6 ALP1        0.0000 
     11 N          -6.4975   -4.5940    3.5285 N.am      2 SEC2        0.0000 
     12 N          -6.9060   -4.8800    2.2870 N.am     12 SEL2        0.0000 
     13 N          -6.0890   -4.3080    4.7700 N.am      7 SEP2        0.0000 
     14 N          -5.4800   -4.4090    3.1870 N.am      2 SEC2        0.0000 
     15 N          -4.8710   -4.5100    1.6040 N.am     12 SEL2        0.0000 
     16 N          -4.1695   -5.1790    2.7775 N.am      2 SEC2        0.0000 
     17 N          -3.4680   -5.8480    3.9510 N.am      7 SEP2        0.0000 
     18 O          -9.7555   -7.1840   -0.3030 O.2       1 ALC1        0.0000 
     19 O          -9.4440   -7.0830   -1.6720 O.2      11 ALL1        0.0000 
     20 O         -10.0670   -7.2850    1.0660 O.2       6 ALP1        0.0000 
     21 N         -12.3420  -10.4195   -2.4470 N.am      2 SEC2        0.0000 
     22 N         -12.0330   -9.0090   -2.8000 N.am     12 SEL2        0.0000 
     23 N         -12.6510  -11.8300   -2.0940 N.am      7 SEP2        0.0000 
     24 CA        -10.5960  -10.9885   -2.0450 C.3       5 GLC5        0.0000 
     25 CA         -9.3390   -9.2550   -2.6690 C.3      15 GLL5        0.0000 
     26 CA        -11.8530  -12.7220   -1.4210 C.3      10 GLP5        0.0000 
     27 CA         -6.4915   -8.7030   -1.4835 C.3       5 GLC5        0.0000 
     28 CA         -7.5910   -9.1490   -2.7420 C.3      15 GLL5        0.0000 
     29 CA         -5.3920   -8.2570   -0.2250 C.3      10 GLP5        0.0000 
     30 CA        -15.3430   -7.3240   -0.9925 C.3       5 GLC5        0.0000 
     31 CA        -13.5140   -6.8840   -2.1190 C.3      15 GLL5        0.0000 
     32 CA        -17.1720   -7.7640    0.1340 C.3      10 GLP5        0.0000 
     33 CA        -13.5975   -5.5850   -0.3245 C.3       5 GLC5        0.0000 
     34 CA        -13.6810   -4.2860    1.4700 C.3      10 GLP5        0.0000 
     35 CA        -13.0755   -7.8580   -0.3275 C.3       5 GLC5        0.0000 
     36 CA        -12.6370   -8.8320    1.4640 C.3      10 GLP5        0.0000 
     37 NZ        -15.3480   -4.3615   -3.1555 N.4       4 LYC4        0.0000 
     38 NZ        -13.6150   -4.7950   -3.2000 N.4      14 LYL4        0.0000 
     39 NZ        -17.0810   -3.9280   -3.1110 N.4       9 LYP4        0.0000 
     40 NZ        -16.2945   -4.8640   -2.9555 N.4       4 LYC4        0.0000 
     41 NZ        -15.5080   -5.8000   -2.8000 N.4      14 LYL4        0.0000 
     42 N         -16.2235   -6.8845   -2.0010 N.am      2 SEC2        0.0000 
     43 N         -15.5080   -5.8000   -2.8000 N.am     12 SEL2        0.0000 
     44 N         -16.9390   -7.9690   -1.2020 N.am      7 SEP2        0.0000 
     45 N         -16.2945   -4.8640   -2.9555 N.am      2 SEC2        0.0000 
     46 N         -17.0810   -3.9280   -3.1110 N.am      7 SEP2        0.0000 
     47 CA         -6.5085   -6.6065   -0.4785 C.3       5 GLC5        0.0000 
     48 CA         -8.3260   -5.2330   -0.6700 C.3      15 GLL5        0.0000 
@<TRIPOS>BOND
@<TRIPOS>SUBSTRUCTURE
     1 ALC1        6 GROUP        1 X    ALC  0     ROOT ALC X 1
     2 SEC2       11 GROUP        1 X    SEC  0     **** SEC X 2
     3 ASC3        1 GROUP        1 X    ASC  0     **** ASC X 3
     4 LYC4       37 GROUP        1 X    LYC  0     **** LYC X 4
     5 GLC5       24 GROUP        1 X    GLC  0     **** GLC X 6
     6 ALP1        8 GROUP        1 Y    ALP  0     ROOT ALP Y 8
     7 SEP2       13 GROUP        1 Y    SEP  0     **** SEP Y 9
     8 ASP3        3 GROUP        1 Y    ASP  0     **** ASP Y 10
     9 LYP4       39 GROUP        1 Y    LYP  0     **** LYP Y 11
    10 GLP5       26 GROUP        1 Y    GLP  0     **** GLP Y 13
    11 ALL1        7 GROUP        1 Z    ALL  0     ROOT ALL Z 15
    12 SEL2       12 GROUP        1 Z    SEL  0     **** SEL Z 16
    13 ASL3        2 GROUP        1 Z    ASL  0     **** ASL Z 17
    14 LYL4       38 GROUP        1 Z    LYL  0     **** LYL Z 18
    15 GLL5       25 GROUP        1 Z    GLL  0     **** GLL Z 20
@<TRIPOS>SET

