#    Name: 2f3m_GTD_1_ligand
#    Modification time : Tue Mar 25 12:17:12 2014

@<TRIPOS>MOLECULE
2f3m_GTD_1_ligand
   54    54     1     0     0
SMALL
NO_CHARGES


@<TRIPOS>ATOM
      1 N1         -5.6050   -2.7890   -0.1590 N.4       1 GTD1218     0.0000 
      2 CA1        -6.6330   -3.6820    0.3060 C.3       1 GTD1218     0.0000 
      3 C1         -6.0970   -4.4080    1.4810 C.2       1 GTD1218     0.0000 
      4 O11        -6.9060   -4.8800    2.2870 O.co2     1 GTD1218     0.0000 
      5 O12        -4.8710   -4.5100    1.6040 O.co2     1 GTD1218     0.0000 
      6 CB1        -6.9240   -4.6790   -0.7940 C.3       1 GTD1218     0.0000 
      7 CG1        -8.3260   -5.2330   -0.6700 C.3       1 GTD1218     0.0000 
      8 CD1        -8.6490   -6.0550   -1.8830 C.2       1 GTD1218     0.0000 
      9 OE1        -8.2020   -5.7680   -2.9720 O.2       1 GTD1218     0.0000 
     10 N2         -9.4440   -7.0830   -1.6720 N.am      1 GTD1218     0.0000 
     11 CA2        -9.9670   -7.8760   -2.7520 C.3       1 GTD1218     0.0000 
     12 C2        -11.4590   -7.9590   -2.6770 C.2       1 GTD1218     0.0000 
     13 O2        -12.0330   -9.0090   -2.8000 O.2       1 GTD1218     0.0000 
     14 CB2        -9.3390   -9.2550   -2.6690 C.3       1 GTD1218     0.0000 
     15 SG2        -7.5910   -9.1490   -2.7420 S.3       1 GTD1218     0.0000 
     16 N3        -12.1170   -6.8410   -2.4630 N.am      1 GTD1218     0.0000 
     17 CA3       -13.5140   -6.8840   -2.1190 C.3       1 GTD1218     0.0000 
     18 C3        -14.2670   -5.7510   -2.7530 C.2       1 GTD1218     0.0000 
     19 O31       -13.6150   -4.7950   -3.2000 O.co2     1 GTD1218     0.0000 
     20 O32       -15.5080   -5.8000   -2.8000 O.co2     1 GTD1218     0.0000 
     21 C1'        -7.2100   -9.9630   -4.2530 C.3       1 GTD1218     0.0000 
     22 C2'        -5.8600  -10.6080   -4.1470 C.2       1 GTD1218     0.0000 
     23 N2'        -5.7270  -11.8950   -3.5080 N.pl3     1 GTD1218     0.0000 
     24 O21        -6.7140  -12.5340   -3.4150 O.2       1 GTD1218     0.0000 
     25 O22        -4.6950  -12.2090   -2.9550 O.2       1 GTD1218     0.0000 
     26 C3'        -4.7610  -10.0410   -4.6540 C.2       1 GTD1218     0.0000 
     27 C4'        -4.8910   -9.3570   -5.9870 C.3       1 GTD1218     0.0000 
     28 N4'        -3.7760   -8.7430   -6.3710 N.pl3     1 GTD1218     0.0000 
     29 O41        -2.8540   -8.6020   -5.5870 O.2       1 GTD1218     0.0000 
     30 O42        -3.6680   -8.3330   -7.5120 O.2       1 GTD1218     0.0000 
     31 C5'        -6.1090   -8.4740   -5.8860 C.2       1 GTD1218     0.0000 
     32 C6'        -7.2340   -9.0550   -5.4530 C.2       1 GTD1218     0.0000 
     33 N6'        -8.4610   -8.8600   -6.2130 N.pl3     1 GTD1218     0.0000 
     34 O61        -8.9150   -9.7830   -6.8640 O.2       1 GTD1218     0.0000 
     35 O62        -9.0340   -7.7860   -6.2290 O.2       1 GTD1218     0.0000 
     36 H          -7.5163   -3.1653    0.5604 H         1 GTD1218     0.0000 
     37 H          -6.2039   -5.4997   -0.7388 H         1 GTD1218     0.0000 
     38 H          -6.8123   -4.1897   -1.7652 H         1 GTD1218     0.0000 
     39 H          -9.0320   -4.4098   -0.5838 H         1 GTD1218     0.0000 
     40 H          -8.3910   -5.8516    0.2226 H         1 GTD1218     0.0000 
     41 H          -9.7348   -7.3741   -0.7082 H         1 GTD1218     0.0000 
     42 H          -9.6833   -7.4415   -3.7050 H         1 GTD1218     0.0000 
     43 H          -9.5901   -9.8795   -3.5008 H         1 GTD1218     0.0000 
     44 H          -9.5246   -9.7434   -1.7352 H         1 GTD1218     0.0000 
     45 H         -11.6826   -5.9050   -2.5278 H         1 GTD1218     0.0000 
     46 H         -13.6520   -6.8258   -1.0253 H         1 GTD1218     0.0000 
     47 H         -13.9711   -7.8336   -2.4474 H         1 GTD1218     0.0000 
     48 H          -7.9735  -10.7235   -4.3277 H         1 GTD1218     0.0000 
     49 H          -3.8547  -10.0289   -4.2273 H         1 GTD1218     0.0000 
     50 H          -5.1897  -10.1795   -6.6975 H         1 GTD1218     0.0000 
     51 H          -5.9986   -7.5194   -6.1468 H         1 GTD1218     0.0000 
     52 H          -5.3397   -2.1297    0.5445 H         1 GTD1218     0.0000 
     53 H          -4.7770   -3.2824   -0.4255 H         1 GTD1218     0.0000 
     54 H          -5.9023   -2.2634   -0.9561 H         1 GTD1218     0.0000 
@<TRIPOS>BOND
     1    2    1 1    
     2   52    1 1    
     3   53    1 1    
     4   54    1 1    
     5    3    2 1    
     6    6    2 1    
     7   36    2 1    
     8    4    3 ar   
     9    5    3 ar   
    10    7    6 1    
    11   37    6 1    
    12   38    6 1    
    13    8    7 1    
    14   39    7 1    
    15   40    7 1    
    16    9    8 2    
    17   10    8 am   
    18   11   10 1    
    19   41   10 1    
    20   12   11 1    
    21   14   11 1    
    22   42   11 1    
    23   13   12 2    
    24   16   12 am   
    25   15   14 1    
    26   43   14 1    
    27   44   14 1    
    28   21   15 1    
    29   17   16 1    
    30   45   16 1    
    31   18   17 1    
    32   46   17 1    
    33   47   17 1    
    34   19   18 ar   
    35   20   18 ar   
    36   22   21 1    
    37   32   21 1    
    38   48   21 1    
    39   23   22 1    
    40   26   22 2    
    41   24   23 2    
    42   25   23 2    
    43   27   26 1    
    44   49   26 1    
    45   28   27 1    
    46   31   27 1    
    47   50   27 1    
    48   29   28 2    
    49   30   28 2    
    50   32   31 2    
    51   51   31 1    
    52   33   32 1    
    53   34   33 2    
    54   35   33 2    
@<TRIPOS>SUBSTRUCTURE
     1 GTD1218     1 GROUP   
@<TRIPOS>SET

