#    Name: 3k8s_Z27_1_INTS_M
#    Modification time : Mon Mar 24 18:55:02 2014

@<TRIPOS>MOLECULE
3k8s_Z27_1_INTS_M
   98     0     6     0     0
SMALL
NO_CHARGES


@<TRIPOS>ATOM
      1 CA         38.1420    2.4950   41.6345 C.3       2 GLC5        0.0000 
      2 CA         37.9260    1.1620   42.5840 C.3       6 GLL5        0.0000 
      3 CA         38.3580    3.8280   40.6850 C.3       4 GLP5        0.0000 
      4 CA         40.0965    2.9305   44.8225 C.3       2 GLC5        0.0000 
      5 CA         39.9010    0.9710   44.5520 C.3       6 GLL5        0.0000 
      6 CA         40.2920    4.8900   45.0930 C.3       4 GLP5        0.0000 
      7 CA         41.3895    0.9395   42.9215 C.3       2 GLC5        0.0000 
      8 CA         42.8780    0.9080   41.2910 C.3       4 GLP5        0.0000 
      9 CA         41.8260   -2.5785   48.3575 C.3       2 GLC5        0.0000 
     10 CA         41.3140   -2.2100   46.6820 C.3       6 GLL5        0.0000 
     11 CA         42.3380   -2.9470   50.0330 C.3       4 GLP5        0.0000 
     12 CA         42.7725   -1.1540   46.4415 C.3       2 GLC5        0.0000 
     13 CA         44.2310   -0.0980   46.2010 C.3       4 GLP5        0.0000 
     14 CA         42.0810   -2.2155   44.8370 C.3       2 GLC5        0.0000 
     15 CA         42.8480   -2.2210   42.9920 C.3       4 GLP5        0.0000 
     16 CA         37.6090    2.5005   38.6590 C.3       2 GLC5        0.0000 
     17 CA         35.9210    1.6230   38.1100 C.3       6 GLL5        0.0000 
     18 CA         39.2970    3.3780   39.2080 C.3       4 GLP5        0.0000 
     19 CA         33.2730    1.8305   43.9405 C.3       2 GLC5        0.0000 
     20 CA         34.4450    1.7890   42.4850 C.3       6 GLL5        0.0000 
     21 CA         32.1010    1.8720   45.3960 C.3       4 GLP5        0.0000 
     22 CA         33.0485    2.9260   42.2535 C.3       2 GLC5        0.0000 
     23 CA         31.6520    4.0630   42.0220 C.3       4 GLP5        0.0000 
     24 CA         33.6355    0.2050   40.2875 C.3       2 GLC5        0.0000 
     25 CA         35.7600    0.5090   40.3410 C.3       6 GLL5        0.0000 
     26 CA         31.5110   -0.0990   40.2340 C.3       4 GLP5        0.0000 
     27 CA         38.0285    1.2335   39.1180 C.3       2 GLC5        0.0000 
     28 CA         36.1990    0.5090   38.9690 C.3       6 GLL5        0.0000 
     29 CA         39.8580    1.9580   39.2670 C.3       4 GLP5        0.0000 
     30 N          33.3665    7.4145   36.3560 N.am      1 SEC2        0.0000 
     31 N          34.3800    6.4590   37.0460 N.am      5 SEL2        0.0000 
     32 N          32.3530    8.3700   35.6660 N.am      3 SEP2        0.0000 
     33 CA         36.2155    6.8970   43.7170 C.3       2 GLC5        0.0000 
     34 CA         36.4380    7.2070   41.5070 C.3       6 GLL5        0.0000 
     35 CA         35.9930    6.5870   45.9270 C.3       4 GLP5        0.0000 
     36 CA         39.4420   11.0330   42.3890 C.3       2 GLC5        0.0000 
     37 CA         38.5980    9.5270   41.9850 C.3       6 GLL5        0.0000 
     38 CA         40.2860   12.5390   42.7930 C.3       4 GLP5        0.0000 
     39 CA         39.4100    6.3095   44.1940 C.3       2 GLC5        0.0000 
     40 CA         38.5280    7.7290   43.2950 C.3       6 GLL5        0.0000 
     41 CA         37.2605    7.1580   44.6110 C.3       2 GLC5        0.0000 
     42 CA         40.8285    6.7855   43.3970 C.3       2 GLC5        0.0000 
     43 CA         40.0500    7.9080   41.7020 C.3       6 GLL5        0.0000 
     44 CA         41.6070    5.6630   45.0920 C.3       4 GLP5        0.0000 
     45 CA         40.1640    6.7090   40.1950 C.3       2 GLC5        0.0000 
     46 CA         38.0810    7.2050   39.6730 C.3       6 GLL5        0.0000 
     47 CA         42.2470    6.2130   40.7170 C.3       4 GLP5        0.0000 
     48 CA         39.3595    7.1520   37.0005 C.3       2 GLC5        0.0000 
     49 CA         37.5910    6.2260   37.1440 C.3       6 GLL5        0.0000 
     50 CA         41.1280    8.0780   36.8570 C.3       4 GLP5        0.0000 
     51 CA         38.4440    4.8020   38.1760 C.3       2 GLC5        0.0000 
     52 CA         37.0835    8.2780   37.1640 C.3       2 GLC5        0.0000 
     53 CA         36.5760   10.3300   37.1840 C.3       4 GLP5        0.0000 
     54 CA         40.9145   -1.8385   43.6170 C.3       2 GLC5        0.0000 
     55 CA         38.6050   -1.0490   43.7730 C.3       6 GLL5        0.0000 
     56 CA         39.0155   -2.2390   42.3265 C.3       2 GLC5        0.0000 
     57 CA         39.3570   -1.8630   44.7110 C.3       6 GLL5        0.0000 
     58 CA         39.0500   -3.0220   40.4110 C.3       4 GLP5        0.0000 
     59 CA         37.4255   -1.9055   45.3050 C.3       2 GLC5        0.0000 
     60 CA         35.8700   -2.3550   46.3680 C.3       4 GLP5        0.0000 
     61 CA         41.6700   -1.3820   44.2422 C.3       2 GLC5        0.0000 
     62 CA         40.3670   -1.2400   45.5330 C.3       6 GLL5        0.0000 
     63 CA         39.0712   -1.5595   47.1638 C.3       2 GLC5        0.0000 
     64 CA         37.3020   -1.3940   48.2200 C.3       4 GLP5        0.0000 
     65 CA         39.3080    1.4603   46.6090 C.3       2 GLC5        0.0000 
     66 CA         40.6170    0.1540   45.4520 C.3       6 GLL5        0.0000 
     67 CA         38.3570    2.3580   48.2160 C.3       4 GLP5        0.0000 
     68 CA         36.6740    3.2935   39.9843 C.3       2 GLC5        0.0000 
     69 CA         35.2080    2.7590   38.6080 C.3       6 GLL5        0.0000 
     70 CA         33.2270    2.3810   39.0607 C.3       2 GLC5        0.0000 
     71 CA         34.7720    2.7590   39.9590 C.3       6 GLL5        0.0000 
     72 CA         31.4640    2.0030   38.8380 C.3       4 GLP5        0.0000 
     73 CA         33.2775    3.1390   41.2065 C.3       2 GLC5        0.0000 
     74 CA         36.8775    2.4590   40.6335 C.3       2 GLC5        0.0000 
     75 CA         35.0340    1.6710   40.8230 C.3       6 GLL5        0.0000 
     76 CA         33.1253    0.8155   40.9440 C.3       2 GLC5        0.0000 
     77 CA         37.3042   -1.1911   39.4543 C.3       2 GLC5        0.0000 
     78 CA         36.0520   -0.6120   41.1990 C.3       6 GLL5        0.0000 
     79 CA         38.5560   -2.6110   39.0390 C.3       4 GLP5        0.0000 
     80 CA         37.0062    5.1418   40.3418 C.3       2 GLC5        0.0000 
     81 CA         35.8240    6.3010   39.3290 C.3       6 GLL5        0.0000 
     82 CA         35.7662    8.4752   39.7957 C.3       2 GLC5        0.0000 
     83 CA         35.8780   10.4950   39.5930 C.3       4 GLP5        0.0000 
     84 CA         34.3357    7.4523   41.7578 C.3       2 GLC5        0.0000 
     85 CA         35.4850    6.6100   40.6680 C.3       6 GLL5        0.0000 
     86 CA         32.7100    7.9960   42.4280 C.3       4 GLP5        0.0000 
     87 CA         37.7252    5.5955   40.9778 C.3       2 GLC5        0.0000 
     88 CA         36.4853    8.9290   40.4318 C.3       2 GLC5        0.0000 
     89 CA         37.7470    7.5190   41.0340 C.3       6 GLL5        0.0000 
     90 CA         40.8237    7.1275   41.2880 C.3       2 GLC5        0.0000 
     91 CA         38.7510    8.1760   42.0160 C.3       6 GLL5        0.0000 
     92 CA         40.6672    9.6545   41.6225 C.3       2 GLC5        0.0000 
     93 CA         41.9340   11.2670   41.3860 C.3       4 GLP5        0.0000 
     94 CA         37.2762    9.6732   40.7968 C.3       2 GLC5        0.0000 
     95 CA         38.6561    9.0041   44.4354 C.3       2 GLC5        0.0000 
     96 CA         38.7110    9.7180   46.2230 C.3       4 GLP5        0.0000 
     97 CA         37.9808    5.3652   39.9638 C.3       2 GLC5        0.0000 
     98 CA         36.7407    8.6988   39.4177 C.3       2 GLC5        0.0000 
@<TRIPOS>BOND
@<TRIPOS>SUBSTRUCTURE
     1 SEC2       30 GROUP        1 X    SEC  0     ROOT SEC X 2
     2 GLC5        1 GROUP        1 X    GLC  0     **** GLC X 6
     3 SEP2       32 GROUP        1 Y    SEP  0     ROOT SEP Y 9
     4 GLP5        3 GROUP        1 Y    GLP  0     **** GLP Y 13
     5 SEL2       31 GROUP        1 Z    SEL  0     ROOT SEL Z 16
     6 GLL5        2 GROUP        1 Z    GLL  0     **** GLL Z 20
@<TRIPOS>SET

