#    Name: 3k8s_Z27_1_ligand
#    Modification time : Mon Mar 24 18:55:02 2014

@<TRIPOS>MOLECULE
3k8s_Z27_1_ligand
   43    46     1     0     0
SMALL
NO_CHARGES


@<TRIPOS>ATOM
      1 S1         37.9260    1.1620   42.5840 S.3       1 Z271        0.0000 
      2 C2         37.1170   -0.4420   42.1880 C.2       1 Z271        0.0000 
      3 N3         37.5780   -1.4550   42.8860 N.2       1 Z271        0.0000 
      4 C4         38.6050   -1.0490   43.7730 C.ar      1 Z271        0.0000 
      5 C5         38.8940    0.3660   43.7300 C.ar      1 Z271        0.0000 
      6 C6         39.3570   -1.8630   44.7110 C.ar      1 Z271        0.0000 
      7 C7         40.3670   -1.2400   45.5330 C.ar      1 Z271        0.0000 
      8 C8         40.6170    0.1540   45.4520 C.ar      1 Z271        0.0000 
      9 C9         39.9010    0.9710   44.5520 C.ar      1 Z271        0.0000 
     10 CL10       41.3140   -2.2100   46.6820 Cl        1 Z271        0.0000 
     11 S11        36.0520   -0.6120   41.1990 S.3       1 Z271        0.0000 
     12 C12        35.9210    1.6230   38.1100 C.ar      1 Z271        0.0000 
     13 C13        35.2080    2.7590   38.6080 C.ar      1 Z271        0.0000 
     14 C14        34.7720    2.7590   39.9590 C.ar      1 Z271        0.0000 
     15 C15        35.0340    1.6710   40.8230 C.ar      1 Z271        0.0000 
     16 CL16       34.4450    1.7890   42.4850 Cl        1 Z271        0.0000 
     17 C17        35.7600    0.5090   40.3410 C.ar      1 Z271        0.0000 
     18 C18        36.1990    0.5090   38.9690 C.ar      1 Z271        0.0000 
     19 S19        34.5970    5.5450   38.3200 S.o2      1 Z271        0.0000 
     20 O20        34.3800    6.4590   37.0460 O.2       1 Z271        0.0000 
     21 O21        33.2190    5.5820   39.1120 O.2       1 Z271        0.0000 
     22 N22        34.9120    3.9150   37.7680 N.pl3     1 Z271        0.0000 
     23 C24        35.8240    6.3010   39.3290 C.ar      1 Z271        0.0000 
     24 C25        35.4850    6.6100   40.6680 C.ar      1 Z271        0.0000 
     25 C26        36.4380    7.2070   41.5070 C.ar      1 Z271        0.0000 
     26 C27        37.7470    7.5190   41.0340 C.ar      1 Z271        0.0000 
     27 C28        38.7510    8.1760   42.0160 C.3       1 Z271        0.0000 
     28 F29        38.5980    9.5270   41.9850 F         1 Z271        0.0000 
     29 F30        38.5280    7.7290   43.2950 F         1 Z271        0.0000 
     30 F31        40.0500    7.9080   41.7020 F         1 Z271        0.0000 
     31 C32        38.0810    7.2050   39.6730 C.ar      1 Z271        0.0000 
     32 C33        37.1260    6.6000   38.8120 C.ar      1 Z271        0.0000 
     33 CL34       37.5910    6.2260   37.1440 Cl        1 Z271        0.0000 
     34 H          39.1740   -2.8471   44.7843 H         1 Z271        0.0000 
     35 H          41.3321    0.5724   46.0604 H         1 Z271        0.0000 
     36 H          40.0853    1.9588   44.4805 H         1 Z271        0.0000 
     37 H          36.2327    1.6041   37.1424 H         1 Z271        0.0000 
     38 H          34.2513    3.5742   40.3168 H         1 Z271        0.0000 
     39 H          36.7125   -0.2927   38.6077 H         1 Z271        0.0000 
     40 H          34.8598    3.8796   36.7535 H         1 Z271        0.0000 
     41 H          34.5501    6.3973   41.0164 H         1 Z271        0.0000 
     42 H          36.1981    7.4277   42.4829 H         1 Z271        0.0000 
     43 H          39.0166    7.4214   39.3265 H         1 Z271        0.0000 
@<TRIPOS>BOND
     1    2    1 1    
     2    5    1 1    
     3    3    2 2    
     4   11    2 1    
     5    4    3 1    
     6    5    4 ar   
     7    6    4 ar   
     8    9    5 ar   
     9    7    6 ar   
    10   34    6 1    
    11    8    7 ar   
    12   10    7 1    
    13    9    8 ar   
    14   35    8 1    
    15   36    9 1    
    16   17   11 1    
    17   13   12 ar   
    18   18   12 ar   
    19   37   12 1    
    20   14   13 ar   
    21   22   13 1    
    22   15   14 ar   
    23   38   14 1    
    24   16   15 1    
    25   17   15 ar   
    26   18   17 ar   
    27   39   18 1    
    28   20   19 2    
    29   21   19 2    
    30   22   19 1    
    31   23   19 1    
    32   40   22 1    
    33   24   23 ar   
    34   32   23 ar   
    35   25   24 ar   
    36   41   24 1    
    37   26   25 ar   
    38   42   25 1    
    39   27   26 1    
    40   31   26 ar   
    41   28   27 1    
    42   29   27 1    
    43   30   27 1    
    44   32   31 ar   
    45   43   31 1    
    46   33   32 1    
@<TRIPOS>SUBSTRUCTURE
     1 Z271        1 GROUP   
@<TRIPOS>SET

