#    Name: 3d8b_ADP_2_INTS_M
#    Modification time : Mon Mar 24 22:52:49 2014

@<TRIPOS>MOLECULE
3d8b_ADP_2_INTS_M
   71     0    12     0     0
SMALL
NO_CHARGES


@<TRIPOS>ATOM
      1 NZ        -34.0920    8.1815   -2.9890 N.4       3 LYC4        0.0000 
      2 NZ        -34.6500    7.0920   -2.4500 N.4      11 LYL4        0.0000 
      3 NZ        -33.5340    9.2710   -3.5280 N.4       7 LYP4        0.0000 
      4 N         -34.0300    6.1730   -3.5330 N.am      2 SEC2        0.0000 
      5 N         -34.6500    7.0920   -2.4500 N.am     10 SEL2        0.0000 
      6 N         -33.4100    5.2540   -4.6160 N.am      6 SEP2        0.0000 
      7 N         -33.7780    5.8610   -2.2520 N.am      2 SEC2        0.0000 
      8 N         -32.9060    4.6300   -2.0540 N.am      6 SEP2        0.0000 
      9 N         -33.9690    6.7810   -1.2090 N.am      2 SEC2        0.0000 
     10 N         -33.2880    6.4700    0.0320 N.am      6 SEP2        0.0000 
     11 N         -34.0920    8.1815   -2.9890 N.am      2 SEC2        0.0000 
     12 N         -33.5340    9.2710   -3.5280 N.am      6 SEP2        0.0000 
     13 NZ        -35.2330    8.2970   -3.4775 N.4       3 LYC4        0.0000 
     14 NZ        -36.9320    7.3230   -3.4270 N.4      11 LYL4        0.0000 
     15 N         -36.3480    6.8835   -4.5885 N.am      2 SEC2        0.0000 
     16 N         -36.9320    7.3230   -3.4270 N.am     10 SEL2        0.0000 
     17 N         -35.7640    6.4440   -5.7500 N.am      6 SEP2        0.0000 
     18 N         -36.0530    7.2570    0.5020 N.am      2 SEC2        0.0000 
     19 N         -36.6580    7.5280   -0.8940 N.am     10 SEL2        0.0000 
     20 N         -35.4480    6.9860    1.8980 N.am      6 SEP2        0.0000 
     21 N         -37.3715    7.5045    0.2300 N.am      2 SEC2        0.0000 
     22 N         -38.0850    7.4810    1.3540 N.am      6 SEP2        0.0000 
     23 N         -35.7700    4.3315    1.5905 N.am      2 SEC2        0.0000 
     24 N         -36.0180    4.2280    0.1110 N.am     10 SEL2        0.0000 
     25 N         -35.5220    4.4350    3.0700 N.am      6 SEP2        0.0000 
     26 N         -38.2150    6.1585    0.2395 N.am      2 SEC2        0.0000 
     27 N         -38.3450    4.8360   -0.8750 N.am     10 SEL2        0.0000 
     28 N         -34.5915    4.9895   -2.1115 N.am      2 SEC2        0.0000 
     29 N         -36.2770    5.3490   -2.1690 N.am     10 SEL2        0.0000 
     30 CA        -36.0715    0.7045    0.7760 C.3       4 GLC5        0.0000 
     31 CA        -37.3540    0.4810   -0.7920 C.3      12 GLL5        0.0000 
     32 CA        -34.7890    0.9280    2.3440 C.3       8 GLP5        0.0000 
     33 CA        -35.1230   -0.3430    0.3030 C.3       4 GLC5        0.0000 
     34 CA        -36.6440   -0.8040   -1.1170 C.3      12 GLL5        0.0000 
     35 CA        -33.6020    0.1180    1.7230 C.3       8 GLP5        0.0000 
     36 CA        -36.3675   -0.0310   -4.4050 C.3       4 GLC5        0.0000 
     37 CA        -36.0240   -0.5250   -2.5010 C.3      12 GLL5        0.0000 
     38 CA        -36.7110    0.4630   -6.3090 C.3       8 GLP5        0.0000 
     39 CA        -36.6780   -2.0600   -3.7695 C.3       4 GLC5        0.0000 
     40 CA        -37.3320   -3.5950   -5.0380 C.3       8 GLP5        0.0000 
     41 CA        -32.6815    2.2595   -1.3420 C.3       4 GLC5        0.0000 
     42 CA        -32.4690    0.3640   -2.0030 C.3      12 GLL5        0.0000 
     43 CA        -32.8940    4.1550   -0.6810 C.3       8 GLP5        0.0000 
     44 CA        -30.0595    0.4655    0.2655 C.3       4 GLC5        0.0000 
     45 CA        -31.1550   -0.1060   -1.5660 C.3      12 GLL5        0.0000 
     46 CA        -28.9640    1.0370    2.0970 C.3       8 GLP5        0.0000 
     47 CA        -29.6605   -1.6115   -1.6940 C.3       4 GLC5        0.0000 
     48 CA        -28.1660   -3.1170   -1.8220 C.3       8 GLP5        0.0000 
     49 CA        -31.0815   -1.5585   -3.1985 C.3       4 GLC5        0.0000 
     50 CA        -31.0080   -3.0110   -4.8310 C.3       8 GLP5        0.0000 
     51 O         -28.6510    0.2730   -1.4300 O.2       1 ALC1        0.0000 
     52 O         -30.1150    0.7440   -1.6150 O.2       9 ALL1        0.0000 
     53 O         -27.1870   -0.1980   -1.2450 O.2       5 ALP1        0.0000 
     54 O         -30.4870    2.3320   -2.0465 O.2       1 ALC1        0.0000 
     55 O         -30.8590    3.9200   -2.4780 O.2       5 ALP1        0.0000 
     56 N         -29.8000   -1.6960   -0.4090 N.am      2 SEC2        0.0000 
     57 N         -31.0140   -1.3740   -1.1350 N.am     10 SEL2        0.0000 
     58 N         -28.5860   -2.0180    0.3170 N.am      6 SEP2        0.0000 
     59 CA        -30.8400   -1.7990    0.6365 C.3       4 GLC5        0.0000 
     60 CA        -32.0470   -2.2210   -1.1160 C.3      12 GLL5        0.0000 
     61 CA        -29.6330   -1.3770    2.3890 C.3       8 GLP5        0.0000 
     62 CA        -30.1065   -2.6690   -1.4690 C.3       4 GLC5        0.0000 
     63 CA        -32.8245   -1.0515    0.3035 C.3       4 GLC5        0.0000 
     64 CA        -31.3655   -3.2730   -2.5830 C.3       4 GLC5        0.0000 
     65 CA        -30.6840   -4.3250   -4.0500 C.3       8 GLP5        0.0000 
     66 CA        -37.7435    1.7167   -4.2540 C.3       4 GLC5        0.0000 
     67 CA        -37.8990    0.8830   -2.1690 C.3      12 GLL5        0.0000 
     68 CA        -37.5040    1.7970   -6.2510 C.3       8 GLP5        0.0000 
     69 CA        -32.9840    0.0297   -3.9653 C.3       4 GLC5        0.0000 
     70 CA        -32.9510    0.1730   -5.9570 C.3       8 GLP5        0.0000 
     71 CA        -33.1453   -0.0565   -0.0706 C.3       4 GLC5        0.0000 
@<TRIPOS>BOND
@<TRIPOS>SUBSTRUCTURE
     1 ALC1       51 GROUP        1 X    ALC  0     ROOT ALC X 1
     2 SEC2        4 GROUP        1 X    SEC  0     **** SEC X 2
     3 LYC4        1 GROUP        1 X    LYC  0     **** LYC X 4
     4 GLC5       30 GROUP        1 X    GLC  0     **** GLC X 6
     5 ALP1       53 GROUP        1 Y    ALP  0     ROOT ALP Y 8
     6 SEP2        6 GROUP        1 Y    SEP  0     **** SEP Y 9
     7 LYP4        3 GROUP        1 Y    LYP  0     **** LYP Y 11
     8 GLP5       32 GROUP        1 Y    GLP  0     **** GLP Y 13
     9 ALL1       52 GROUP        1 Z    ALL  0     ROOT ALL Z 15
    10 SEL2        5 GROUP        1 Z    SEL  0     **** SEL Z 16
    11 LYL4        2 GROUP        1 Z    LYL  0     **** LYL Z 18
    12 GLL5       31 GROUP        1 Z    GLL  0     **** GLL Z 20
@<TRIPOS>SET

