#    Name: 3d8b_ADP_2_ligand
#    Modification time : Mon Mar 24 22:52:49 2014

@<TRIPOS>MOLECULE
3d8b_ADP_2_ligand
   39    41     1     0     0
SMALL
NO_CHARGES


@<TRIPOS>ATOM
      1 PB        -36.1330    6.9660   -2.1870 P.3       1 ADP900      0.0000 
      2 O1B       -34.6500    7.0920   -2.4500 O.co2     1 ADP900      0.0000 
      3 O2B       -36.9320    7.3230   -3.4270 O.co2     1 ADP900      0.0000 
      4 O3B       -36.6580    7.5280   -0.8940 O.co2     1 ADP900      0.0000 
      5 PA        -36.9450    4.4010   -1.0520 P.3       1 ADP900      0.0000 
      6 O1A       -36.0180    4.2280    0.1110 O.co2     1 ADP900      0.0000 
      7 O2A       -38.3450    4.8360   -0.8750 O.co2     1 ADP900      0.0000 
      8 O3A       -36.2770    5.3490   -2.1690 O.3       1 ADP900      0.0000 
      9 O5'       -36.8900    3.0160   -1.8770 O.3       1 ADP900      0.0000 
     10 C5'       -38.0670    2.3900   -2.3450 C.3       1 ADP900      0.0000 
     11 C4'       -37.8990    0.8830   -2.1690 C.3       1 ADP900      0.0000 
     12 O4'       -36.9090    0.4100   -3.1180 O.3       1 ADP900      0.0000 
     13 C3'       -37.3540    0.4810   -0.7920 C.3       1 ADP900      0.0000 
     14 O3'       -38.3470    0.3590    0.2440 O.3       1 ADP900      0.0000 
     15 C2'       -36.6440   -0.8040   -1.1170 C.3       1 ADP900      0.0000 
     16 O2'       -37.5840   -1.8840   -1.2340 O.3       1 ADP900      0.0000 
     17 C1'       -36.0240   -0.5250   -2.5010 C.3       1 ADP900      0.0000 
     18 N9        -34.6490    0.0490   -2.3830 N.pl3     1 ADP900      0.0000 
     19 C8        -34.2910    1.3060   -2.7130 C.2       1 ADP900      0.0000 
     20 N7        -32.9710    1.5040   -2.4960 N.2       1 ADP900      0.0000 
     21 C5        -32.4690    0.3640   -2.0030 C.ar      1 ADP900      0.0000 
     22 C6        -31.1550   -0.1060   -1.5660 C.ar      1 ADP900      0.0000 
     23 N6        -30.1150    0.7440   -1.6150 N.pl3     1 ADP900      0.0000 
     24 N1        -31.0140   -1.3740   -1.1350 N.ar      1 ADP900      0.0000 
     25 C2        -32.0470   -2.2210   -1.1160 C.ar      1 ADP900      0.0000 
     26 N3        -33.2810   -1.8300   -1.5000 N.ar      1 ADP900      0.0000 
     27 C4        -33.5650   -0.5910   -1.9440 C.ar      1 ADP900      0.0000 
     28 H         -38.2460    2.5826   -3.4036 H         1 ADP900      0.0000 
     29 H         -38.9501    2.6936   -1.7813 H         1 ADP900      0.0000 
     30 H         -38.8285    0.3883   -2.3297 H         1 ADP900      0.0000 
     31 H         -36.5819    1.2124   -0.5488 H         1 ADP900      0.0000 
     32 H         -35.8738   -0.9736   -0.4355 H         1 ADP900      0.0000 
     33 H         -36.0043   -1.4474   -3.0391 H         1 ADP900      0.0000 
     34 H         -34.9039    1.9874   -3.0636 H         1 ADP900      0.0000 
     35 H         -30.3143    1.6643   -1.9517 H         1 ADP900      0.0000 
     36 H         -29.2347    0.3802   -1.3104 H         1 ADP900      0.0000 
     37 H         -31.9026   -3.2136   -0.7965 H         1 ADP900      0.0000 
     38 H         -38.9791    1.1179    0.0871 H         1 ADP900      0.0000 
     39 H         -38.3879   -1.5840   -0.7204 H         1 ADP900      0.0000 
@<TRIPOS>BOND
     1    2    1 ar   
     2    3    1 ar   
     3    4    1 ar   
     4    8    1 1    
     5    6    5 ar   
     6    7    5 ar   
     7    8    5 1    
     8    9    5 1    
     9   10    9 1    
    10   11   10 1    
    11   28   10 1    
    12   29   10 1    
    13   12   11 1    
    14   13   11 1    
    15   30   11 1    
    16   17   12 1    
    17   14   13 1    
    18   15   13 1    
    19   31   13 1    
    20   38   14 1    
    21   16   15 1    
    22   17   15 1    
    23   32   15 1    
    24   39   16 1    
    25   18   17 1    
    26   33   17 1    
    27   19   18 1    
    28   27   18 1    
    29   20   19 2    
    30   34   19 1    
    31   21   20 1    
    32   22   21 ar   
    33   27   21 ar   
    34   23   22 1    
    35   24   22 ar   
    36   35   23 1    
    37   36   23 1    
    38   25   24 ar   
    39   26   25 ar   
    40   37   25 1    
    41   27   26 ar   
@<TRIPOS>SUBSTRUCTURE
     1 ADP900      1 GROUP   
@<TRIPOS>SET

