#    Name: 4ftn_2HK_1_INTS_M
#    Modification time : Mon Mar 24 20:45:32 2014

@<TRIPOS>MOLECULE
4ftn_2HK_1_INTS_M
   84     0     9     0     0
SMALL
NO_CHARGES


@<TRIPOS>ATOM
      1 N           5.5650   -3.7515   14.5445 N.am      2 SEC2        0.0000 
      2 N           6.5780   -4.7960   14.9630 N.am      8 SEL2        0.0000 
      3 N           4.5520   -2.7070   14.1260 N.am      5 SEP2        0.0000 
      4 N           7.3935   -4.4365   16.2215 N.am      2 SEC2        0.0000 
      5 N           8.2090   -4.0770   17.4800 N.am      5 SEP2        0.0000 
      6 O           6.2140   -6.0815   14.8595 O.2       1 ALC1        0.0000 
      7 O           6.5780   -4.7960   14.9630 O.2       7 ALL1        0.0000 
      8 O           5.8500   -7.3670   14.7560 O.2       4 ALP1        0.0000 
      9 CA          5.7485   -5.5315   14.7710 C.3       3 GLC5        0.0000 
     10 CA          7.7360   -4.6710   14.2590 C.3       9 GLL5        0.0000 
     11 CA          3.7610   -6.3920   15.2830 C.3       6 GLP5        0.0000 
     12 CA          7.4070   -4.2535   16.3060 C.3       3 GLC5        0.0000 
     13 CA          7.0780   -3.8360   18.3530 C.3       6 GLP5        0.0000 
     14 CA          7.1975   -3.0255   15.8690 C.3       3 GLC5        0.0000 
     15 CA          8.1450   -3.3950   13.9230 C.3       9 GLL5        0.0000 
     16 CA          6.2500   -2.6560   17.8150 C.3       6 GLP5        0.0000 
     17 CA         12.7265   -6.7865   11.2795 C.3       3 GLC5        0.0000 
     18 CA         12.5060   -5.0110   12.2840 C.3       9 GLL5        0.0000 
     19 CA         12.9470   -8.5620   10.2750 C.3       6 GLP5        0.0000 
     20 CA         11.1225   -2.2785    9.6950 C.3       3 GLC5        0.0000 
     21 CA         12.8510   -2.7610   10.7280 C.3       9 GLL5        0.0000 
     22 CA          9.3940   -1.7960    8.6620 C.3       6 GLP5        0.0000 
     23 O          14.3375   -1.2035    8.7530 O.2       1 ALC1        0.0000 
     24 O          15.2620   -2.3520    9.2310 O.2       7 ALL1        0.0000 
     25 O          13.4130   -0.0550    8.2750 O.2       4 ALP1        0.0000 
     26 CA         15.4765   -6.1265    9.6190 C.3       3 GLC5        0.0000 
     27 CA         17.1260   -5.1950   10.7430 C.3       9 GLL5        0.0000 
     28 CA         13.8270   -7.0580    8.4950 C.3       6 GLP5        0.0000 
     29 CA         20.2985   -5.3310   12.5220 C.3       3 GLC5        0.0000 
     30 CA         19.6740   -5.7390   10.5020 C.3       9 GLL5        0.0000 
     31 CA         20.9230   -4.9230   14.5420 C.3       6 GLP5        0.0000 
     32 CA         21.5240   -6.0225   12.7385 C.3       3 GLC5        0.0000 
     33 CA         22.1250   -7.1220   10.9350 C.3       9 GLL5        0.0000 
     34 CA         21.8400   -1.0725    6.9395 C.3       3 GLC5        0.0000 
     35 CA         22.2550   -3.1590    7.3010 C.3       9 GLL5        0.0000 
     36 CA         21.4250    1.0140    6.5780 C.3       6 GLP5        0.0000 
     37 CA         22.3150   -2.4640    9.1975 C.3       3 GLC5        0.0000 
     38 CA         22.3750   -1.7690   11.0940 C.3       6 GLP5        0.0000 
     39 CA         20.9425   -5.2545    6.0565 C.3       3 GLC5        0.0000 
     40 CA         22.6240   -4.1840    6.2590 C.3       9 GLL5        0.0000 
     41 CA         19.2610   -6.3250    5.8540 C.3       6 GLP5        0.0000 
     42 CA          9.3158   -4.8552   15.4328 C.3       3 GLC5        0.0000 
     43 CA          8.5510   -5.7560   13.9600 C.3       9 GLL5        0.0000 
     44 CA         10.4880   -4.4970   16.7560 C.3       6 GLP5        0.0000 
     45 CA          8.5365   -7.1940   12.5440 C.3       3 GLC5        0.0000 
     46 CA          7.9190   -8.7330   11.4520 C.3       6 GLP5        0.0000 
     47 CA          9.2488   -4.4350   11.4028 C.3       3 GLC5        0.0000 
     48 CA          9.7570   -5.5540   13.3120 C.3       9 GLL5        0.0000 
     49 CA          8.5290   -3.9550    9.6780 C.3       6 GLP5        0.0000 
     50 CA         10.2282   -4.7060   14.9417 C.3       3 GLC5        0.0000 
     51 CA         10.1800   -4.2760   12.9430 C.3       9 GLL5        0.0000 
     52 CA          8.2492   -2.5225   12.0862 C.3       3 GLC5        0.0000 
     53 CA          9.3500   -3.2050   13.2780 C.3       9 GLL5        0.0000 
     54 CA          7.7510   -1.7450   10.5720 C.3       6 GLP5        0.0000 
     55 CA          9.6178   -3.8985   15.1783 C.3       3 GLC5        0.0000 
     56 CA         10.0625   -3.7210   10.7737 C.3       3 GLC5        0.0000 
     57 CA         11.4960   -4.0480   12.2710 C.3       9 GLL5        0.0000 
     58 CA         12.4915   -2.5545   13.5203 C.3       3 GLC5        0.0000 
     59 CA         11.6960   -2.9260   11.4680 C.3       9 GLL5        0.0000 
     60 CA         13.3870   -1.6220   15.1710 C.3       6 GLP5        0.0000 
     61 CA         13.7930   -5.6717    9.8220 C.3       3 GLC5        0.0000 
     62 CA         13.6650   -4.8510   11.5430 C.3       9 GLL5        0.0000 
     63 CA         11.7033   -1.1218   11.3205 C.3       3 GLC5        0.0000 
     64 CA         11.1330    0.6000   11.5430 C.3       6 GLP5        0.0000 
     65 CA         14.7450   -2.6301   11.7577 C.3       3 GLC5        0.0000 
     66 CA         16.1850   -1.7370   12.5770 C.3       6 GLP5        0.0000 
     67 CA         14.7912   -5.4348    9.3008 C.3       3 GLC5        0.0000 
     68 CA         15.1360   -3.4630   10.0620 C.3       9 GLL5        0.0000 
     69 CA         13.6855   -3.3474    8.5914 C.3       3 GLC5        0.0000 
     70 CA         13.1270   -3.3430    6.7810 C.3       6 GLP5        0.0000 
     71 CA         19.7777   -5.1190    7.3673 C.3       3 GLC5        0.0000 
     72 CA         19.7110   -3.5570    8.7660 C.3       9 GLL5        0.0000 
     73 CA         17.0430   -4.6612    7.9795 C.3       3 GLC5        0.0000 
     74 CA         17.2630   -3.3850    9.3260 C.3       9 GLL5        0.0000 
     75 CA         16.9490   -5.4120    6.2010 C.3       6 GLP5        0.0000 
     76 CA         17.7550   -6.2550    9.0183 C.3       3 GLC5        0.0000 
     77 CA         18.4820   -5.0430   10.2780 C.3       9 GLL5        0.0000 
     78 CA         17.7060   -7.3910    7.5260 C.3       6 GLP5        0.0000 
     79 CA         16.5013   -3.0668   11.4033 C.3       3 GLC5        0.0000 
     80 CA         18.9853   -6.4750    8.8558 C.3       3 GLC5        0.0000 
     81 CA         21.4749   -3.2075   10.2344 C.3       3 GLC5        0.0000 
     82 CA         20.8550   -5.3790    9.8690 C.3       9 GLL5        0.0000 
     83 CA         21.0587   -2.5882    5.5140 C.3       3 GLC5        0.0000 
     84 CA         19.6780   -1.5050    4.2480 C.3       6 GLP5        0.0000 
@<TRIPOS>BOND
@<TRIPOS>SUBSTRUCTURE
     1 ALC1        6 GROUP        1 X    ALC  0     ROOT ALC X 1
     2 SEC2        1 GROUP        1 X    SEC  0     **** SEC X 2
     3 GLC5        9 GROUP        1 X    GLC  0     **** GLC X 6
     4 ALP1        8 GROUP        1 Y    ALP  0     ROOT ALP Y 8
     5 SEP2        3 GROUP        1 Y    SEP  0     **** SEP Y 9
     6 GLP5       11 GROUP        1 Y    GLP  0     **** GLP Y 13
     7 ALL1        7 GROUP        1 Z    ALL  0     ROOT ALL Z 15
     8 SEL2        2 GROUP        1 Z    SEL  0     **** SEL Z 16
     9 GLL5       10 GROUP        1 Z    GLL  0     **** GLL Z 20
@<TRIPOS>SET

