#    Name: 4ftn_2HK_1_ligand
#    Modification time : Mon Mar 24 20:45:32 2014

@<TRIPOS>MOLECULE
4ftn_2HK_1_ligand
   68    73     1     0     0
SMALL
NO_CHARGES


@<TRIPOS>ATOM
      1 O3          6.5780   -4.7960   14.9630 O.3       1 2HK301      0.0000 
      2 C28         7.7360   -4.6710   14.2590 C.ar      1 2HK301      0.0000 
      3 C27         8.5510   -5.7560   13.9600 C.ar      1 2HK301      0.0000 
      4 C26         9.7570   -5.5540   13.3120 C.ar      1 2HK301      0.0000 
      5 C29         8.1450   -3.3950   13.9230 C.ar      1 2HK301      0.0000 
      6 C30         9.3500   -3.2050   13.2780 C.ar      1 2HK301      0.0000 
      7 C25        10.1800   -4.2760   12.9430 C.ar      1 2HK301      0.0000 
      8 C22        11.4960   -4.0480   12.2710 C.ar      1 2HK301      0.0000 
      9 C21        12.5060   -5.0110   12.2840 C.ar      1 2HK301      0.0000 
     10 C20        13.6650   -4.8510   11.5430 C.ar      1 2HK301      0.0000 
     11 C23        11.6960   -2.9260   11.4680 C.ar      1 2HK301      0.0000 
     12 C24        12.8510   -2.7610   10.7280 C.ar      1 2HK301      0.0000 
     13 C19        13.8530   -3.7200   10.7550 C.ar      1 2HK301      0.0000 
     14 C18        15.1360   -3.4630   10.0620 C.2       1 2HK301      0.0000 
     15 N3         15.2620   -2.3520    9.2310 N.pl3     1 2HK301      0.0000 
     16 N2         16.5660   -2.3200    8.7850 N.pl3     1 2HK301      0.0000 
     17 C17        17.2630   -3.3850    9.3260 C.2       1 2HK301      0.0000 
     18 C10        18.5350   -3.9370    9.4040 C.ar      1 2HK301      0.0000 
     19 C9         19.7110   -3.5570    8.7660 C.ar      1 2HK301      0.0000 
     20 C16        16.3750   -4.1600   10.1510 C.2       1 2HK301      0.0000 
     21 C15        17.1260   -5.1950   10.7430 C.2       1 2HK301      0.0000 
     22 C11        18.4820   -5.0430   10.2780 C.ar      1 2HK301      0.0000 
     23 C12        19.6740   -5.7390   10.5020 C.ar      1 2HK301      0.0000 
     24 C13        20.8550   -5.3790    9.8690 C.ar      1 2HK301      0.0000 
     25 O2         22.0580   -6.0230   10.0250 O.3       1 2HK301      0.0000 
     26 C14        22.1250   -7.1220   10.9350 C.3       1 2HK301      0.0000 
     27 C8         20.8780   -4.2690    8.9950 C.ar      1 2HK301      0.0000 
     28 O1         22.1200   -3.9310    8.5150 O.3       1 2HK301      0.0000 
     29 C1         22.2550   -3.1590    7.3010 C.3       1 2HK301      0.0000 
     30 C2         22.6240   -4.1840    6.2590 C.3       1 2HK301      0.0000 
     31 N1         24.1100   -4.3090    6.0440 N.4       1 2HK301      0.0000 
     32 C7         24.4490   -5.0340    4.7800 C.3       1 2HK301      0.0000 
     33 C6         24.1280   -6.5080    4.8900 C.3       1 2HK301      0.0000 
     34 C5         24.8400   -7.1440    6.0680 C.3       1 2HK301      0.0000 
     35 C4         24.5550   -6.3840    7.3500 C.3       1 2HK301      0.0000 
     36 C3         24.8560   -4.9060    7.1990 C.3       1 2HK301      0.0000 
     37 H           8.2563   -6.7063   14.2208 H         1 2HK301      0.0000 
     38 H          10.3643   -6.3677   13.0932 H         1 2HK301      0.0000 
     39 H           7.5496   -2.5853   14.1544 H         1 2HK301      0.0000 
     40 H           9.6541   -2.2400   13.0318 H         1 2HK301      0.0000 
     41 H          12.3815   -5.8638   12.8629 H         1 2HK301      0.0000 
     42 H          14.3996   -5.5778   11.5739 H         1 2HK301      0.0000 
     43 H          10.9537   -2.1977   11.4287 H         1 2HK301      0.0000 
     44 H          12.9724   -1.9132   10.1462 H         1 2HK301      0.0000 
     45 H          14.5759   -1.7394    9.0180 H         1 2HK301      0.0000 
     46 H          16.9352   -1.6621    8.1914 H         1 2HK301      0.0000 
     47 H          19.7125   -2.7520    8.1283 H         1 2HK301      0.0000 
     48 H          16.8254   -5.8528   11.3198 H         1 2HK301      0.0000 
     49 H          19.6703   -6.5436   11.1585 H         1 2HK301      0.0000 
     50 H          23.0454   -2.4376    7.3774 H         1 2HK301      0.0000 
     51 H          21.3285   -2.6951    7.0227 H         1 2HK301      0.0000 
     52 H          22.1407   -3.9177    5.3026 H         1 2HK301      0.0000 
     53 H          22.2173   -5.1661    6.5578 H         1 2HK301      0.0000 
     54 H          24.5094   -3.2597    5.9164 H         1 2HK301      0.0000 
     55 H          25.5160   -4.9154    4.5603 H         1 2HK301      0.0000 
     56 H          23.8834   -4.6058    3.9448 H         1 2HK301      0.0000 
     57 H          24.4311   -7.0153    3.9690 H         1 2HK301      0.0000 
     58 H          23.0478   -6.6364    5.0096 H         1 2HK301      0.0000 
     59 H          25.9158   -7.1473    5.8818 H         1 2HK301      0.0000 
     60 H          24.5047   -8.1772    6.1786 H         1 2HK301      0.0000 
     61 H          25.1666   -6.7971    8.1578 H         1 2HK301      0.0000 
     62 H          23.5024   -6.5131    7.6195 H         1 2HK301      0.0000 
     63 H          24.5788   -4.3887    8.1247 H         1 2HK301      0.0000 
     64 H          25.9339   -4.7745    7.0501 H         1 2HK301      0.0000 
     65 H          23.0431   -7.5164   10.9741 H         1 2HK301      0.0000 
     66 H          21.8836   -6.8485   11.8661 H         1 2HK301      0.0000 
     67 H          21.5005   -7.8584   10.6746 H         1 2HK301      0.0000 
     68 H           6.3157   -5.7556   14.8613 H         1 2HK301      0.0000 
@<TRIPOS>BOND
     1    2    1 1    
     2   68    1 1    
     3    3    2 ar   
     4    5    2 ar   
     5    4    3 ar   
     6   37    3 1    
     7    7    4 ar   
     8   38    4 1    
     9    6    5 ar   
    10   39    5 1    
    11    7    6 ar   
    12   40    6 1    
    13    8    7 1    
    14    9    8 ar   
    15   11    8 ar   
    16   10    9 ar   
    17   41    9 1    
    18   13   10 ar   
    19   42   10 1    
    20   12   11 ar   
    21   43   11 1    
    22   13   12 ar   
    23   44   12 1    
    24   14   13 1    
    25   15   14 1    
    26   20   14 2    
    27   16   15 1    
    28   45   15 1    
    29   17   16 1    
    30   46   16 1    
    31   18   17 2    
    32   20   17 1    
    33   19   18 ar   
    34   22   18 ar   
    35   27   19 ar   
    36   47   19 1    
    37   21   20 1    
    38   22   21 2    
    39   48   21 1    
    40   23   22 ar   
    41   24   23 ar   
    42   49   23 1    
    43   25   24 1    
    44   27   24 ar   
    45   26   25 1    
    46   65   26 1    
    47   66   26 1    
    48   67   26 1    
    49   28   27 1    
    50   29   28 1    
    51   30   29 1    
    52   50   29 1    
    53   51   29 1    
    54   31   30 1    
    55   52   30 1    
    56   53   30 1    
    57   32   31 1    
    58   36   31 1    
    59   54   31 1    
    60   33   32 1    
    61   55   32 1    
    62   56   32 1    
    63   34   33 1    
    64   57   33 1    
    65   58   33 1    
    66   35   34 1    
    67   59   34 1    
    68   60   34 1    
    69   36   35 1    
    70   61   35 1    
    71   62   35 1    
    72   63   36 1    
    73   64   36 1    
@<TRIPOS>SUBSTRUCTURE
     1 2HK301      1 GROUP   
@<TRIPOS>SET

