#    Name: 2GCP_1_CAVITY_N1_6.mol2
#    Modification time : Mon Mar 10 14:32:25 2014

@<TRIPOS>MOLECULE
2GCP_1_CAVITY_N1_6.mol2
   44     0     5     0     0
SMALL
NO_CHARGES


@<TRIPOS>ATOM
      1 N          18.1283    7.7915   20.1748 N.2       1 ALA2        0.0000 
      2 N          18.9657    8.5151   19.1623 N.2       1 ALA2        0.0000 
      3 CZ         19.0488   13.3215   20.4434 C.ar      3 PHE5        0.0000 
      4 CZ         18.0514   11.4502   20.5035 C.ar      3 PHE5        0.0000 
      5 CZ         18.8888   12.1738   19.4910 C.ar      3 PHE5        0.0000 
      6 CZ         17.0541    9.5789   20.5636 C.ar      3 PHE5        0.0000 
      7 CA         17.8915   10.3025   19.5511 C.3       4 GLY6        0.0000 
      8 CA         18.7289   11.0260   18.5385 C.3       4 GLY6        0.0000 
      9 CA         17.7316    9.1547   18.5987 C.3       4 GLY6        0.0000 
     10 CA         18.5690    9.8783   17.5861 C.3       4 GLY6        0.0000 
     11 N          18.4090    8.7305   16.6337 N.2       1 ALA2        0.0000 
     12 CA         17.9745   15.1089   20.8322 C.3       4 GLY6        0.0000 
     13 OD1        16.9772   13.2376   20.8923 O.3       2 ASP3        0.0000 
     14 CZ         17.8146   13.9612   19.8798 C.ar      3 PHE5        0.0000 
     15 DU         16.8173   12.0899   19.9399 H         5 CUB7        0.0000 
     16 CZ         17.6547   12.8134   18.9274 C.ar      3 PHE5        0.0000 
     17 CA         16.6573   10.9421   18.9875 C.3       4 GLY6        0.0000 
     18 CZ         17.4947   11.6657   17.9749 C.ar      3 PHE5        0.0000 
     19 CA         17.3348   10.5179   17.0225 C.3       4 GLY6        0.0000 
     20 CZ         18.1722   11.2415   16.0100 C.ar      3 PHE5        0.0000 
     21 CA         17.1749    9.3702   16.0701 C.3       4 GLY6        0.0000 
     22 CA         18.0123   10.0937   15.0575 C.3       4 GLY6        0.0000 
     23 N          18.8497   10.8173   14.0450 N.2       1 ALA2        0.0000 
     24 CA         17.8524    8.9460   14.1051 C.3       4 GLY6        0.0000 
     25 N          18.6898    9.6696   13.0926 N.2       1 ALA2        0.0000 
     26 CA         17.6924    7.7983   13.1527 C.3       4 GLY6        0.0000 
     27 CA         18.5299    8.5218   12.1402 C.3       4 GLY6        0.0000 
     28 N          15.7430   13.8773   20.3287 N.2       1 ALA2        0.0000 
     29 N          16.5804   14.6008   19.3162 N.2       1 ALA2        0.0000 
     30 CA         15.5831   12.7296   19.3763 C.3       4 GLY6        0.0000 
     31 CA         16.4205   13.4531   18.3637 C.3       4 GLY6        0.0000 
     32 CZ         17.2579   14.1766   17.3512 C.ar      3 PHE5        0.0000 
     33 CA         15.4232   11.5818   18.4239 C.3       4 GLY6        0.0000 
     34 CA         16.2606   12.3054   17.4113 C.3       4 GLY6        0.0000 
     35 CZ         17.0980   13.0289   16.3988 C.ar      3 PHE5        0.0000 
     36 CA         16.1006   11.1576   16.4589 C.3       4 GLY6        0.0000 
     37 CA         16.9381   11.8812   15.4464 C.3       4 GLY6        0.0000 
     38 CA         15.9407   10.0099   15.5065 C.3       4 GLY6        0.0000 
     39 CA         16.7781   10.7334   14.4939 C.3       4 GLY6        0.0000 
     40 N          18.2930   11.0328   11.5164 N.2       1 ALA2        0.0000 
     41 O          15.1863   14.0928   17.8001 O.2       1 ALA2        0.0000 
     42 O          16.0238   14.8163   16.7876 O.2       1 ALA2        0.0000 
     43 CA         15.0264   12.9450   16.8477 C.3       4 GLY6        0.0000 
     44 OD1        15.8638   13.6686   15.8352 O.3       2 ASP3        0.0000 
@<TRIPOS>BOND
@<TRIPOS>SUBSTRUCTURE
     1 ALA2        1 GROUP   
     2 ASP3       13 GROUP   
     3 PHE5        3 GROUP   
     4 GLY6        7 GROUP   
     5 CUB7       15 GROUP   
@<TRIPOS>SET

