#    Name: 2gcp_GSP_1_INTS_M
#    Modification time : Tue Mar 25 14:01:41 2014

@<TRIPOS>MOLECULE
2gcp_GSP_1_INTS_M
   76     0    15     0     0
SMALL
NO_CHARGES


@<TRIPOS>ATOM
      1 N          17.2050   17.2970   16.5415 N.am      2 SEC2        0.0000 
      2 N          17.0190   16.3500   15.4170 N.am     12 SEL2        0.0000 
      3 N          17.3910   18.2440   17.6660 N.am      7 SEP2        0.0000 
      4 CA         18.3670   19.0075   15.5255 C.3       5 GLC5        0.0000 
      5 CA         19.3290   17.6380   14.5510 C.3      15 GLL5        0.0000 
      6 CA         17.4050   20.3770   16.5000 C.3      10 GLP5        0.0000 
      7 CA         19.8455   16.3145   15.9830 C.3       5 GLC5        0.0000 
      8 CA         20.3620   14.9910   17.4150 C.3      10 GLP5        0.0000 
      9 CA         20.3895   16.3355   13.6995 C.3       5 GLC5        0.0000 
     10 CA         21.4500   15.0330   12.8480 C.3      10 GLP5        0.0000 
     11 CA         20.3640   19.4460   14.1265 C.3       5 GLC5        0.0000 
     12 CA         21.3990   21.2540   13.7020 C.3      10 GLP5        0.0000 
     13 N          15.4315   18.4715   14.0205 N.am      2 SEC2        0.0000 
     14 N          16.7060   18.2400   13.7080 N.am     12 SEL2        0.0000 
     15 N          14.1570   18.7030   14.3330 N.am      7 SEP2        0.0000 
     16 N          16.6525   19.3105   12.8665 N.am      2 SEC2        0.0000 
     17 N          16.5990   20.3810   12.0250 N.am      7 SEP2        0.0000 
     18 Zn         17.0865   15.1530   12.8370 Zn        4 ZIC7        0.0000 
     19 Zn         17.6790   15.9580   13.0430 Zn       14 ZIL7        0.0000 
     20 Zn         16.4940   14.3480   12.6310 Zn        9 ZIP7        0.0000 
     21 N          18.7095   15.7120   12.0825 N.am      2 SEC2        0.0000 
     22 N          17.6790   15.9580   13.0430 N.am     12 SEL2        0.0000 
     23 N          19.7400   15.4660   11.1220 N.am      7 SEP2        0.0000 
     24 NZ         14.3665   17.5680   15.1415 N.4       3 LYC4        0.0000 
     25 NZ         14.5760   16.4330   15.9500 N.4      13 LYL4        0.0000 
     26 NZ         14.1570   18.7030   14.3330 N.4       8 LYP4        0.0000 
     27 N          13.9425   16.0130   17.2905 N.am      2 SEC2        0.0000 
     28 N          14.5760   16.4330   15.9500 N.am     12 SEL2        0.0000 
     29 N          13.3090   15.5930   18.6310 N.am      7 SEP2        0.0000 
     30 N          13.3965   15.5815   16.0390 N.am      2 SEC2        0.0000 
     31 N          12.2170   14.7300   16.1280 N.am      7 SEP2        0.0000 
     32 N          14.3665   17.5680   15.1415 N.am      2 SEC2        0.0000 
     33 Zn         15.8975   14.4715   13.5560 Zn        4 ZIC7        0.0000 
     34 Zn         15.3010   14.5950   14.4810 Zn       14 ZIL7        0.0000 
     35 N          14.1690   13.7740   14.2045 N.am      2 SEC2        0.0000 
     36 N          15.3010   14.5950   14.4810 N.am     12 SEL2        0.0000 
     37 N          13.0370   12.9530   13.9280 N.am      7 SEP2        0.0000 
     38 N          13.9650   11.3740   16.0025 N.am      2 SEC2        0.0000 
     39 N          14.7580   12.2690   16.7050 N.am     12 SEL2        0.0000 
     40 N          13.1720   10.4790   15.3000 N.am      7 SEP2        0.0000 
     41 N          14.6520   15.0640   17.7480 N.am      2 SEC2        0.0000 
     42 N          15.9950   14.5350   16.8650 N.am     12 SEL2        0.0000 
     43 CA         17.2600   15.4600   19.0075 C.3       5 GLC5        0.0000 
     44 CA         17.3030   13.6090   19.2140 C.3      15 GLL5        0.0000 
     45 CA         17.2170   17.3110   18.8010 C.3      10 GLP5        0.0000 
     46 CA         19.1035   14.0770   18.9120 C.3       5 GLC5        0.0000 
     47 CA         20.9040   14.5450   18.6100 C.3      10 GLP5        0.0000 
     48 CA         15.9890    9.8170   19.1315 C.3       5 GLC5        0.0000 
     49 CA         17.0360   10.5670   20.4990 C.3      15 GLL5        0.0000 
     50 CA         14.9420    9.0670   17.7640 C.3      10 GLP5        0.0000 
     51 CA         15.1805   13.0770   22.0200 C.3       5 GLC5        0.0000 
     52 CA         16.3100   11.3760   21.5620 C.3      15 GLL5        0.0000 
     53 CA         14.0510   14.7780   22.4780 C.3      10 GLP5        0.0000 
     54 CA         12.2765   12.4210   22.8185 C.3       5 GLC5        0.0000 
     55 CA         12.7530   10.7210   22.1700 C.3      15 GLL5        0.0000 
     56 CA         11.8000   14.1210   23.4670 C.3      10 GLP5        0.0000 
     57 CA         12.1735    8.8360   23.2190 C.3       5 GLC5        0.0000 
     58 CA         11.5940    6.9510   24.2680 C.3      10 GLP5        0.0000 
     59 N          10.3320    8.7560   22.5515 N.am      2 SEC2        0.0000 
     60 N          10.5590   10.3010   22.7810 N.am     12 SEL2        0.0000 
     61 N          10.1050    7.2110   22.3220 N.am      7 SEP2        0.0000 
     62 O          11.0425   10.2455   25.3040 O.2       1 ALC1        0.0000 
     63 O          12.1190   10.3730   24.4530 O.2      11 ALL1        0.0000 
     64 O           9.9660   10.1180   26.1550 O.2       6 ALP1        0.0000 
     65 O          11.7800    9.9655   26.0625 O.2       1 ALC1        0.0000 
     66 O          11.4410    9.5580   27.6720 O.2       6 ALP1        0.0000 
     67 O          12.6075   10.0005   26.8875 O.2       1 ALC1        0.0000 
     68 O          13.7740   10.4430   26.1030 O.2      11 ALL1        0.0000 
     69 CA         13.6670   12.6910   23.1875 C.3       5 GLC5        0.0000 
     70 CA         14.0720   10.8980   22.6110 C.3      15 GLL5        0.0000 
     71 CA         13.2620   14.4840   23.7640 C.3      10 GLP5        0.0000 
     72 CA         19.5930   12.6717   19.5542 C.3       5 GLC5        0.0000 
     73 CA         17.7870   12.8620   20.4610 C.3      15 GLL5        0.0000 
     74 CA         21.1650   13.1930   18.7760 C.3      10 GLP5        0.0000 
     75 CA         15.5850    9.1502   20.9608 C.3       5 GLC5        0.0000 
     76 CA         14.4970    7.3290   20.8910 C.3      10 GLP5        0.0000 
@<TRIPOS>BOND
@<TRIPOS>SUBSTRUCTURE
     1 ALC1       62 GROUP        1 X    ALC  0     ROOT ALC X 1
     2 SEC2        1 GROUP        1 X    SEC  0     **** SEC X 2
     3 LYC4       24 GROUP        1 X    LYC  0     **** LYC X 4
     4 ZIC7       18 GROUP        1 X    ZIC  0     **** ZIC X 5
     5 GLC5        4 GROUP        1 X    GLC  0     **** GLC X 6
     6 ALP1       64 GROUP        1 Y    ALP  0     ROOT ALP Y 8
     7 SEP2        3 GROUP        1 Y    SEP  0     **** SEP Y 9
     8 LYP4       26 GROUP        1 Y    LYP  0     **** LYP Y 11
     9 ZIP7       20 GROUP        1 Y    ZIP  0     **** ZIP Y 12
    10 GLP5        6 GROUP        1 Y    GLP  0     **** GLP Y 13
    11 ALL1       63 GROUP        1 Z    ALL  0     ROOT ALL Z 15
    12 SEL2        2 GROUP        1 Z    SEL  0     **** SEL Z 16
    13 LYL4       25 GROUP        1 Z    LYL  0     **** LYL Z 18
    14 ZIL7       19 GROUP        1 Z    ZIL  0     **** ZIL Z 19
    15 GLL5        5 GROUP        1 Z    GLL  0     **** GLL Z 20
@<TRIPOS>SET

