#    Name: 2gcp_GSP_1_ligand
#    Modification time : Tue Mar 25 14:01:41 2014

@<TRIPOS>MOLECULE
2gcp_GSP_1_ligand
   45    47     1     0     0
SMALL
NO_CHARGES


@<TRIPOS>ATOM
      1 PG         17.6580   17.0980   14.0810 P.3       1 GSP1001     0.0000 
      2 O3B        17.0190   16.3500   15.4170 O.3       1 GSP1001     0.0000 
      3 S1G        19.3290   17.6380   14.5510 S.2       1 GSP1001     0.0000 
      4 O2G        16.7060   18.2400   13.7080 O.3       1 GSP1001     0.0000 
      5 O3G        17.6790   15.9580   13.0430 O.3       1 GSP1001     0.0000 
      6 PB         15.6650   15.4830   15.6010 P.3       1 GSP1001     0.0000 
      7 O1B        14.5760   16.4330   15.9500 O.co2     1 GSP1001     0.0000 
      8 O2B        15.3010   14.5950   14.4810 O.co2     1 GSP1001     0.0000 
      9 PA         16.0530   12.9190   16.9590 P.3       1 GSP1001     0.0000 
     10 O1A        14.7580   12.2690   16.7050 O.co2     1 GSP1001     0.0000 
     11 O2A        17.1710   12.3370   16.1760 O.co2     1 GSP1001     0.0000 
     12 O3A        15.9950   14.5350   16.8650 O.3       1 GSP1001     0.0000 
     13 O5'        16.3300   12.8030   18.5430 O.3       1 GSP1001     0.0000 
     14 C5'        17.3030   13.6090   19.2140 C.3       1 GSP1001     0.0000 
     15 C4'        17.7870   12.8620   20.4610 C.3       1 GSP1001     0.0000 
     16 O4'        16.6550   12.7220   21.3080 O.3       1 GSP1001     0.0000 
     17 C3'        18.2550   11.4390   20.2040 C.3       1 GSP1001     0.0000 
     18 O3'        19.2970   11.1270   21.1120 O.3       1 GSP1001     0.0000 
     19 C2'        17.0360   10.5670   20.4990 C.3       1 GSP1001     0.0000 
     20 O2'        17.3500    9.2240   20.8440 O.3       1 GSP1001     0.0000 
     21 C1'        16.3100   11.3760   21.5620 C.3       1 GSP1001     0.0000 
     22 N9         14.8380   11.1800   21.5210 N.pl3     1 GSP1001     0.0000 
     23 C8         13.9960   11.1640   20.4270 C.2       1 GSP1001     0.0000 
     24 N7         12.7350   10.8900   20.8110 N.2       1 GSP1001     0.0000 
     25 C5         12.7530   10.7210   22.1700 C.2       1 GSP1001     0.0000 
     26 C6         11.7500   10.4630   23.1190 C.2       1 GSP1001     0.0000 
     27 O6         10.5590   10.3010   22.7810 O.2       1 GSP1001     0.0000 
     28 N1         12.1190   10.3730   24.4530 N.am      1 GSP1001     0.0000 
     29 C2         13.4280   10.5270   24.8400 C.2       1 GSP1001     0.0000 
     30 N2         13.7740   10.4430   26.1030 N.pl3     1 GSP1001     0.0000 
     31 N3         14.4020   10.8020   23.9210 N.2       1 GSP1001     0.0000 
     32 C4         14.0720   10.8980   22.6110 C.2       1 GSP1001     0.0000 
     33 H          16.8864   14.5643   19.5383 H         1 GSP1001     0.0000 
     34 H          18.1727   13.8055   18.5845 H         1 GSP1001     0.0000 
     35 H          18.5522   13.4137   20.9401 H         1 GSP1001     0.0000 
     36 H          18.5160   11.3376   19.1950 H         1 GSP1001     0.0000 
     37 H          16.4088   10.6304   19.5922 H         1 GSP1001     0.0000 
     38 H          16.6976   11.0637   22.5248 H         1 GSP1001     0.0000 
     39 H          14.2908   11.3297   19.5149 H         1 GSP1001     0.0000 
     40 H          11.3879   10.1856   25.1680 H         1 GSP1001     0.0000 
     41 H          14.7424   10.5900   26.3047 H         1 GSP1001     0.0000 
     42 H          13.0377   10.2397   26.7484 H         1 GSP1001     0.0000 
     43 H          16.5181   18.7119   14.5694 H         1 GSP1001     0.0000 
     44 H          19.0424   10.2430   21.5041 H         1 GSP1001     0.0000 
     45 H          16.6556    8.9597   21.5132 H         1 GSP1001     0.0000 
@<TRIPOS>BOND
     1    2    1 1    
     2    3    1 2    
     3    4    1 1    
     4    5    1 1    
     5    6    2 1    
     6   43    4 1    
     7    7    6 ar   
     8    8    6 ar   
     9   12    6 1    
    10   10    9 ar   
    11   11    9 ar   
    12   12    9 1    
    13   13    9 1    
    14   14   13 1    
    15   15   14 1    
    16   33   14 1    
    17   34   14 1    
    18   16   15 1    
    19   17   15 1    
    20   35   15 1    
    21   21   16 1    
    22   18   17 1    
    23   19   17 1    
    24   36   17 1    
    25   44   18 1    
    26   20   19 1    
    27   21   19 1    
    28   37   19 1    
    29   45   20 1    
    30   22   21 1    
    31   38   21 1    
    32   23   22 1    
    33   32   22 1    
    34   24   23 2    
    35   39   23 1    
    36   25   24 1    
    37   26   25 1    
    38   32   25 2    
    39   27   26 2    
    40   28   26 am   
    41   29   28 1    
    42   40   28 1    
    43   30   29 1    
    44   31   29 2    
    45   41   30 1    
    46   42   30 1    
    47   32   31 1    
@<TRIPOS>SUBSTRUCTURE
     1 GSP1001     1 GROUP   
@<TRIPOS>SET

