#    Name: 4cd0_AWJ_1_INTS_M
#    Modification time : Tue Mar 25 09:12:05 2014

@<TRIPOS>MOLECULE
4cd0_AWJ_1_INTS_M
   77     0     9     0     0
SMALL
NO_CHARGES


@<TRIPOS>ATOM
      1 CA        -28.0345  -17.0420   64.3105 C.3       3 GLC5        0.0000 
      2 CA        -28.7830  -16.3740   62.3790 C.3       9 GLL5        0.0000 
      3 CA        -27.2860  -17.7100   66.2420 C.3       6 GLP5        0.0000 
      4 N         -26.5385  -17.4835   63.2895 N.am      2 SEC2        0.0000 
      5 N         -27.7500  -17.2760   62.5280 N.am      8 SEL2        0.0000 
      6 N         -25.3270  -17.6910   64.0510 N.am      5 SEP2        0.0000 
      7 CA        -26.0620  -17.6355   61.1260 C.3       3 GLC5        0.0000 
      8 CA        -27.7740  -18.4490   61.8100 C.3       9 GLL5        0.0000 
      9 CA        -24.3500  -16.8220   60.4420 C.3       6 GLP5        0.0000 
     10 CA        -27.3395  -18.6930   63.6145 C.3       3 GLC5        0.0000 
     11 CA        -26.9050  -18.9370   65.4190 C.3       6 GLP5        0.0000 
     12 O         -27.5560  -14.7785   63.8215 O.2       1 ALC1        0.0000 
     13 O         -28.7520  -15.1840   63.1190 O.2       7 ALL1        0.0000 
     14 O         -26.3600  -14.3730   64.5240 O.2       4 ALP1        0.0000 
     15 CA        -31.1810  -15.2020   58.8340 C.3       3 GLC5        0.0000 
     16 CA        -32.0210  -15.7850   60.5740 C.3       9 GLL5        0.0000 
     17 CA        -30.3410  -14.6190   57.0940 C.3       6 GLP5        0.0000 
     18 CA        -32.6680  -14.3195   58.4095 C.3       3 GLC5        0.0000 
     19 CA        -32.6020  -14.3720   60.3940 C.3       9 GLL5        0.0000 
     20 CA        -32.7340  -14.2670   56.4250 C.3       6 GLP5        0.0000 
     21 CA        -33.4845  -12.6375   59.7935 C.3       3 GLC5        0.0000 
     22 CA        -34.3670  -10.9030   59.1930 C.3       6 GLP5        0.0000 
     23 CA        -31.8470  -12.9705   61.5345 C.3       3 GLC5        0.0000 
     24 CA        -31.0920  -11.5690   62.6750 C.3       6 GLP5        0.0000 
     25 CA        -36.2425  -19.1020   64.0875 C.3       3 GLC5        0.0000 
     26 CA        -34.9600  -18.5260   62.4220 C.3       9 GLL5        0.0000 
     27 CA        -37.5250  -19.6780   65.7530 C.3       6 GLP5        0.0000 
     28 CA        -33.1030  -19.1850   63.1620 C.3       3 GLC5        0.0000 
     29 CA        -31.2460  -19.8440   63.9020 C.3       6 GLP5        0.0000 
     30 CA        -36.0440  -18.5420   65.1120 C.3       3 GLC5        0.0000 
     31 CA        -34.5630  -17.4060   64.4710 C.3       9 GLL5        0.0000 
     32 CA        -32.9480  -18.2190   64.8285 C.3       3 GLC5        0.0000 
     33 CA        -31.3330  -19.0320   65.1860 C.3       6 GLP5        0.0000 
     34 CA        -33.5970  -17.2390   54.7830 C.3       3 GLC5        0.0000 
     35 CA        -33.5000  -17.7270   56.9370 C.3       9 GLL5        0.0000 
     36 CA        -33.6940  -16.7510   52.6290 C.3       6 GLP5        0.0000 
     37 CA        -33.1170  -15.9970   56.6810 C.3       3 GLC5        0.0000 
     38 CA        -29.4035  -21.9770   61.1340 C.3       3 GLC5        0.0000 
     39 CA        -30.3770  -20.7870   59.8380 C.3       9 GLL5        0.0000 
     40 CA        -28.4300  -23.1670   62.4300 C.3       6 GLP5        0.0000 
     41 CA        -25.3625  -18.7435   59.9885 C.3       3 GLC5        0.0000 
     42 CA        -26.3750  -20.6650   59.5350 C.3       9 GLL5        0.0000 
     43 CA        -27.4025  -21.9160   60.9825 C.3       3 GLC5        0.0000 
     44 CA        -29.2425  -23.8770   60.6435 C.3       3 GLC5        0.0000 
     45 CA        -30.0550  -24.5870   58.8570 C.3       9 GLL5        0.0000 
     46 CA        -31.2900  -26.0535   59.6515 C.3       3 GLC5        0.0000 
     47 CA        -32.5250  -27.5200   60.4460 C.3       6 GLP5        0.0000 
     48 O         -32.4745  -23.7180   59.6120 O.2       1 ALC1        0.0000 
     49 O         -31.8620  -23.0180   58.5860 O.2       7 ALL1        0.0000 
     50 O         -33.0870  -24.4180   60.6380 O.2       4 ALP1        0.0000 
     51 N         -30.5290  -24.0465   61.4975 N.am      2 SEC2        0.0000 
     52 N         -30.2270  -24.6790   60.2710 N.am      8 SEL2        0.0000 
     53 N         -30.8310  -23.4140   62.7240 N.am      5 SEP2        0.0000 
     54 O         -31.6570  -24.5485   60.4545 O.2       1 ALC1        0.0000 
     55 O         -30.2270  -24.6790   60.2710 O.2       7 ALL1        0.0000 
     56 CA        -28.2615  -15.2585   61.1038 C.3       3 GLC5        0.0000 
     57 CA        -29.8650  -16.6240   61.5060 C.3       9 GLL5        0.0000 
     58 CA        -27.1990  -14.0180   60.2650 C.3       6 GLP5        0.0000 
     59 CA        -30.0910  -17.0495   63.4453 C.3       3 GLC5        0.0000 
     60 CA        -30.8580  -17.6000   64.9480 C.3       6 GLP5        0.0000 
     61 CA        -30.1529  -19.0406   62.4888 C.3       3 GLC5        0.0000 
     62 CA        -29.8340  -17.8500   60.7890 C.3       9 GLL5        0.0000 
     63 CA        -32.3079  -17.3591   63.7329 C.3       3 GLC5        0.0000 
     64 CA        -34.3010  -17.5270   63.1720 C.3       9 GLL5        0.0000 
     65 CA        -34.0455  -16.6572   65.4502 C.3       3 GLC5        0.0000 
     66 CA        -33.6590  -15.8480   67.0790 C.3       6 GLP5        0.0000 
     67 CA        -36.0584  -16.6096   64.0705 C.3       3 GLC5        0.0000 
     68 CA        -37.5200  -15.5030   64.5070 C.3       6 GLP5        0.0000 
     69 CA        -28.2119  -18.2775   58.9146 C.3       3 GLC5        0.0000 
     70 CA        -28.7970  -18.8000   60.9140 C.3       9 GLL5        0.0000 
     71 CA        -27.3480  -17.3630   57.3330 C.3       6 GLP5        0.0000 
     72 CA        -28.3867  -21.8137   61.1385 C.3       3 GLC5        0.0000 
     73 CA        -28.8360  -20.0590   60.1410 C.3       9 GLL5        0.0000 
     74 CA        -30.4262  -20.1335   61.9458 C.3       3 GLC5        0.0000 
     75 CA        -26.8065  -20.0553   57.8055 C.3       3 GLC5        0.0000 
     76 CA        -27.8510  -20.8620   59.5530 C.3       9 GLL5        0.0000 
     77 CA        -26.5000  -19.3470   56.0670 C.3       6 GLP5        0.0000 
@<TRIPOS>BOND
@<TRIPOS>SUBSTRUCTURE
     1 ALC1       12 GROUP        1 X    ALC  0     ROOT ALC X 1
     2 SEC2        4 GROUP        1 X    SEC  0     **** SEC X 2
     3 GLC5        1 GROUP        1 X    GLC  0     **** GLC X 6
     4 ALP1       14 GROUP        1 Y    ALP  0     ROOT ALP Y 8
     5 SEP2        6 GROUP        1 Y    SEP  0     **** SEP Y 9
     6 GLP5        3 GROUP        1 Y    GLP  0     **** GLP Y 13
     7 ALL1       13 GROUP        1 Z    ALL  0     ROOT ALL Z 15
     8 SEL2        5 GROUP        1 Z    SEL  0     **** SEL Z 16
     9 GLL5        2 GROUP        1 Z    GLL  0     **** GLL Z 20
@<TRIPOS>SET

