#    Name: 4cd0_AWJ_1_ligand
#    Modification time : Tue Mar 25 09:12:05 2014

@<TRIPOS>MOLECULE
4cd0_AWJ_1_ligand
   58    61     1     0     0
SMALL
NO_CHARGES


@<TRIPOS>ATOM
      1 C1        -29.8650  -16.6240   61.5060 C.ar      1 AWJ1500     0.0000 
      2 C2        -28.7830  -16.3740   62.3790 C.ar      1 AWJ1500     0.0000 
      3 N3        -27.7500  -17.2760   62.5280 N.ar      1 AWJ1500     0.0000 
      4 C4        -27.7740  -18.4490   61.8100 C.ar      1 AWJ1500     0.0000 
      5 C5        -28.7970  -18.8000   60.9140 C.ar      1 AWJ1500     0.0000 
      6 C6        -29.8340  -17.8500   60.7890 C.ar      1 AWJ1500     0.0000 
      7 O7        -30.8500  -15.6430   61.4380 O.3       1 AWJ1500     0.0000 
      8 N8        -28.7520  -15.1840   63.1190 N.pl3     1 AWJ1500     0.0000 
      9 C9        -32.0210  -15.7850   60.5740 C.3       1 AWJ1500     0.0000 
     10 C10       -33.0600  -16.7620   61.1610 C.ar      1 AWJ1500     0.0000 
     11 C11       -32.6020  -14.3720   60.3940 C.3       1 AWJ1500     0.0000 
     12 C12       -33.7390  -17.7880   60.4030 C.ar      1 AWJ1500     0.0000 
     13 C13       -34.6800  -18.6560   61.0450 C.ar      1 AWJ1500     0.0000 
     14 C14       -34.9600  -18.5260   62.4220 C.ar      1 AWJ1500     0.0000 
     15 C15       -34.3010  -17.5270   63.1720 C.ar      1 AWJ1500     0.0000 
     16 C16       -33.3690  -16.6570   62.5660 C.ar      1 AWJ1500     0.0000 
     17 F17       -34.5630  -17.4060   64.4710 F         1 AWJ1500     0.0000 
     18 N18       -33.5250  -18.0030   59.0160 N.pl3     1 AWJ1500     0.0000 
     19 N19       -32.9210  -19.1390   58.5650 N.pl3     1 AWJ1500     0.0000 
     20 C20       -32.9120  -18.9510   57.2450 C.2       1 AWJ1500     0.0000 
     21 C21       -33.5000  -17.7270   56.9370 C.2       1 AWJ1500     0.0000 
     22 N22       -33.8920  -17.1180   58.0570 N.pl3     1 AWJ1500     0.0000 
     23 C23       -28.8360  -20.0590   60.1410 C.2       1 AWJ1500     0.0000 
     24 C24       -27.8510  -20.8620   59.5530 C.2       1 AWJ1500     0.0000 
     25 N25       -28.3290  -21.9930   58.8970 N.2       1 AWJ1500     0.0000 
     26 C26       -29.6450  -22.0700   58.9720 C.2       1 AWJ1500     0.0000 
     27 S27       -30.3770  -20.7870   59.8380 S.3       1 AWJ1500     0.0000 
     28 C28       -26.3750  -20.6650   59.5350 C.3       1 AWJ1500     0.0000 
     29 C29       -30.4640  -23.1960   58.3400 C.3       1 AWJ1500     0.0000 
     30 C30       -30.0550  -24.5870   58.8570 C.3       1 AWJ1500     0.0000 
     31 O31       -31.8620  -23.0180   58.5860 O.3       1 AWJ1500     0.0000 
     32 C32       -30.2670  -23.1540   56.8200 C.3       1 AWJ1500     0.0000 
     33 O33       -30.2270  -24.6790   60.2710 O.3       1 AWJ1500     0.0000 
     34 H         -26.9799  -19.1354   61.9317 H         1 AWJ1500     0.0000 
     35 H         -30.6224  -18.0565   60.1350 H         1 AWJ1500     0.0000 
     36 H         -27.9868  -15.0808   63.7545 H         1 AWJ1500     0.0000 
     37 H         -29.4977  -14.5400   62.9481 H         1 AWJ1500     0.0000 
     38 H         -31.7187  -16.1390   59.5988 H         1 AWJ1500     0.0000 
     39 H         -35.1504  -19.3765   60.4905 H         1 AWJ1500     0.0000 
     40 H         -35.6300  -19.1456   62.8706 H         1 AWJ1500     0.0000 
     41 H         -32.8986  -15.9369   63.1203 H         1 AWJ1500     0.0000 
     42 H         -32.6031  -19.8522   59.0666 H         1 AWJ1500     0.0000 
     43 H         -32.5576  -19.5550   56.5733 H         1 AWJ1500     0.0000 
     44 H         -33.5950  -17.3953   56.0303 H         1 AWJ1500     0.0000 
     45 H         -34.3120  -16.2947   58.1673 H         1 AWJ1500     0.0000 
     46 H         -29.0081  -24.7523   58.5606 H         1 AWJ1500     0.0000 
     47 H         -30.6665  -25.3288   58.3214 H         1 AWJ1500     0.0000 
     48 H         -31.9405  -13.7488   59.9768 H         1 AWJ1500     0.0000 
     49 H         -33.4118  -14.3754   59.8074 H         1 AWJ1500     0.0000 
     50 H         -32.8745  -13.9684   61.2674 H         1 AWJ1500     0.0000 
     51 H         -25.9921  -20.6417   60.4585 H         1 AWJ1500     0.0000 
     52 H         -25.9082  -21.3997   59.0426 H         1 AWJ1500     0.0000 
     53 H         -26.1203  -19.8063   59.0904 H         1 AWJ1500     0.0000 
     54 H         -29.3074  -23.2759   56.5664 H         1 AWJ1500     0.0000 
     55 H         -30.7859  -23.8734   56.3582 H         1 AWJ1500     0.0000 
     56 H         -30.5646  -22.2822   56.4309 H         1 AWJ1500     0.0000 
     57 H         -32.0741  -23.6429   59.3374 H         1 AWJ1500     0.0000 
     58 H         -31.1371  -25.0741   60.3958 H         1 AWJ1500     0.0000 
@<TRIPOS>BOND
     1    2    1 ar   
     2    6    1 ar   
     3    7    1 1    
     4    3    2 ar   
     5    8    2 1    
     6    4    3 ar   
     7    5    4 ar   
     8   34    4 1    
     9    6    5 ar   
    10   23    5 1    
    11   35    6 1    
    12    9    7 1    
    13   36    8 1    
    14   37    8 1    
    15   10    9 1    
    16   11    9 1    
    17   38    9 1    
    18   12   10 ar   
    19   16   10 ar   
    20   48   11 1    
    21   49   11 1    
    22   50   11 1    
    23   13   12 ar   
    24   18   12 1    
    25   14   13 ar   
    26   39   13 1    
    27   15   14 ar   
    28   40   14 1    
    29   16   15 ar   
    30   17   15 1    
    31   41   16 1    
    32   19   18 1    
    33   22   18 1    
    34   20   19 1    
    35   42   19 1    
    36   21   20 2    
    37   43   20 1    
    38   22   21 1    
    39   44   21 1    
    40   45   22 1    
    41   24   23 2    
    42   27   23 1    
    43   25   24 1    
    44   28   24 1    
    45   26   25 2    
    46   27   26 1    
    47   29   26 1    
    48   51   28 1    
    49   52   28 1    
    50   53   28 1    
    51   30   29 1    
    52   31   29 1    
    53   32   29 1    
    54   33   30 1    
    55   46   30 1    
    56   47   30 1    
    57   57   31 1    
    58   54   32 1    
    59   55   32 1    
    60   56   32 1    
    61   58   33 1    
@<TRIPOS>SUBSTRUCTURE
     1 AWJ1500     1 GROUP   
@<TRIPOS>SET

