#    Name: 3cs9_NIL_4_INTS_M
#    Modification time : Mon Mar 24 22:17:06 2014

@<TRIPOS>MOLECULE
3cs9_NIL_4_INTS_M
  113     0     9     0     0
SMALL
NO_CHARGES


@<TRIPOS>ATOM
      1 N          22.4270   38.8810   14.1395 N.am      2 SEC2        0.0000 
      2 N          20.8950   39.1740   14.0370 N.am      8 SEL2        0.0000 
      3 N          23.9590   38.5880   14.2420 N.am      5 SEP2        0.0000 
      4 O          20.0460   40.9830   17.0465 O.2       1 ALC1        0.0000 
      5 O          20.3160   40.8830   15.5010 O.2       7 ALL1        0.0000 
      6 O          19.7760   41.0830   18.5920 O.2       4 ALP1        0.0000 
      7 CA         19.6195   42.4750   15.1050 C.3       3 GLC5        0.0000 
      8 CA         21.3540   41.7820   15.2460 C.3       9 GLL5        0.0000 
      9 CA         17.8850   43.1680   14.9640 C.3       6 GLP5        0.0000 
     10 CA         20.1580   42.9695   17.5640 C.3       3 GLC5        0.0000 
     11 CA         21.6540   42.7880   16.1990 C.3       9 GLL5        0.0000 
     12 CA         18.6620   43.1510   18.9290 C.3       6 GLP5        0.0000 
     13 CA         21.5365   46.9365   17.1385 C.3       3 GLC5        0.0000 
     14 CA         22.1980   45.2940   17.8830 C.3       9 GLL5        0.0000 
     15 CA         20.8750   48.5790   16.3940 C.3       6 GLP5        0.0000 
     16 CA         20.5520   46.3065   19.7835 C.3       3 GLC5        0.0000 
     17 CA         22.3830   47.0240   19.8130 C.3       9 GLL5        0.0000 
     18 CA         18.7210   45.5890   19.7540 C.3       6 GLP5        0.0000 
     19 CA         19.9790   41.9735   13.7125 C.3       3 GLC5        0.0000 
     20 CA         22.0690   41.7320   14.0430 C.3       9 GLL5        0.0000 
     21 CA         17.8890   42.2150   13.3820 C.3       6 GLP5        0.0000 
     22 CA         22.8990   40.0005   12.9385 C.3       3 GLC5        0.0000 
     23 CA         23.7290   38.2690   11.8340 C.3       6 GLP5        0.0000 
     24 CA         26.2560   44.3035   11.0315 C.3       3 GLC5        0.0000 
     25 CA         24.6870   43.6420   12.3790 C.3       9 GLL5        0.0000 
     26 CA         27.8250   44.9650    9.6840 C.3       6 GLP5        0.0000 
     27 CA         25.6675   45.1035   12.9625 C.3       3 GLC5        0.0000 
     28 CA         26.6480   46.5650   13.5460 C.3       6 GLP5        0.0000 
     29 CA         25.8900   40.5705   11.0225 C.3       3 GLC5        0.0000 
     30 CA         24.6090   41.3780   12.4940 C.3       9 GLL5        0.0000 
     31 CA         27.1710   39.7630    9.5510 C.3       6 GLP5        0.0000 
     32 CA         18.4180   40.5605   14.3820 C.3       3 GLC5        0.0000 
     33 CA         18.9470   38.9060   15.3820 C.3       9 GLL5        0.0000 
     34 CA         18.0090   41.2155   15.7235 C.3       3 GLC5        0.0000 
     35 CA         18.1330   39.2630   16.4830 C.3       9 GLL5        0.0000 
     36 CA         15.3970   40.1315   17.1020 C.3       3 GLC5        0.0000 
     37 CA         16.9450   38.5500   16.7910 C.3       9 GLL5        0.0000 
     38 CA         13.8490   41.7130   17.4130 C.3       6 GLP5        0.0000 
     39 CA         15.2260   34.9595   17.0290 C.3       3 GLC5        0.0000 
     40 CA         15.2210   36.7430   16.3700 C.3       9 GLL5        0.0000 
     41 CA         15.2310   33.1760   17.6880 C.3       6 GLP5        0.0000 
     42 CA         14.6140   35.3755   15.0190 C.3       3 GLC5        0.0000 
     43 CA         14.0070   34.0080   13.6680 C.3       6 GLP5        0.0000 
     44 CA         13.1375   36.0575   16.6965 C.3       3 GLC5        0.0000 
     45 CA         11.0540   35.3720   17.0230 C.3       6 GLP5        0.0000 
     46 CA         14.7345   37.0930   18.1245 C.3       3 GLC5        0.0000 
     47 CA         14.2480   37.4430   19.8790 C.3       6 GLP5        0.0000 
     48 CA         18.3495   38.2435   12.5500 C.3       3 GLC5        0.0000 
     49 CA         18.4460   37.8720   14.5750 C.3       9 GLL5        0.0000 
     50 CA         18.2530   38.6150   10.5250 C.3       6 GLP5        0.0000 
     51 O          16.0330   36.5050   13.3225 O.2       1 ALC1        0.0000 
     52 O          16.9440   35.9990   14.1520 O.2       7 ALL1        0.0000 
     53 O          15.1220   37.0110   12.4930 O.2       4 ALP1        0.0000 
     54 CA         16.4230   34.0285   16.1885 C.3       3 GLC5        0.0000 
     55 CA         17.6150   34.8810   14.6890 C.3       9 GLL5        0.0000 
     56 CA         15.8110   34.4445   14.1785 C.3       3 GLC5        0.0000 
     57 CA         18.9550   33.2440   12.1875 C.3       3 GLC5        0.0000 
     58 CA         17.9620   32.6500   14.0980 C.3       9 GLL5        0.0000 
     59 CA         19.9480   33.8380   10.2770 C.3       6 GLP5        0.0000 
     60 CA         16.8895   30.5735    9.0590 C.3       3 GLC5        0.0000 
     61 CA         16.8920   29.8760   11.0740 C.3       9 GLL5        0.0000 
     62 CA         16.8870   31.2710    7.0440 C.3       6 GLP5        0.0000 
     63 N          16.2775   31.4940    9.4985 N.am      2 SEC2        0.0000 
     64 N          16.5730   31.1760   10.9240 N.am      8 SEL2        0.0000 
     65 N          15.9820   31.8120    8.0730 N.am      5 SEP2        0.0000 
     66 CA         15.4235   32.4200   10.4330 C.3       3 GLC5        0.0000 
     67 CA         16.9210   32.0380   11.8980 C.3       9 GLL5        0.0000 
     68 CA         13.9260   32.8020    8.9680 C.3       6 GLP5        0.0000 
     69 CA         18.4345   32.9380   11.0875 C.3       3 GLC5        0.0000 
     70 CA         23.1925   41.2250   15.8053 C.3       3 GLC5        0.0000 
     71 CA         24.8810   40.1650   15.8880 C.3       6 GLP5        0.0000 
     72 CA         20.4690   43.9703   15.2785 C.3       3 GLC5        0.0000 
     73 CA         18.7550   44.6830   14.4630 C.3       6 GLP5        0.0000 
     74 CA         23.9783   41.9160   15.6395 C.3       3 GLC5        0.0000 
     75 CA         22.7120   43.7270   15.9890 C.3       9 GLL5        0.0000 
     76 CA         20.6422   45.6593   19.0113 C.3       3 GLC5        0.0000 
     77 CA         22.0485   47.9562   18.4337 C.3       3 GLC5        0.0000 
     78 CA         21.4410   49.3180   17.6340 C.3       6 GLP5        0.0000 
     79 CA         23.7393   41.1730   14.9147 C.3       3 GLC5        0.0000 
     80 CA         23.1260   42.6300   13.8400 C.3       9 GLL5        0.0000 
     81 CA         24.5660   41.0615   14.2052 C.3       3 GLC5        0.0000 
     82 CA         23.0681   44.7315   11.8106 C.3       3 GLC5        0.0000 
     83 CA         23.8930   42.5380   12.5510 C.3       9 GLL5        0.0000 
     84 CA         22.0680   46.3810   11.4200 C.3       6 GLP5        0.0000 
     85 CA         24.4323   42.4025   10.3733 C.3       3 GLC5        0.0000 
     86 CA         24.5260   42.5750    8.3990 C.3       6 GLP5        0.0000 
     87 CA         26.2443   41.9010   12.5828 C.3       3 GLC5        0.0000 
     88 CA         28.0390   41.5680   12.6860 C.3       6 GLP5        0.0000 
     89 CA         23.8791   40.1095   12.0464 C.3       3 GLC5        0.0000 
     90 CA         16.8995   39.1613   14.6747 C.3       3 GLC5        0.0000 
     91 CA         15.2590   39.2380   13.4170 C.3       6 GLP5        0.0000 
     92 CA         16.8062   38.0454   18.3592 C.3       3 GLC5        0.0000 
     93 CA         16.5060   37.4830   16.0020 C.3       9 GLL5        0.0000 
     94 CA         16.5900   37.8960   20.3990 C.3       6 GLP5        0.0000 
     95 CA         15.6161   38.3089   14.9001 C.3       3 GLC5        0.0000 
     96 CA         16.5520   38.3828   14.0610 C.3       3 GLC5        0.0000 
     97 CA         17.2440   37.1830   14.8350 C.3       9 GLL5        0.0000 
     98 CA         19.1515   32.0360   17.3523 C.3       3 GLC5        0.0000 
     99 CA         18.9340   33.5080   16.0130 C.3       9 GLL5        0.0000 
    100 CA         19.4640   31.0970   19.1070 C.3       6 GLP5        0.0000 
    101 CA         17.0350   33.0755   16.6427 C.3       3 GLC5        0.0000 
    102 CA         19.3867   31.2832   11.9373 C.3       3 GLC5        0.0000 
    103 CA         17.6090   31.6440   13.0670 C.3       9 GLL5        0.0000 
    104 CA         21.0080   31.6100   10.7310 C.3       6 GLP5        0.0000 
    105 CA         16.2240   30.0232   13.9367 C.3       3 GLC5        0.0000 
    106 CA         17.9220   30.2690   13.2200 C.3       9 GLL5        0.0000 
    107 CA         14.7080   30.2230   15.1670 C.3       6 GLP5        0.0000 
    108 CA         18.7925   28.7750   10.7413 C.3       3 GLC5        0.0000 
    109 CA         17.5580   29.3780   12.1930 C.3       9 GLL5        0.0000 
    110 CA         20.3600   27.9230    9.8490 C.3       6 GLP5        0.0000 
    111 CA         19.1165   30.6185   11.1822 C.3       3 GLC5        0.0000 
    112 CA         16.0306   31.1578   13.9536 C.3       3 GLC5        0.0000 
    113 CA         15.6801   33.0502   13.2041 C.3       3 GLC5        0.0000 
@<TRIPOS>BOND
@<TRIPOS>SUBSTRUCTURE
     1 ALC1        4 GROUP        1 X    ALC  0     ROOT ALC X 1
     2 SEC2        1 GROUP        1 X    SEC  0     **** SEC X 2
     3 GLC5        7 GROUP        1 X    GLC  0     **** GLC X 6
     4 ALP1        6 GROUP        1 Y    ALP  0     ROOT ALP Y 8
     5 SEP2        3 GROUP        1 Y    SEP  0     **** SEP Y 9
     6 GLP5        9 GROUP        1 Y    GLP  0     **** GLP Y 13
     7 ALL1        5 GROUP        1 Z    ALL  0     ROOT ALL Z 15
     8 SEL2        2 GROUP        1 Z    SEL  0     **** SEL Z 16
     9 GLL5        8 GROUP        1 Z    GLL  0     **** GLL Z 20
@<TRIPOS>SET

