#    Name: 3cs9_NIL_4_ligand
#    Modification time : Mon Mar 24 22:17:06 2014

@<TRIPOS>MOLECULE
3cs9_NIL_4_ligand
   61    65     1     0     0
SMALL
NO_CHARGES


@<TRIPOS>ATOM
      1 O17        20.8950   39.1740   14.0370 O.2       1 NIL600      0.0000 
      2 C16        20.1830   39.6480   14.9410 C.2       1 NIL600      0.0000 
      3 N14        20.3160   40.8830   15.5010 N.am      1 NIL600      0.0000 
      4 C11        21.3540   41.7820   15.2460 C.ar      1 NIL600      0.0000 
      5 C9         21.6540   42.7880   16.1990 C.ar      1 NIL600      0.0000 
      6 C8         22.7120   43.7270   15.9890 C.ar      1 NIL600      0.0000 
      7 N51        23.0470   44.7120   16.9470 N.pl3     1 NIL600      0.0000 
      8 C56        22.1980   45.2940   17.8830 C.2       1 NIL600      0.0000 
      9 C55        22.9290   46.1650   18.6540 C.2       1 NIL600      0.0000 
     10 C58        22.3830   47.0240   19.8130 C.3       1 NIL600      0.0000 
     11 N54        24.2480   46.1470   18.2270 N.2       1 NIL600      0.0000 
     12 C52        24.2680   45.2600   17.2010 C.2       1 NIL600      0.0000 
     13 C6         23.4390   43.6070   14.7930 C.ar      1 NIL600      0.0000 
     14 C12        22.0690   41.7320   14.0430 C.ar      1 NIL600      0.0000 
     15 C5         23.1260   42.6300   13.8400 C.ar      1 NIL600      0.0000 
     16 C2         23.8930   42.5380   12.5510 C.3       1 NIL600      0.0000 
     17 F4         23.0060   42.5060   11.4960 F         1 NIL600      0.0000 
     18 F3         24.6870   43.6420   12.3790 F         1 NIL600      0.0000 
     19 F1         24.6090   41.3780   12.4940 F         1 NIL600      0.0000 
     20 C18        18.9470   38.9060   15.3820 C.ar      1 NIL600      0.0000 
     21 C25        18.1330   39.2630   16.4830 C.ar      1 NIL600      0.0000 
     22 C23        16.9450   38.5500   16.7910 C.ar      1 NIL600      0.0000 
     23 C22        16.5060   37.4830   16.0020 C.ar      1 NIL600      0.0000 
     24 C27        15.2210   36.7430   16.3700 C.3       1 NIL600      0.0000 
     25 C21        17.2440   37.1830   14.8350 C.ar      1 NIL600      0.0000 
     26 C19        18.4460   37.8720   14.5750 C.ar      1 NIL600      0.0000 
     27 N31        16.9440   35.9990   14.1520 N.pl3     1 NIL600      0.0000 
     28 C33        17.6150   34.8810   14.6890 C.ar      1 NIL600      0.0000 
     29 N40        18.3800   34.7470   15.7780 N.ar      1 NIL600      0.0000 
     30 C38        18.9340   33.5080   16.0130 C.ar      1 NIL600      0.0000 
     31 C36        18.7440   32.4420   15.1820 C.ar      1 NIL600      0.0000 
     32 C35        17.9620   32.6500   14.0980 C.ar      1 NIL600      0.0000 
     33 N34        17.4250   33.8590   13.8690 N.ar      1 NIL600      0.0000 
     34 C41        17.6090   31.6440   13.0670 C.ar      1 NIL600      0.0000 
     35 C49        17.9220   30.2690   13.2200 C.ar      1 NIL600      0.0000 
     36 C47        17.5580   29.3780   12.1930 C.ar      1 NIL600      0.0000 
     37 C45        16.8920   29.8760   11.0740 C.ar      1 NIL600      0.0000 
     38 N44        16.5730   31.1760   10.9240 N.ar      1 NIL600      0.0000 
     39 C42        16.9210   32.0380   11.8980 C.ar      1 NIL600      0.0000 
     40 H          19.5683   41.2038   16.1973 H         1 NIL600      0.0000 
     41 H          21.1005   42.8483   17.0638 H         1 NIL600      0.0000 
     42 H          21.2657   45.1120   17.9672 H         1 NIL600      0.0000 
     43 H          25.0850   45.0320   16.6873 H         1 NIL600      0.0000 
     44 H          24.2245   44.2572   14.6137 H         1 NIL600      0.0000 
     45 H          21.8248   41.0524   13.3247 H         1 NIL600      0.0000 
     46 H          18.4077   40.0595   17.0766 H         1 NIL600      0.0000 
     47 H          16.3977   38.8338   17.6207 H         1 NIL600      0.0000 
     48 H          18.9986   37.5933   13.7256 H         1 NIL600      0.0000 
     49 H          16.3412   35.9471   13.3918 H         1 NIL600      0.0000 
     50 H          19.5302   33.3828   16.8740 H         1 NIL600      0.0000 
     51 H          19.1710   31.5401   15.3732 H         1 NIL600      0.0000 
     52 H          18.3960   29.9413   14.0501 H         1 NIL600      0.0000 
     53 H          17.7798   28.3886   12.2716 H         1 NIL600      0.0000 
     54 H          16.6333   29.1842   10.3175 H         1 NIL600      0.0000 
     55 H          16.6812   33.0606   11.8098 H         1 NIL600      0.0000 
     56 H          23.0991   47.5840   20.2296 H         1 NIL600      0.0000 
     57 H          21.6642   47.6479   19.5063 H         1 NIL600      0.0000 
     58 H          21.9913   46.4605   20.5404 H         1 NIL600      0.0000 
     59 H          15.0231   36.0012   15.7293 H         1 NIL600      0.0000 
     60 H          15.2749   36.3361   17.2819 H         1 NIL600      0.0000 
     61 H          14.4279   37.3521   16.3672 H         1 NIL600      0.0000 
@<TRIPOS>BOND
     1    2    1 2    
     2    3    2 am   
     3   20    2 1    
     4    4    3 1    
     5   40    3 1    
     6    5    4 ar   
     7   14    4 ar   
     8    6    5 ar   
     9   41    5 1    
    10    7    6 1    
    11   13    6 ar   
    12    8    7 1    
    13   12    7 1    
    14    9    8 2    
    15   42    8 1    
    16   10    9 1    
    17   11    9 1    
    18   56   10 1    
    19   57   10 1    
    20   58   10 1    
    21   12   11 2    
    22   43   12 1    
    23   15   13 ar   
    24   44   13 1    
    25   15   14 ar   
    26   45   14 1    
    27   16   15 1    
    28   17   16 1    
    29   18   16 1    
    30   19   16 1    
    31   21   20 ar   
    32   26   20 ar   
    33   22   21 ar   
    34   46   21 1    
    35   23   22 ar   
    36   47   22 1    
    37   24   23 1    
    38   25   23 ar   
    39   59   24 1    
    40   60   24 1    
    41   61   24 1    
    42   26   25 ar   
    43   27   25 1    
    44   48   26 1    
    45   28   27 1    
    46   49   27 1    
    47   29   28 ar   
    48   33   28 ar   
    49   30   29 ar   
    50   31   30 ar   
    51   50   30 1    
    52   32   31 ar   
    53   51   31 1    
    54   33   32 ar   
    55   34   32 1    
    56   35   34 ar   
    57   39   34 ar   
    58   36   35 ar   
    59   52   35 1    
    60   37   36 ar   
    61   53   36 1    
    62   38   37 ar   
    63   54   37 1    
    64   39   38 ar   
    65   55   39 1    
@<TRIPOS>SUBSTRUCTURE
     1 NIL600      1 GROUP   
@<TRIPOS>SET

