#    Name: 3adu_MYI_3_INTS_M
#    Modification time : Tue Mar 25 11:47:33 2014

@<TRIPOS>MOLECULE
3adu_MYI_3_INTS_M
   28     0     6     0     0
SMALL
NO_CHARGES


@<TRIPOS>ATOM
      1 N          36.5345   33.0790   43.6230 N.am      1 SEC2        0.0000 
      2 N          36.4730   33.3120   41.9780 N.am      5 SEL2        0.0000 
      3 N          36.5960   32.8460   45.2680 N.am      3 SEP2        0.0000 
      4 N          35.6705   32.1915   39.8460 N.am      1 SEC2        0.0000 
      5 N          34.7070   32.2260   41.1860 N.am      5 SEL2        0.0000 
      6 N          36.6340   32.1570   38.5060 N.am      3 SEP2        0.0000 
      7 CA         36.2885   34.4190   39.9765 C.3       2 GLC5        0.0000 
      8 CA         34.6350   34.6270   41.1800 C.3       6 GLL5        0.0000 
      9 CA         37.9420   34.2110   38.7730 C.3       4 GLP5        0.0000 
     10 CA         33.1060   35.9185   40.3140 C.3       2 GLC5        0.0000 
     11 CA         31.5770   37.2100   39.4480 C.3       4 GLP5        0.0000 
     12 CA         34.6925   34.4930   43.4115 C.3       2 GLC5        0.0000 
     13 CA         34.7500   34.3590   45.6430 C.3       4 GLP5        0.0000 
     14 CA         34.6890   33.4607   34.9227 C.3       2 GLC5        0.0000 
     15 CA         32.9850   33.6960   36.0480 C.3       6 GLL5        0.0000 
     16 CA         35.9670   32.6540   33.7420 C.3       4 GLP5        0.0000 
     17 CA         33.2870   36.3960   39.4363 C.3       2 GLC5        0.0000 
     18 CA         35.3260   36.1060   39.1620 C.3       6 GLL5        0.0000 
     19 CA         32.8347   34.0962   40.7542 C.3       2 GLC5        0.0000 
     20 CA         34.6680   35.0580   39.6870 C.3       6 GLL5        0.0000 
     21 CA         31.0180   33.3500   41.0750 C.3       4 GLP5        0.0000 
     22 CA         33.4322   36.1576   35.3816 C.3       2 GLC5        0.0000 
     23 CA         34.3460   35.2010   37.4470 C.3       6 GLL5        0.0000 
     24 CA         32.9860   37.5810   33.9880 C.3       4 GLP5        0.0000 
     25 CA         32.7715   35.8711   38.7240 C.3       2 GLC5        0.0000 
     26 CA         32.2365   33.5591   39.6524 C.3       2 GLC5        0.0000 
     27 CA         34.0120   34.4350   38.6120 C.3       6 GLL5        0.0000 
     28 CA         36.2650   34.7055   38.7500 C.3       2 GLC5        0.0000 
@<TRIPOS>BOND
@<TRIPOS>SUBSTRUCTURE
     1 SEC2        1 GROUP        1 X    SEC  0     ROOT SEC X 2
     2 GLC5        7 GROUP        1 X    GLC  0     **** GLC X 6
     3 SEP2        3 GROUP        1 Y    SEP  0     ROOT SEP Y 9
     4 GLP5        9 GROUP        1 Y    GLP  0     **** GLP Y 13
     5 SEL2        2 GROUP        1 Z    SEL  0     ROOT SEL Z 16
     6 GLL5        8 GROUP        1 Z    GLL  0     **** GLL Z 20
@<TRIPOS>SET

