#    Name: 3adu_MYI_3_ligand
#    Modification time : Tue Mar 25 11:47:33 2014

@<TRIPOS>MOLECULE
3adu_MYI_3_ligand
   25    26     1     0     0
SMALL
NO_CHARGES


@<TRIPOS>ATOM
      1 CAA        32.0140   30.5250   37.6030 C.3       1 MYI3        0.0000 
      2 OAB        36.4730   33.3120   41.9780 O.co2     1 MYI3        0.0000 
      3 OAC        34.7070   32.2260   41.1860 O.co2     1 MYI3        0.0000 
      4 CAD        32.9850   33.6960   36.0480 C.ar      1 MYI3        0.0000 
      5 CAE        33.8370   34.8390   36.1590 C.ar      1 MYI3        0.0000 
      6 CAF        35.3260   36.1060   39.1620 C.2       1 MYI3        0.0000 
      7 CAG        33.1600   33.2920   38.4940 C.ar      1 MYI3        0.0000 
      8 CAH        34.6350   34.6270   41.1800 C.3       1 MYI3        0.0000 
      9 NAI        35.1390   36.1900   37.8460 N.pl3     1 MYI3        0.0000 
     10 OAJ        31.8000   31.8260   36.9740 O.3       1 MYI3        0.0000 
     11 CAK        35.3350   33.2730   41.4710 C.2       1 MYI3        0.0000 
     12 CAL        32.6360   32.9110   37.2010 C.ar      1 MYI3        0.0000 
     13 CAM        34.6680   35.0580   39.6870 C.2       1 MYI3        0.0000 
     14 CAN        34.3460   35.2010   37.4470 C.ar      1 MYI3        0.0000 
     15 CAO        34.0120   34.4350   38.6120 C.ar      1 MYI3        0.0000 
     16 H          32.6150   33.4289   35.1325 H         1 MYI3        0.0000 
     17 H          34.0756   35.3812   35.3443 H         1 MYI3        0.0000 
     18 H          35.8784   36.7327   39.6926 H         1 MYI3        0.0000 
     19 H          32.9198   32.7453   39.3115 H         1 MYI3        0.0000 
     20 H          35.1162   35.4099   41.7823 H         1 MYI3        0.0000 
     21 H          33.5870   34.5593   41.5029 H         1 MYI3        0.0000 
     22 H          35.5269   36.8757   37.2635 H         1 MYI3        0.0000 
     23 H          32.9029   30.1367   37.3600 H         1 MYI3        0.0000 
     24 H          31.9833   30.5853   38.6007 H         1 MYI3        0.0000 
     25 H          31.3190   29.8607   37.3280 H         1 MYI3        0.0000 
@<TRIPOS>BOND
     1   10    1 1    
     2   23    1 1    
     3   24    1 1    
     4   25    1 1    
     5   11    2 ar   
     6   11    3 ar   
     7    5    4 ar   
     8   12    4 ar   
     9   16    4 1    
    10   14    5 ar   
    11   17    5 1    
    12    9    6 1    
    13   13    6 2    
    14   18    6 1    
    15   12    7 ar   
    16   15    7 ar   
    17   19    7 1    
    18   11    8 1    
    19   13    8 1    
    20   20    8 1    
    21   21    8 1    
    22   14    9 1    
    23   22    9 1    
    24   12   10 1    
    25   15   13 1    
    26   15   14 ar   
@<TRIPOS>SUBSTRUCTURE
     1 MYI3        1 GROUP   
@<TRIPOS>SET

