#    Name: 3g9n_J88_1_INTS_M
#    Modification time : Tue Mar 25 07:23:51 2014

@<TRIPOS>MOLECULE
3g9n_J88_1_INTS_M
   68     0     9     0     0
SMALL
NO_CHARGES


@<TRIPOS>ATOM
      1 N          17.7865   30.9890   20.9380 N.am      2 SEC2        0.0000 
      2 N          18.0180   29.6100   20.8440 N.am      8 SEL2        0.0000 
      3 N          17.5550   32.3680   21.0320 N.am      5 SEP2        0.0000 
      4 O          16.8850   29.6155   19.7090 O.2       1 ALC1        0.0000 
      5 O          18.0180   29.6100   20.8440 O.2       7 ALL1        0.0000 
      6 O          15.7520   29.6210   18.5740 O.2       4 ALP1        0.0000 
      7 N          18.7600   31.4770   21.6525 N.am      2 SEC2        0.0000 
      8 N          19.9650   30.5860   22.2730 N.am      8 SEL2        0.0000 
      9 CA         20.8000   28.9360   24.4415 C.3       3 GLC5        0.0000 
     10 CA         22.4190   29.8590   23.7080 C.3       9 GLL5        0.0000 
     11 CA         19.1810   28.0130   25.1750 C.3       6 GLP5        0.0000 
     12 CA         25.6530   31.5350   20.1935 C.3       3 GLC5        0.0000 
     13 CA         24.8860   32.6860   21.7000 C.3       9 GLL5        0.0000 
     14 CA         26.4200   30.3840   18.6870 C.3       6 GLP5        0.0000 
     15 N          25.4100   30.6040   25.6085 N.am      2 SEC2        0.0000 
     16 N          25.1690   29.9360   24.1060 N.am      8 SEL2        0.0000 
     17 N          25.6510   31.2720   27.1110 N.am      5 SEP2        0.0000 
     18 CA         19.8760   22.4010   17.5130 C.3       3 GLC5        0.0000 
     19 CA         19.0870   23.3860   19.0790 C.3       9 GLL5        0.0000 
     20 CA         20.6650   21.4160   15.9470 C.3       6 GLP5        0.0000 
     21 CA         23.3287   30.0027   20.9087 C.3       3 GLC5        0.0000 
     22 CA         23.2760   30.8480   22.9880 C.3       9 GLL5        0.0000 
     23 CA         23.6650   28.7030   19.2640 C.3       6 GLP5        0.0000 
     24 CA         21.6280   32.1479   20.0933 C.3       3 GLC5        0.0000 
     25 CA         22.7090   31.7570   22.1190 C.3       9 GLL5        0.0000 
     26 CA         20.2310   31.4170   18.9790 C.3       6 GLP5        0.0000 
     27 CA         21.8610   33.9234   22.4078 C.3       3 GLC5        0.0000 
     28 CA         22.9400   33.5430   20.6200 C.3       9 GLL5        0.0000 
     29 CA         20.6970   34.9680   23.6080 C.3       6 GLP5        0.0000 
     30 CA         25.7941   30.2106   21.2300 C.3       3 GLC5        0.0000 
     31 CA         25.4490   31.7710   22.5800 C.3       9 GLL5        0.0000 
     32 CA         26.1720   29.1130   19.4880 C.3       6 GLP5        0.0000 
     33 CA         23.0258   31.7993   24.5901 C.3       3 GLC5        0.0000 
     34 CA         24.6430   30.8480   23.2330 C.3       9 GLL5        0.0000 
     35 CA         22.3410   32.6470   26.1970 C.3       6 GLP5        0.0000 
     36 CA         20.2860   27.7545   23.6175 C.3       3 GLC5        0.0000 
     37 CA         21.8800   27.7400   22.5000 C.3       9 GLL5        0.0000 
     38 CA         23.1992   27.5881   20.9086 C.3       3 GLC5        0.0000 
     39 CA         21.7867   23.5207   21.9850 C.3       3 GLC5        0.0000 
     40 CA         23.0500   25.6160   22.4170 C.3       9 GLL5        0.0000 
     41 CA         21.0090   21.6730   21.9760 C.3       6 GLP5        0.0000 
     42 CA         23.1752   24.2672   20.6560 C.3       3 GLC5        0.0000 
     43 CA         22.0790   25.1210   21.5710 C.3       9 GLL5        0.0000 
     44 CA         23.7860   23.1660   19.3180 C.3       6 GLP5        0.0000 
     45 CA         22.3062   27.6427   20.3275 C.3       3 GLC5        0.0000 
     46 CA         20.9930   25.9130   21.1620 C.3       9 GLL5        0.0000 
     47 CA         20.7480   23.6450   21.3372 C.3       3 GLC5        0.0000 
     48 CA         20.0855   25.3742   22.8176 C.3       3 GLC5        0.0000 
     49 CA         18.9520   24.3640   24.1420 C.3       6 GLP5        0.0000 
     50 CA         19.4755   26.9105   18.4153 C.3       3 GLC5        0.0000 
     51 CA         19.9810   25.3210   20.2350 C.3       9 GLL5        0.0000 
     52 CA         19.4640   28.1110   16.9010 C.3       6 GLP5        0.0000 
     53 CA         18.2755   25.4380   21.3017 C.3       3 GLC5        0.0000 
     54 CA         18.9930   26.0990   19.6240 C.3       9 GLL5        0.0000 
     55 CA         17.0640   25.1660   22.6740 C.3       6 GLP5        0.0000 
     56 CA         21.2130   25.4455   19.1436 C.3       3 GLC5        0.0000 
     57 CA         22.6860   25.0330   18.1260 C.3       6 GLP5        0.0000 
     58 CA         17.1405   24.8215   18.4348 C.3       3 GLC5        0.0000 
     59 CA         15.7490   23.8230   17.6760 C.3       6 GLP5        0.0000 
     60 CA         18.7807   26.4870   17.7632 C.3       3 GLC5        0.0000 
     61 CA         18.1240   24.1850   18.4880 C.3       9 GLL5        0.0000 
     62 CA         17.5808   25.0145   20.6497 C.3       3 GLC5        0.0000 
     63 CA         18.0710   25.5410   18.7630 C.3       9 GLL5        0.0000 
     64 CA         17.1773   23.8042   18.2297 C.3       3 GLC5        0.0000 
     65 CA         20.2782   22.6710   20.7440 C.3       3 GLC5        0.0000 
     66 CA         21.1167   24.3510   18.8190 C.3       3 GLC5        0.0000 
     67 CA         20.0080   23.9520   19.9450 C.3       9 GLL5        0.0000 
     68 CA         18.3057   24.4175   21.0930 C.3       3 GLC5        0.0000 
@<TRIPOS>BOND
@<TRIPOS>SUBSTRUCTURE
     1 ALC1        4 GROUP        1 X    ALC  0     ROOT ALC X 1
     2 SEC2        1 GROUP        1 X    SEC  0     **** SEC X 2
     3 GLC5        9 GROUP        1 X    GLC  0     **** GLC X 6
     4 ALP1        6 GROUP        1 Y    ALP  0     ROOT ALP Y 8
     5 SEP2        3 GROUP        1 Y    SEP  0     **** SEP Y 9
     6 GLP5       11 GROUP        1 Y    GLP  0     **** GLP Y 13
     7 ALL1        5 GROUP        1 Z    ALL  0     ROOT ALL Z 15
     8 SEL2        2 GROUP        1 Z    SEL  0     **** SEL Z 16
     9 GLL5       10 GROUP        1 Z    GLL  0     **** GLL Z 20
@<TRIPOS>SET

