#    Name: 3g9n_J88_1_ligand
#    Modification time : Tue Mar 25 07:23:51 2014

@<TRIPOS>MOLECULE
3g9n_J88_1_ligand
   47    51     1     0     0
SMALL
NO_CHARGES


@<TRIPOS>ATOM
      1 O1         18.0180   29.6100   20.8440 O.3       1 J88359      0.0000 
      2 N2         18.7760   28.4110   20.8220 N.2       1 J88359      0.0000 
      3 C3         19.9320   28.3700   21.4380 C.2       1 J88359      0.0000 
      4 C4         20.4830   29.4920   22.2080 C.2       1 J88359      0.0000 
      5 O5         19.9650   30.5860   22.2730 O.2       1 J88359      0.0000 
      6 N6         21.5930   29.0600   22.8140 N.am      1 J88359      0.0000 
      7 C7         22.4190   29.8590   23.7080 C.3       1 J88359      0.0000 
      8 C8         23.2760   30.8480   22.9880 C.ar      1 J88359      0.0000 
      9 C9         22.7090   31.7570   22.1190 C.ar      1 J88359      0.0000 
     10 C10        23.5110   32.6720   21.4710 C.ar      1 J88359      0.0000 
     11 F11        22.9400   33.5430   20.6200 F         1 J88359      0.0000 
     12 C12        24.8860   32.6860   21.7000 C.ar      1 J88359      0.0000 
     13 C13        25.4490   31.7710   22.5800 C.ar      1 J88359      0.0000 
     14 C14        26.9300   31.7660   22.8420 C.3       1 J88359      0.0000 
     15 O15        27.1540   31.1600   24.1240 O.3       1 J88359      0.0000 
     16 C16        26.5980   29.8390   24.2180 C.3       1 J88359      0.0000 
     17 O17        25.1690   29.9360   24.1060 O.3       1 J88359      0.0000 
     18 C18        24.6430   30.8480   23.2330 C.ar      1 J88359      0.0000 
     19 C19        21.8800   27.7400   22.5000 C.ar      1 J88359      0.0000 
     20 C20        22.9540   26.9210   22.8790 C.ar      1 J88359      0.0000 
     21 C21        23.0500   25.6160   22.4170 C.ar      1 J88359      0.0000 
     22 C22        22.0790   25.1210   21.5710 C.ar      1 J88359      0.0000 
     23 C23        20.9930   25.9130   21.1620 C.ar      1 J88359      0.0000 
     24 C24        20.9020   27.2520   21.6200 C.ar      1 J88359      0.0000 
     25 C25        19.9810   25.3210   20.2350 C.ar      1 J88359      0.0000 
     26 C26        18.9930   26.0990   19.6240 C.ar      1 J88359      0.0000 
     27 C27        18.0710   25.5410   18.7630 C.ar      1 J88359      0.0000 
     28 C28        18.1240   24.1850   18.4880 C.ar      1 J88359      0.0000 
     29 C29        19.0870   23.3860   19.0790 C.ar      1 J88359      0.0000 
     30 C30        20.0080   23.9520   19.9450 C.ar      1 J88359      0.0000 
     31 H          23.0729   29.1991   24.3164 H         1 J88359      0.0000 
     32 H          21.7797   30.4050   24.4335 H         1 J88359      0.0000 
     33 H          21.6925   31.7518   21.9556 H         1 J88359      0.0000 
     34 H          25.4790   33.3720   21.2182 H         1 J88359      0.0000 
     35 H          27.2911   32.7951   22.8197 H         1 J88359      0.0000 
     36 H          27.4227   31.2064   22.0457 H         1 J88359      0.0000 
     37 H          26.8739   29.3772   25.1773 H         1 J88359      0.0000 
     38 H          26.9997   29.1991   23.4187 H         1 J88359      0.0000 
     39 H          23.6784   27.2999   23.5095 H         1 J88359      0.0000 
     40 H          23.8398   25.0256   22.7049 H         1 J88359      0.0000 
     41 H          22.1422   24.1456   21.2238 H         1 J88359      0.0000 
     42 H          18.9594   27.1165   19.8277 H         1 J88359      0.0000 
     43 H          17.3471   26.1271   18.3264 H         1 J88359      0.0000 
     44 H          17.4391   23.7667   17.8364 H         1 J88359      0.0000 
     45 H          19.1191   22.3791   18.8770 H         1 J88359      0.0000 
     46 H          20.7308   23.3579   20.3883 H         1 J88359      0.0000 
     47 H          17.1927   29.4040   20.3182 H         1 J88359      0.0000 
@<TRIPOS>BOND
     1    2    1 1    
     2   47    1 1    
     3    3    2 2    
     4    4    3 1    
     5   24    3 1    
     6    5    4 2    
     7    6    4 am   
     8    7    6 1    
     9   19    6 1    
    10    8    7 1    
    11   31    7 1    
    12   32    7 1    
    13    9    8 ar   
    14   18    8 ar   
    15   10    9 ar   
    16   33    9 1    
    17   11   10 1    
    18   12   10 ar   
    19   13   12 ar   
    20   34   12 1    
    21   14   13 1    
    22   18   13 ar   
    23   15   14 1    
    24   35   14 1    
    25   36   14 1    
    26   16   15 1    
    27   17   16 1    
    28   37   16 1    
    29   38   16 1    
    30   18   17 1    
    31   20   19 ar   
    32   24   19 ar   
    33   21   20 ar   
    34   39   20 1    
    35   22   21 ar   
    36   40   21 1    
    37   23   22 ar   
    38   41   22 1    
    39   24   23 ar   
    40   25   23 1    
    41   26   25 ar   
    42   30   25 ar   
    43   27   26 ar   
    44   42   26 1    
    45   28   27 ar   
    46   43   27 1    
    47   29   28 ar   
    48   44   28 1    
    49   30   29 ar   
    50   45   29 1    
    51   46   30 1    
@<TRIPOS>SUBSTRUCTURE
     1 J88359      1 GROUP   
@<TRIPOS>SET

