#    Name: 4jt9_1NS_1_INTS_M
#    Modification time : Tue Mar 25 06:16:53 2014

@<TRIPOS>MOLECULE
4jt9_1NS_1_INTS_M
   54     0     9     0     0
SMALL
NO_CHARGES


@<TRIPOS>ATOM
      1 CA         23.3060   48.1225  -13.2675 C.3       3 GLC5        0.0000 
      2 CA         25.3710   48.3880  -12.9830 C.3       9 GLL5        0.0000 
      3 CA         21.2410   47.8570  -13.5520 C.3       6 GLP5        0.0000 
      4 CA         27.3560   49.0445  -13.6000 C.3       3 GLC5        0.0000 
      5 CA         29.3410   49.7010  -14.2170 C.3       6 GLP5        0.0000 
      6 CA         22.6595   45.7615  -12.6700 C.3       3 GLC5        0.0000 
      7 CA         24.4930   44.9190  -12.0900 C.3       9 GLL5        0.0000 
      8 CA         20.8260   46.6040  -13.2500 C.3       6 GLP5        0.0000 
      9 CA         22.2440   42.8145  -12.5310 C.3       3 GLC5        0.0000 
     10 CA         23.3580   44.1370  -11.5840 C.3       9 GLL5        0.0000 
     11 CA         21.1300   41.4920  -13.4780 C.3       6 GLP5        0.0000 
     12 CA         22.0155   44.7590  -12.8410 C.3       3 GLC5        0.0000 
     13 CA         20.6730   45.3810  -14.0980 C.3       6 GLP5        0.0000 
     14 CA         21.8680   45.6780  -11.7755 C.3       3 GLC5        0.0000 
     15 CA         22.9100   44.7520  -10.3010 C.3       9 GLL5        0.0000 
     16 CA         26.2070   42.3340   -6.5720 C.3       3 GLC5        0.0000 
     17 CA         24.0090   42.4130   -6.5080 C.3       9 GLL5        0.0000 
     18 CA         28.4050   42.2550   -6.6360 C.3       6 GLP5        0.0000 
     19 O          20.0955   38.2925   -6.5930 O.2       1 ALC1        0.0000 
     20 O          21.2030   38.9470   -6.3380 O.2       7 ALL1        0.0000 
     21 O          18.9880   37.6380   -6.8480 O.2       4 ALP1        0.0000 
     22 O          21.5955   39.2065   -4.9005 O.2       1 ALC1        0.0000 
     23 O          21.9880   39.4660   -3.4630 O.2       4 ALP1        0.0000 
     24 N          20.4700   39.9885   -9.7295 N.am      2 SEC2        0.0000 
     25 N          21.0900   39.4320   -8.6170 N.am      8 SEL2        0.0000 
     26 N          19.8500   40.5450  -10.8420 N.am      5 SEP2        0.0000 
     27 N          20.3985   38.6320   -9.5605 N.am      2 SEC2        0.0000 
     28 N          19.7070   37.8320  -10.5040 N.am      5 SEP2        0.0000 
     29 CA         22.5805   40.9895  -10.2800 C.3       3 GLC5        0.0000 
     30 CA         22.6080   42.0260   -8.5590 C.3       9 GLL5        0.0000 
     31 CA         22.5530   39.9530  -12.0010 C.3       6 GLP5        0.0000 
     32 N          26.0965   42.4830   -5.0375 N.am      2 SEC2        0.0000 
     33 N          24.9030   43.0550   -5.6870 N.am      8 SEL2        0.0000 
     34 N          27.2900   41.9110   -4.3880 N.am      5 SEP2        0.0000 
     35 CA         25.6700   42.9125   -4.2290 C.3       3 GLC5        0.0000 
     36 CA         25.4960   44.2020   -6.0290 C.3       9 GLL5        0.0000 
     37 CA         25.8440   41.6230   -2.4290 C.3       6 GLP5        0.0000 
     38 CA         26.9505   43.2285   -6.3325 C.3       3 GLC5        0.0000 
     39 CA         22.6985   45.0888  -14.0418 C.3       3 GLC5        0.0000 
     40 CA         24.9100   44.3190  -13.4170 C.3       9 GLL5        0.0000 
     41 CA         24.3975   43.3227  -15.4823 C.3       3 GLC5        0.0000 
     42 CA         24.5380   45.2740  -14.5540 C.3       9 GLL5        0.0000 
     43 CA         24.0710   41.8490  -16.9790 C.3       6 GLP5        0.0000 
     44 CA         22.7240   42.5085   -4.9558 C.3       3 GLC5        0.0000 
     45 CA         21.8170   43.2490   -3.5360 C.3       6 GLP5        0.0000 
     46 CA         20.6148   41.7225   -8.6360 C.3       3 GLC5        0.0000 
     47 CA         22.4230   40.8320   -7.3710 C.3       9 GLL5        0.0000 
     48 CA         18.7140   42.0160   -9.3070 C.3       6 GLP5        0.0000 
     49 CA         26.2290   43.6467   -9.6188 C.3       3 GLC5        0.0000 
     50 CA         25.1870   45.6250   -9.8250 C.3       9 GLL5        0.0000 
     51 CA         27.0440   41.9380   -8.7480 C.3       6 GLP5        0.0000 
     52 CA         26.7756   43.8483  -12.3329 C.3       3 GLC5        0.0000 
     53 CA         25.6410   45.0860  -11.1540 C.3       9 GLL5        0.0000 
     54 CA         28.3800   42.8440  -12.7120 C.3       6 GLP5        0.0000 
@<TRIPOS>BOND
@<TRIPOS>SUBSTRUCTURE
     1 ALC1       19 GROUP        1 X    ALC  0     ROOT ALC X 1
     2 SEC2       24 GROUP        1 X    SEC  0     **** SEC X 2
     3 GLC5        1 GROUP        1 X    GLC  0     **** GLC X 6
     4 ALP1       21 GROUP        1 Y    ALP  0     ROOT ALP Y 8
     5 SEP2       26 GROUP        1 Y    SEP  0     **** SEP Y 9
     6 GLP5        3 GROUP        1 Y    GLP  0     **** GLP Y 13
     7 ALL1       20 GROUP        1 Z    ALL  0     ROOT ALL Z 15
     8 SEL2       25 GROUP        1 Z    SEL  0     **** SEL Z 16
     9 GLL5        2 GROUP        1 Z    GLL  0     **** GLL Z 20
@<TRIPOS>SET

