#    Name: 4jt9_1NS_1_ligand
#    Modification time : Tue Mar 25 06:16:53 2014

@<TRIPOS>MOLECULE
4jt9_1NS_1_ligand
   46    48     1     0     0
SMALL
NO_CHARGES


@<TRIPOS>ATOM
      1 C01        25.3710   48.3880  -12.9830 C.3       1 1NS402      0.0000 
      2 S02        25.1120   47.8130  -14.6100 S.o2      1 1NS402      0.0000 
      3 N03        25.5350   46.2060  -14.8120 N.pl3     1 1NS402      0.0000 
      4 C04        24.5380   45.2740  -14.5540 C.3       1 1NS402      0.0000 
      5 C05        24.9100   44.3190  -13.4170 C.3       1 1NS402      0.0000 
      6 C06        24.4930   44.9190  -12.0900 C.3       1 1NS402      0.0000 
      7 C07        23.3580   44.1370  -11.5840 C.3       1 1NS402      0.0000 
      8 C08        22.9100   44.7520  -10.3010 C.3       1 1NS402      0.0000 
      9 N09        24.0420   44.8620   -9.3810 N.3       1 1NS402      0.0000 
     10 C10        24.3440   44.2040   -8.1130 C.ar      1 1NS402      0.0000 
     11 C11        23.6990   43.0050   -7.7600 C.ar      1 1NS402      0.0000 
     12 C12        24.0090   42.4130   -6.5080 C.ar      1 1NS402      0.0000 
     13 C13        23.2530   41.1230   -6.2430 C.2       1 1NS402      0.0000 
     14 C14        22.4230   40.8320   -7.3710 C.2       1 1NS402      0.0000 
     15 C15        21.5560   39.7110   -7.5090 C.2       1 1NS402      0.0000 
     16 N16        21.2030   38.9470   -6.3380 N.am      1 1NS402      0.0000 
     17 O17        21.0900   39.4320   -8.6170 O.2       1 1NS402      0.0000 
     18 S18        22.6080   42.0260   -8.5590 S.3       1 1NS402      0.0000 
     19 N19        24.9030   43.0550   -5.6870 N.ar      1 1NS402      0.0000 
     20 C20        25.4960   44.2020   -6.0290 C.ar      1 1NS402      0.0000 
     21 N21        25.2090   44.7900   -7.2300 N.ar      1 1NS402      0.0000 
     22 C22        25.1870   45.6250   -9.8250 C.3       1 1NS402      0.0000 
     23 C23        25.6410   45.0860  -11.1540 C.3       1 1NS402      0.0000 
     24 O24        23.8920   48.1640  -15.1430 O.2       1 1NS402      0.0000 
     25 O25        26.0240   48.5720  -15.5770 O.2       1 1NS402      0.0000 
     26 H          26.4439   46.0750  -15.0925 H         1 1NS402      0.0000 
     27 H          24.3081   44.6427  -15.4406 H         1 1NS402      0.0000 
     28 H          23.5746   45.7516  -14.2692 H         1 1NS402      0.0000 
     29 H          25.9830   44.1581  -13.4253 H         1 1NS402      0.0000 
     30 H          24.4009   43.3727  -13.5673 H         1 1NS402      0.0000 
     31 H          24.1038   45.9441  -12.3432 H         1 1NS402      0.0000 
     32 H          23.6565   43.1061  -11.4069 H         1 1NS402      0.0000 
     33 H          22.5382   44.1521  -12.2988 H         1 1NS402      0.0000 
     34 H          22.1202   44.1325   -9.8611 H         1 1NS402      0.0000 
     35 H          22.4868   45.7423  -10.5047 H         1 1NS402      0.0000 
     36 H          23.3476   40.6403   -5.4640 H         1 1NS402      0.0000 
     37 H          21.6164   39.2445   -5.4774 H         1 1NS402      0.0000 
     38 H          20.5742   38.1832   -6.4840 H         1 1NS402      0.0000 
     39 H          26.1796   44.6604   -5.3905 H         1 1NS402      0.0000 
     40 H          26.0121   45.5450   -9.1140 H         1 1NS402      0.0000 
     41 H          24.9338   46.6808   -9.9430 H         1 1NS402      0.0000 
     42 H          26.3770   45.7735  -11.5895 H         1 1NS402      0.0000 
     43 H          26.1374   44.1195  -11.0005 H         1 1NS402      0.0000 
     44 H          26.3310   48.3163  -12.7122 H         1 1NS402      0.0000 
     45 H          25.1089   49.3477  -12.8821 H         1 1NS402      0.0000 
     46 H          24.8386   47.8671  -12.3158 H         1 1NS402      0.0000 
@<TRIPOS>BOND
     1    2    1 1    
     2   44    1 1    
     3   45    1 1    
     4   46    1 1    
     5    3    2 1    
     6   24    2 2    
     7   25    2 2    
     8    4    3 1    
     9   26    3 1    
    10    5    4 1    
    11   27    4 1    
    12   28    4 1    
    13    6    5 1    
    14   29    5 1    
    15   30    5 1    
    16    7    6 1    
    17   23    6 1    
    18   31    6 1    
    19    8    7 1    
    20   32    7 1    
    21   33    7 1    
    22    9    8 1    
    23   34    8 1    
    24   35    8 1    
    25   10    9 1    
    26   22    9 1    
    27   11   10 ar   
    28   21   10 ar   
    29   12   11 ar   
    30   18   11 1    
    31   13   12 1    
    32   19   12 ar   
    33   14   13 2    
    34   36   13 1    
    35   15   14 1    
    36   18   14 1    
    37   16   15 am   
    38   17   15 2    
    39   37   16 1    
    40   38   16 1    
    41   20   19 ar   
    42   21   20 ar   
    43   39   20 1    
    44   23   22 1    
    45   40   22 1    
    46   41   22 1    
    47   42   23 1    
    48   43   23 1    
@<TRIPOS>SUBSTRUCTURE
     1 1NS402      1 GROUP   
@<TRIPOS>SET

