#    Name: 3v66_D3A_1_INTS_M
#    Modification time : Tue Mar 25 00:05:59 2014

@<TRIPOS>MOLECULE
3v66_D3A_1_INTS_M
   87     0     6     0     0
SMALL
NO_CHARGES


@<TRIPOS>ATOM
      1 CA         22.1910   -1.8390   51.2950 C.3       2 GLC5        0.0000 
      2 CA         21.8720   -2.1330   53.0910 C.3       6 GLL5        0.0000 
      3 CA         22.5100   -1.5450   49.4990 C.3       4 GLP5        0.0000 
      4 CA         23.8755   -1.3935   53.1820 C.3       2 GLC5        0.0000 
      5 CA         25.8790   -0.6540   53.2730 C.3       4 GLP5        0.0000 
      6 CA         23.0020   -3.4705   53.1750 C.3       2 GLC5        0.0000 
      7 CA         24.1320   -4.8080   53.2590 C.3       4 GLP5        0.0000 
      8 CA         21.8215   -2.3260   55.0800 C.3       2 GLC5        0.0000 
      9 CA         21.7710   -2.5190   57.0690 C.3       4 GLP5        0.0000 
     10 CA         22.5565    0.1925   50.5010 C.3       2 GLC5        0.0000 
     11 CA         22.6030    1.9300   51.5030 C.3       6 GLL5        0.0000 
     12 CA         20.9940    1.9715   50.2035 C.3       2 GLC5        0.0000 
     13 CA         19.3850    2.0130   48.9040 C.3       4 GLP5        0.0000 
     14 CA         22.0320    3.7890   50.7395 C.3       2 GLC5        0.0000 
     15 CA         21.4610    5.6480   49.9760 C.3       4 GLP5        0.0000 
     16 CA         24.0090    2.0465   53.2190 C.3       2 GLC5        0.0000 
     17 CA         25.4150    2.1630   54.9350 C.3       4 GLP5        0.0000 
     18 CA         24.1350    2.9465   51.0385 C.3       2 GLC5        0.0000 
     19 CA         25.6670    3.9630   50.5740 C.3       4 GLP5        0.0000 
     20 CA         22.5330    3.7080   52.4255 C.3       2 GLC5        0.0000 
     21 CA         22.4630    5.4860   53.3480 C.3       4 GLP5        0.0000 
     22 CA         21.5590    3.8065   53.5290 C.3       2 GLC5        0.0000 
     23 CA         20.6550    2.1270   53.7100 C.3       6 GLL5        0.0000 
     24 CA         20.9070    3.5805   55.3930 C.3       2 GLC5        0.0000 
     25 CA         19.7170    2.1660   54.7330 C.3       6 GLL5        0.0000 
     26 CA         22.0970    4.9950   56.0530 C.3       4 GLP5        0.0000 
     27 CA         14.2810    1.9460   51.4455 C.3       2 GLC5        0.0000 
     28 CA         14.7780   -0.1290   51.7330 C.3       6 GLL5        0.0000 
     29 CA         13.7840    4.0210   51.1580 C.3       4 GLP5        0.0000 
     30 CA         13.4465   -0.5520   52.8790 C.3       2 GLC5        0.0000 
     31 CA         12.1150   -0.9750   54.0250 C.3       4 GLP5        0.0000 
     32 CA         14.6835   -1.8355   50.3965 C.3       2 GLC5        0.0000 
     33 CA         14.5890   -3.5420   49.0600 C.3       4 GLP5        0.0000 
     34 CA         16.4020   -1.5125   51.0800 C.3       2 GLC5        0.0000 
     35 CA         18.0260   -2.8960   50.4270 C.3       4 GLP5        0.0000 
     36 CA         15.8245    1.0310   50.6105 C.3       2 GLC5        0.0000 
     37 CA         16.8710    2.1910   49.4880 C.3       4 GLP5        0.0000 
     38 CA         15.7160    1.6390   52.5905 C.3       2 GLC5        0.0000 
     39 CA         16.6540    3.4070   53.4480 C.3       4 GLP5        0.0000 
     40 CA         19.7765   -2.3705   57.7925 C.3       2 GLC5        0.0000 
     41 CA         17.7820   -2.2220   58.5160 C.3       6 GLL5        0.0000 
     42 CA         19.2505   -1.0335   58.9770 C.3       2 GLC5        0.0000 
     43 CA         20.7190    0.1550   59.4380 C.3       4 GLP5        0.0000 
     44 CA         13.7415    0.3520   61.1085 C.3       2 GLC5        0.0000 
     45 CA         14.8050   -0.8850   62.0180 C.3       6 GLL5        0.0000 
     46 CA         12.6780    1.5890   60.1990 C.3       4 GLP5        0.0000 
     47 CA         17.9415    1.8800   62.1450 C.3       2 GLC5        0.0000 
     48 CA         17.3090   -0.2100   61.8080 C.3       6 GLL5        0.0000 
     49 CA         18.5740    3.9700   62.4820 C.3       4 GLP5        0.0000 
     50 CA         19.1910    0.2195   61.3290 C.3       2 GLC5        0.0000 
     51 CA         21.0730    0.6490   60.8500 C.3       4 GLP5        0.0000 
     52 CA         19.1765   -0.7415   60.3930 C.3       2 GLC5        0.0000 
     53 CA         17.6340   -1.6380   61.3480 C.3       6 GLL5        0.0000 
     54 CA         17.1260    2.6340   62.7760 C.3       2 GLC5        0.0000 
     55 CA         15.6780    1.2980   63.0700 C.3       6 GLL5        0.0000 
     56 CA         15.9365    2.7790   64.2985 C.3       2 GLC5        0.0000 
     57 CA         16.1950    4.2600   65.5270 C.3       4 GLP5        0.0000 
     58 N          12.6835    2.1170   64.5580 N.am      1 SEC2        0.0000 
     59 N          13.6810    2.2960   63.8900 N.am      5 SEL2        0.0000 
     60 N          11.6860    1.9380   65.2260 N.am      3 SEP2        0.0000 
     61 CA         19.5473    0.5595   52.0563 C.3       2 GLC5        0.0000 
     62 CA         20.3380   -0.2750   53.4560 C.3       6 GLL5        0.0000 
     63 CA         18.4280    0.8020   50.8440 C.3       4 GLP5        0.0000 
     64 CA         19.3070    1.4743   52.5328 C.3       2 GLC5        0.0000 
     65 CA         19.5607    1.4067   56.9363 C.3       2 GLC5        0.0000 
     66 CA         19.7240    1.2350   58.9510 C.3       4 GLP5        0.0000 
     67 CA         18.8328    0.5930   52.8193 C.3       2 GLC5        0.0000 
     68 CA         19.0780    0.9910   55.1100 C.3       6 GLL5        0.0000 
     69 CA         20.5226   -1.6940   55.7666 C.3       2 GLC5        0.0000 
     70 CA         17.6100   -2.7348   52.3312 C.3       2 GLC5        0.0000 
     71 CA         17.4260   -1.9000   54.1900 C.3       6 GLL5        0.0000 
     72 CA         19.7780   -2.8533   56.8773 C.3       2 GLC5        0.0000 
     73 CA         17.6050   -2.5030   56.9970 C.3       6 GLL5        0.0000 
     74 CA         20.5928   -5.1387   57.1217 C.3       2 GLC5        0.0000 
     75 CA         18.6620   -4.9580   56.8990 C.3       6 GLL5        0.0000 
     76 CA         22.4850   -4.8430   57.8380 C.3       4 GLP5        0.0000 
     77 CA         16.7548   -2.9923   51.7855 C.3       2 GLC5        0.0000 
     78 CA         15.8000   -3.5740   53.5210 C.3       6 GLL5        0.0000 
     79 CA         14.9958   -2.7472   50.8957 C.3       2 GLC5        0.0000 
     80 CA         15.1670   -2.6030   52.7670 C.3       6 GLL5        0.0000 
     81 CA         17.1135   -2.0040   51.7375 C.3       2 GLC5        0.0000 
     82 CA         15.6380   -1.3020   52.6960 C.3       6 GLL5        0.0000 
     83 CA         17.3972   -0.2772   52.0447 C.3       2 GLC5        0.0000 
     84 CA         15.5226    1.6753   61.2916 C.3       2 GLC5        0.0000 
     85 CA         14.8740    2.7940   59.9280 C.3       4 GLP5        0.0000 
     86 CA         17.4231    0.8738   64.0021 C.3       2 GLC5        0.0000 
     87 CA         18.6750    1.1910   65.3490 C.3       4 GLP5        0.0000 
@<TRIPOS>BOND
@<TRIPOS>SUBSTRUCTURE
     1 SEC2       58 GROUP        1 X    SEC  0     ROOT SEC X 2
     2 GLC5        1 GROUP        1 X    GLC  0     **** GLC X 6
     3 SEP2       60 GROUP        1 Y    SEP  0     ROOT SEP Y 9
     4 GLP5        3 GROUP        1 Y    GLP  0     **** GLP Y 13
     5 SEL2       59 GROUP        1 Z    SEL  0     ROOT SEL Z 16
     6 GLL5        2 GROUP        1 Z    GLL  0     **** GLL Z 20
@<TRIPOS>SET

