#    Name: 3v66_D3A_1_ligand
#    Modification time : Tue Mar 25 00:05:59 2014

@<TRIPOS>MOLECULE
3v66_D3A_1_ligand
   68    72     1     0     0
SMALL
NO_CHARGES


@<TRIPOS>ATOM
      1 C37        21.8720   -2.1330   53.0910 C.3       1 D3A402      0.0000 
      2 O36        20.5930   -1.4920   52.8580 O.3       1 D3A402      0.0000 
      3 C21        20.3380   -0.2750   53.4560 C.ar      1 D3A402      0.0000 
      4 C20        20.9950    0.9090   53.0810 C.ar      1 D3A402      0.0000 
      5 O34        21.9090    0.7880   52.0390 O.3       1 D3A402      0.0000 
      6 C35        22.6030    1.9300   51.5030 C.3       1 D3A402      0.0000 
      7 C19        20.6550    2.1270   53.7100 C.ar      1 D3A402      0.0000 
      8 C18        19.7170    2.1660   54.7330 C.ar      1 D3A402      0.0000 
      9 C17        19.0780    0.9910   55.1100 C.ar      1 D3A402      0.0000 
     10 C8         19.3970   -0.2230   54.4790 C.ar      1 D3A402      0.0000 
     11 C7         18.6810   -1.4890   54.9610 C.3       1 D3A402      0.0000 
     12 C1         17.4260   -1.9000   54.1900 C.ar      1 D3A402      0.0000 
     13 O6         18.3420   -1.4210   56.3810 O.3       1 D3A402      0.0000 
     14 C5         17.6050   -2.5030   56.9970 C.3       1 D3A402      0.0000 
     15 C4         17.9650   -3.8720   56.3740 C.2       1 D3A402      0.0000 
     16 C10        18.6620   -4.9580   56.8990 C.2       1 D3A402      0.0000 
     17 C11        18.7390   -5.9110   55.9120 C.2       1 D3A402      0.0000 
     18 C12        18.1040   -5.4160   54.7630 C.2       1 D3A402      0.0000 
     19 N3         17.6340   -4.1350   55.0220 N.pl3     1 D3A402      0.0000 
     20 C2         16.9620   -3.2470   54.2810 C.ar      1 D3A402      0.0000 
     21 C13        15.8000   -3.5740   53.5210 C.ar      1 D3A402      0.0000 
     22 C14        15.1670   -2.6030   52.7670 C.ar      1 D3A402      0.0000 
     23 C15        15.6380   -1.3020   52.6960 C.ar      1 D3A402      0.0000 
     24 C16        16.7640   -0.9220   53.4000 C.ar      1 D3A402      0.0000 
     25 CL1        14.7780   -0.1290   51.7330 Cl        1 D3A402      0.0000 
     26 C9         17.7820   -2.2220   58.5160 C.3       1 D3A402      0.0000 
     27 C22        16.4850   -2.4580   59.3080 C.2       1 D3A402      0.0000 
     28 O24        15.4810   -2.8610   58.6750 O.2       1 D3A402      0.0000 
     29 N23        16.4370   -2.2480   60.6450 N.am      1 D3A402      0.0000 
     30 C25        15.1130   -2.2500   61.3600 C.3       1 D3A402      0.0000 
     31 C26        14.8050   -0.8850   62.0180 C.3       1 D3A402      0.0000 
     32 C27        16.0200   -0.1600   62.6730 C.3       1 D3A402      0.0000 
     33 C28        17.3090   -0.2100   61.8080 C.3       1 D3A402      0.0000 
     34 C29        17.6340   -1.6380   61.3480 C.3       1 D3A402      0.0000 
     35 C30        15.6780    1.2980   63.0700 C.3       1 D3A402      0.0000 
     36 C31        14.5610    1.4340   64.0850 C.2       1 D3A402      0.0000 
     37 O32        14.5690    0.6630   65.0570 O.co2     1 D3A402      0.0000 
     38 O33        13.6810    2.2960   63.8900 O.co2     1 D3A402      0.0000 
     39 H          21.1165    2.9955   53.3970 H         1 D3A402      0.0000 
     40 H          19.4989    3.0476   55.2032 H         1 D3A402      0.0000 
     41 H          18.3677    1.0031   55.8532 H         1 D3A402      0.0000 
     42 H          19.4085   -2.3398   54.8431 H         1 D3A402      0.0000 
     43 H          16.5210   -2.2975   56.7802 H         1 D3A402      0.0000 
     44 H          19.0130   -5.0175   57.7747 H         1 D3A402      0.0000 
     45 H          19.1497   -6.7665   55.9798 H         1 D3A402      0.0000 
     46 H          18.0140   -5.8884   53.9419 H         1 D3A402      0.0000 
     47 H          15.4486   -4.5365   53.5466 H         1 D3A402      0.0000 
     48 H          14.3052   -2.8576   52.2329 H         1 D3A402      0.0000 
     49 H          17.1230    0.0245   53.3660 H         1 D3A402      0.0000 
     50 H          18.0995   -1.1861   58.6442 H         1 D3A402      0.0000 
     51 H          18.5648   -2.8762   58.9026 H         1 D3A402      0.0000 
     52 H          15.1111   -3.0169   62.1414 H         1 D3A402      0.0000 
     53 H          14.3078   -2.4818   60.6553 H         1 D3A402      0.0000 
     54 H          14.0295   -1.0299   62.7917 H         1 D3A402      0.0000 
     55 H          14.3698   -0.2130   61.2564 H         1 D3A402      0.0000 
     56 H          16.2466   -0.6990   63.6179 H         1 D3A402      0.0000 
     57 H          18.1396    0.1782   62.3969 H         1 D3A402      0.0000 
     58 H          17.1687    0.4279   60.9357 H         1 D3A402      0.0000 
     59 H          18.4812   -1.6057   60.6681 H         1 D3A402      0.0000 
     60 H          17.8943   -2.2379   62.2160 H         1 D3A402      0.0000 
     61 H          15.4098    1.8505   62.1514 H         1 D3A402      0.0000 
     62 H          16.5950    1.7705   63.4663 H         1 D3A402      0.0000 
     63 H          22.6344   -1.5631   52.7844 H         1 D3A402      0.0000 
     64 H          22.0204   -2.3239   54.0613 H         1 D3A402      0.0000 
     65 H          21.9443   -3.0047   52.6064 H         1 D3A402      0.0000 
     66 H          23.1577    2.3874   52.1981 H         1 D3A402      0.0000 
     67 H          23.2191    1.6742   50.7580 H         1 D3A402      0.0000 
     68 H          21.9693    2.6121   51.1381 H         1 D3A402      0.0000 
@<TRIPOS>BOND
     1    2    1 1    
     2   63    1 1    
     3   64    1 1    
     4   65    1 1    
     5    3    2 1    
     6    4    3 ar   
     7   10    3 ar   
     8    5    4 1    
     9    7    4 ar   
    10    6    5 1    
    11   66    6 1    
    12   67    6 1    
    13   68    6 1    
    14    8    7 ar   
    15   39    7 1    
    16    9    8 ar   
    17   40    8 1    
    18   10    9 ar   
    19   41    9 1    
    20   11   10 1    
    21   12   11 1    
    22   13   11 1    
    23   42   11 1    
    24   20   12 ar   
    25   24   12 ar   
    26   14   13 1    
    27   15   14 1    
    28   26   14 1    
    29   43   14 1    
    30   16   15 2    
    31   19   15 1    
    32   17   16 1    
    33   44   16 1    
    34   18   17 2    
    35   45   17 1    
    36   19   18 1    
    37   46   18 1    
    38   20   19 1    
    39   21   20 ar   
    40   22   21 ar   
    41   47   21 1    
    42   23   22 ar   
    43   48   22 1    
    44   24   23 ar   
    45   25   23 1    
    46   49   24 1    
    47   27   26 1    
    48   50   26 1    
    49   51   26 1    
    50   28   27 2    
    51   29   27 am   
    52   30   29 1    
    53   34   29 1    
    54   31   30 1    
    55   52   30 1    
    56   53   30 1    
    57   32   31 1    
    58   54   31 1    
    59   55   31 1    
    60   33   32 1    
    61   35   32 1    
    62   56   32 1    
    63   34   33 1    
    64   57   33 1    
    65   58   33 1    
    66   59   34 1    
    67   60   34 1    
    68   36   35 1    
    69   61   35 1    
    70   62   35 1    
    71   37   36 ar   
    72   38   36 ar   
@<TRIPOS>SUBSTRUCTURE
     1 D3A402      1 GROUP   
@<TRIPOS>SET

