#    Name: 1g97_UD1_1_INTS_M
#    Modification time : Tue Mar 25 02:51:01 2014

@<TRIPOS>MOLECULE
1g97_UD1_1_INTS_M
   92     0    15     0     0
SMALL
NO_CHARGES


@<TRIPOS>ATOM
      1 CA         24.4295    9.6580  -27.1170 C.3       5 GLC5        0.0000 
      2 CA         25.6220    9.8490  -25.2990 C.3      15 GLL5        0.0000 
      3 CA         23.2370    9.4670  -28.9350 C.3      10 GLP5        0.0000 
      4 CA         27.8360   10.3350  -27.9815 C.3       5 GLC5        0.0000 
      5 CA         26.7430   10.3920  -26.2000 C.3      15 GLL5        0.0000 
      6 CA         28.9290   10.2780  -29.7630 C.3      10 GLP5        0.0000 
      7 CA         26.6330   12.7730  -27.5735 C.3       5 GLC5        0.0000 
      8 CA         27.1220   11.7950  -25.7690 C.3      15 GLL5        0.0000 
      9 CA         26.1440   13.7510  -29.3780 C.3      10 GLP5        0.0000 
     10 CA         26.9810   15.1395  -24.9035 C.3       5 GLC5        0.0000 
     11 CA         27.5900   13.3670  -23.8970 C.3      15 GLL5        0.0000 
     12 CA         26.3720   16.9120  -25.9100 C.3      10 GLP5        0.0000 
     13 CA         25.5955   13.9530  -24.3895 C.3       5 GLC5        0.0000 
     14 CA         23.6010   14.5390  -24.8820 C.3      10 GLP5        0.0000 
     15 CA         25.3455    6.0755  -27.4800 C.3       5 GLC5        0.0000 
     16 CA         23.9030    6.4860  -26.0550 C.3      15 GLL5        0.0000 
     17 CA         26.7880    5.6650  -28.9050 C.3      10 GLP5        0.0000 
     18 CA         23.6195    4.8170  -26.5870 C.3       5 GLC5        0.0000 
     19 CA         23.3360    3.1480  -27.1190 C.3      10 GLP5        0.0000 
     20 CA         23.5700    7.9765  -27.4950 C.3       5 GLC5        0.0000 
     21 O          26.3060    7.7410  -26.3545 O.2       1 ALC1        0.0000 
     22 O          25.3180    8.4520  -25.6890 O.2      11 ALL1        0.0000 
     23 O          27.2940    7.0300  -27.0200 O.2       6 ALP1        0.0000 
     24 N          27.9455   10.5835  -28.0545 N.am      2 SEC2        0.0000 
     25 N          26.3420   10.4270  -27.5720 N.am     12 SEL2        0.0000 
     26 N          29.5490   10.7400  -28.5370 N.am      7 SEP2        0.0000 
     27 N          25.4300   11.4945  -27.8060 N.am      2 SEC2        0.0000 
     28 N          24.5180   12.5620  -28.0400 N.am      7 SEP2        0.0000 
     29 O          26.3815    9.2195  -28.1790 O.2       1 ALC1        0.0000 
     30 O          26.3420   10.4270  -27.5720 O.2      11 ALL1        0.0000 
     31 O          26.4210    8.0120  -28.7860 O.2       6 ALP1        0.0000 
     32 N          28.8940   11.4865  -27.5430 N.am      2 SEC2        0.0000 
     33 N          28.2390   12.2330  -26.5490 N.am     12 SEL2        0.0000 
     34 O          28.0180   13.5250  -26.7915 O.2       1 ALC1        0.0000 
     35 O          28.2390   12.2330  -26.5490 O.2      11 ALL1        0.0000 
     36 O          27.7970   14.8170  -27.0340 O.2       6 ALP1        0.0000 
     37 N          22.0540    7.6855  -24.8040 N.am      2 SEC2        0.0000 
     38 N          23.1520    8.5780  -25.1570 N.am     12 SEL2        0.0000 
     39 N          20.9560    6.7930  -24.4510 N.am      7 SEP2        0.0000 
     40 O          18.6430    4.5805  -17.2880 O.2       1 ALC1        0.0000 
     41 O          19.7600    5.1020  -17.8550 O.2      11 ALL1        0.0000 
     42 O          17.5260    4.0590  -16.7210 O.2       6 ALP1        0.0000 
     43 CA         21.0280    3.6040  -20.5305 C.3       5 GLC5        0.0000 
     44 CA         21.9050    4.6440  -18.9620 C.3      15 GLL5        0.0000 
     45 CA         20.1510    2.5640  -22.0990 C.3      10 GLP5        0.0000 
     46 N          19.3480    7.6110  -15.5435 N.am      2 SEC2        0.0000 
     47 N          19.3120    7.2350  -17.0580 N.am     12 SEL2        0.0000 
     48 N          19.3840    7.9870  -14.0290 N.am      7 SEP2        0.0000 
     49 N          18.7080    2.9620  -18.6635 N.am      2 SEC2        0.0000 
     50 N          20.3220    3.0410  -18.7410 N.am     12 SEL2        0.0000 
     51 N          17.0940    2.8830  -18.5860 N.am      7 SEP2        0.0000 
     52 N          20.0440    2.2970  -19.9365 N.am      2 SEC2        0.0000 
     53 N          19.7660    1.5530  -21.1320 N.am      7 SEP2        0.0000 
     54 CA         20.3770    9.5105  -18.2130 C.3       5 GLC5        0.0000 
     55 CA         21.7890    8.2690  -17.9130 C.3      15 GLL5        0.0000 
     56 CA         18.9650   10.7520  -18.5130 C.3      10 GLP5        0.0000 
     57 CA         21.7385    7.8865  -20.0835 C.3       5 GLC5        0.0000 
     58 CA         21.6880    7.5040  -22.2540 C.3      10 GLP5        0.0000 
     59 N          22.0605    7.4340  -15.1375 N.am      2 SEC2        0.0000 
     60 N          22.6450    8.6380  -15.7270 N.am     12 SEL2        0.0000 
     61 N          21.4760    6.2300  -14.5480 N.am      7 SEP2        0.0000 
     62 CA         20.9495   10.3505  -18.7830 C.3       5 GLC5        0.0000 
     63 CA         22.9340    9.9490  -19.0530 C.3      15 GLL5        0.0000 
     64 N          22.5335   12.5640  -16.8840 N.am      2 SEC2        0.0000 
     65 N          22.8810   11.0180  -16.8920 N.am     12 SEL2        0.0000 
     66 N          22.1860   14.1100  -16.8760 N.am      7 SEP2        0.0000 
     67 NZ         27.4330    9.1160  -17.7510 N.4       3 LYC4        0.0000 
     68 NZ         26.8420    9.0720  -19.0720 N.4      13 LYL4        0.0000 
     69 NZ         28.0240    9.1600  -16.4300 N.4       8 LYP4        0.0000 
     70 Zn         27.4165    9.8620  -19.4160 Zn        4 ZIC7        0.0000 
     71 Zn         26.8420    9.0720  -19.0720 Zn       14 ZIL7        0.0000 
     72 Zn         27.9910   10.6520  -19.7600 Zn        9 ZIP7        0.0000 
     73 N          27.4330    9.1160  -17.7510 N.am      2 SEC2        0.0000 
     74 N          26.8420    9.0720  -19.0720 N.am     12 SEL2        0.0000 
     75 N          28.0240    9.1600  -16.4300 N.am      7 SEP2        0.0000 
     76 Zn         28.2035   10.2010  -20.6445 Zn        4 ZIC7        0.0000 
     77 Zn         28.4160    9.7500  -21.5290 Zn       14 ZIL7        0.0000 
     78 N          29.7730    9.5720  -21.0150 N.am      2 SEC2        0.0000 
     79 N          28.4160    9.7500  -21.5290 N.am     12 SEL2        0.0000 
     80 N          31.1300    9.3940  -20.5010 N.am      7 SEP2        0.0000 
     81 CA         29.2925   13.3665  -24.7160 C.3       5 GLC5        0.0000 
     82 CA         27.4160   11.8870  -24.2550 C.3      15 GLL5        0.0000 
     83 CA         31.0820   14.1060  -25.3560 C.3      10 GLP5        0.0000 
     84 CA         22.3835    5.3853  -16.8540 C.3       5 GLC5        0.0000 
     85 CA         22.2630    5.9510  -18.7580 C.3      15 GLL5        0.0000 
     86 CA         22.6830    5.4730  -14.8480 C.3      10 GLP5        0.0000 
     87 CA         21.8860    6.4007  -20.5570 C.3       5 GLC5        0.0000 
     88 CA         22.5493    6.9413  -16.1733 C.3       5 GLC5        0.0000 
     89 CA         22.5795    8.6242  -20.9055 C.3       5 GLC5        0.0000 
     90 CA         23.3740   11.7196  -19.5516 C.3       5 GLC5        0.0000 
     91 CA         24.0080    9.5400  -20.0610 C.3      15 GLL5        0.0000 
     92 CA         23.1420   13.6990  -19.9080 C.3      10 GLP5        0.0000 
@<TRIPOS>BOND
@<TRIPOS>SUBSTRUCTURE
     1 ALC1       21 GROUP        1 X    ALC  0     ROOT ALC X 1
     2 SEC2       24 GROUP        1 X    SEC  0     **** SEC X 2
     3 LYC4       67 GROUP        1 X    LYC  0     **** LYC X 4
     4 ZIC7       70 GROUP        1 X    ZIC  0     **** ZIC X 5
     5 GLC5        1 GROUP        1 X    GLC  0     **** GLC X 6
     6 ALP1       23 GROUP        1 Y    ALP  0     ROOT ALP Y 8
     7 SEP2       26 GROUP        1 Y    SEP  0     **** SEP Y 9
     8 LYP4       69 GROUP        1 Y    LYP  0     **** LYP Y 11
     9 ZIP7       72 GROUP        1 Y    ZIP  0     **** ZIP Y 12
    10 GLP5        3 GROUP        1 Y    GLP  0     **** GLP Y 13
    11 ALL1       22 GROUP        1 Z    ALL  0     ROOT ALL Z 15
    12 SEL2       25 GROUP        1 Z    SEL  0     **** SEL Z 16
    13 LYL4       68 GROUP        1 Z    LYL  0     **** LYL Z 18
    14 ZIL7       71 GROUP        1 Z    ZIL  0     **** ZIL Z 19
    15 GLL5        2 GROUP        1 Z    GLL  0     **** GLL Z 20
@<TRIPOS>SET

