#    Name: 1g97_UD1_1_ligand
#    Modification time : Tue Mar 25 02:51:01 2014

@<TRIPOS>MOLECULE
1g97_UD1_1_ligand
   64    66     1     0     0
SMALL
NO_CHARGES


@<TRIPOS>ATOM
      1 C1'        26.0520    9.9340  -23.8160 C.3       1 UD1500      0.0000 
      2 C2'        25.6220    9.8490  -25.2990 C.3       1 UD1500      0.0000 
      3 C3'        26.7430   10.3920  -26.2000 C.3       1 UD1500      0.0000 
      4 C4'        27.1220   11.7950  -25.7690 C.3       1 UD1500      0.0000 
      5 C5'        27.4160   11.8870  -24.2550 C.3       1 UD1500      0.0000 
      6 C6'        27.5900   13.3670  -23.8970 C.3       1 UD1500      0.0000 
      7 C7'        24.0760    7.9070  -25.5900 C.2       1 UD1500      0.0000 
      8 C8'        23.9030    6.4860  -26.0550 C.3       1 UD1500      0.0000 
      9 N2'        25.3180    8.4520  -25.6890 N.am      1 UD1500      0.0000 
     10 O1'        27.2110    9.1080  -23.6570 O.3       1 UD1500      0.0000 
     11 O3'        26.3420   10.4270  -27.5720 O.3       1 UD1500      0.0000 
     12 O4'        28.2390   12.2330  -26.5490 O.3       1 UD1500      0.0000 
     13 O5'        26.3470   11.3080  -23.4620 O.3       1 UD1500      0.0000 
     14 O6'        27.9040   13.5710  -22.5160 O.3       1 UD1500      0.0000 
     15 O7'        23.1520    8.5780  -25.1570 O.2       1 UD1500      0.0000 
     16 N1         21.3800    6.8520  -18.1070 N.am      1 UD1500      0.0000 
     17 C2         20.1030    6.4570  -17.6300 C.2       1 UD1500      0.0000 
     18 N3         19.7600    5.1020  -17.8550 N.am      1 UD1500      0.0000 
     19 C4         20.6130    4.2150  -18.5000 C.2       1 UD1500      0.0000 
     20 C5         21.9050    4.6440  -18.9620 C.2       1 UD1500      0.0000 
     21 C6         22.2630    5.9510  -18.7580 C.2       1 UD1500      0.0000 
     22 O2         19.3120    7.2350  -17.0580 O.2       1 UD1500      0.0000 
     23 O4         20.3220    3.0410  -18.7410 O.2       1 UD1500      0.0000 
     24 C1B        21.7890    8.2690  -17.9130 C.3       1 UD1500      0.0000 
     25 C2B        23.0420    8.5500  -17.0840 C.3       1 UD1500      0.0000 
     26 O2'        22.6450    8.6380  -15.7270 O.3       1 UD1500      0.0000 
     27 C3B        23.4740    9.9320  -17.6060 C.3       1 UD1500      0.0000 
     28 C4B        22.9340    9.9490  -19.0530 C.3       1 UD1500      0.0000 
     29 O4B        21.8840    8.9740  -19.1480 O.3       1 UD1500      0.0000 
     30 O3B        22.8810   11.0180  -16.8920 O.3       1 UD1500      0.0000 
     31 C5B        24.0080    9.5400  -20.0610 C.3       1 UD1500      0.0000 
     32 O5B        24.5120    8.2470  -19.7590 O.3       1 UD1500      0.0000 
     33 PA         26.1160    8.0140  -19.8540 P.3       1 UD1500      0.0000 
     34 O1A        26.8420    9.0720  -19.0720 O.co2     1 UD1500      0.0000 
     35 O2A        26.4310    6.6250  -19.4620 O.co2     1 UD1500      0.0000 
     36 O3A        26.3720    8.2190  -21.4400 O.3       1 UD1500      0.0000 
     37 PB         27.7380    8.5910  -22.2170 P.3       1 UD1500      0.0000 
     38 O1B        28.5560    7.3660  -22.4470 O.co2     1 UD1500      0.0000 
     39 O2B        28.4160    9.7500  -21.5290 O.co2     1 UD1500      0.0000 
     40 H          25.2308    9.5545  -23.2300 H         1 UD1500      0.0000 
     41 H          24.7525   10.4708  -25.4359 H         1 UD1500      0.0000 
     42 H          27.6131    9.7581  -26.0669 H         1 UD1500      0.0000 
     43 H          26.2553   12.4432  -25.9695 H         1 UD1500      0.0000 
     44 H          28.3558   11.3920  -24.0706 H         1 UD1500      0.0000 
     45 H          26.6536   13.8879  -24.1800 H         1 UD1500      0.0000 
     46 H          28.3815   13.7758  -24.5564 H         1 UD1500      0.0000 
     47 H          26.1267    7.9031  -26.0497 H         1 UD1500      0.0000 
     48 H          18.8317    4.7685  -17.5206 H         1 UD1500      0.0000 
     49 H          22.5099    3.9763  -19.4210 H         1 UD1500      0.0000 
     50 H          23.1799    6.3051  -19.0731 H         1 UD1500      0.0000 
     51 H          20.9389    8.7746  -17.3289 H         1 UD1500      0.0000 
     52 H          23.7630    7.8512  -17.3019 H         1 UD1500      0.0000 
     53 H          24.5254    9.9661  -17.6587 H         1 UD1500      0.0000 
     54 H          22.5836   10.9214  -19.2849 H         1 UD1500      0.0000 
     55 H          24.7986   10.3054  -20.0316 H         1 UD1500      0.0000 
     56 H          23.5540    9.5794  -21.0631 H         1 UD1500      0.0000 
     57 H          24.1329    6.3813  -27.0226 H         1 UD1500      0.0000 
     58 H          24.4871    5.8546  -25.5449 H         1 UD1500      0.0000 
     59 H          22.9609    6.1702  -25.9417 H         1 UD1500      0.0000 
     60 H          26.4003    9.4783  -27.8828 H         1 UD1500      0.0000 
     61 H          28.0597   13.1984  -26.7382 H         1 UD1500      0.0000 
     62 H          28.0938   14.5495  -22.4357 H         1 UD1500      0.0000 
     63 H          22.5236    9.6158  -15.5559 H         1 UD1500      0.0000 
     64 H          23.6490   11.5948  -16.6139 H         1 UD1500      0.0000 
@<TRIPOS>BOND
     1    2    1 1    
     2   10    1 1    
     3   13    1 1    
     4   40    1 1    
     5    3    2 1    
     6    9    2 1    
     7   41    2 1    
     8    4    3 1    
     9   11    3 1    
    10   42    3 1    
    11    5    4 1    
    12   12    4 1    
    13   43    4 1    
    14    6    5 1    
    15   13    5 1    
    16   44    5 1    
    17   14    6 1    
    18   45    6 1    
    19   46    6 1    
    20    8    7 1    
    21    9    7 am   
    22   15    7 2    
    23   57    8 1    
    24   58    8 1    
    25   59    8 1    
    26   47    9 1    
    27   37   10 1    
    28   60   11 1    
    29   61   12 1    
    30   62   14 1    
    31   17   16 1    
    32   21   16 1    
    33   24   16 1    
    34   18   17 1    
    35   22   17 2    
    36   19   18 1    
    37   48   18 1    
    38   20   19 1    
    39   23   19 2    
    40   21   20 2    
    41   49   20 1    
    42   50   21 1    
    43   25   24 1    
    44   29   24 1    
    45   51   24 1    
    46   26   25 1    
    47   27   25 1    
    48   52   25 1    
    49   63   26 1    
    50   28   27 1    
    51   30   27 1    
    52   53   27 1    
    53   29   28 1    
    54   31   28 1    
    55   54   28 1    
    56   64   30 1    
    57   32   31 1    
    58   55   31 1    
    59   56   31 1    
    60   33   32 1    
    61   34   33 ar   
    62   35   33 ar   
    63   36   33 1    
    64   37   36 1    
    65   38   37 ar   
    66   39   37 ar   
@<TRIPOS>SUBSTRUCTURE
     1 UD1500      1 GROUP   
@<TRIPOS>SET

