#    Name: 3sd0_TSK_2_INTS_M
#    Modification time : Tue Mar 25 12:25:27 2014

@<TRIPOS>MOLECULE
3sd0_TSK_2_INTS_M
   62     0     9     0     0
SMALL
NO_CHARGES


@<TRIPOS>ATOM
      1 O          31.8510   -3.5380  -29.1870 O.2       1 ALC1        0.0000 
      2 O          31.6370   -4.8930  -28.7930 O.2       7 ALL1        0.0000 
      3 O          32.0650   -2.1830  -29.5810 O.2       4 ALP1        0.0000 
      4 N          28.8340   -2.9160  -28.3460 N.am      2 SEC2        0.0000 
      5 N          29.6700   -3.9880  -27.9610 N.am      8 SEL2        0.0000 
      6 N          27.9980   -1.8440  -28.7310 N.am      5 SEP2        0.0000 
      7 CA         33.4605   -9.5490  -24.4430 C.3       3 GLC5        0.0000 
      8 CA         32.7740  -10.1480  -26.3480 C.3       9 GLL5        0.0000 
      9 CA         34.1470   -8.9500  -22.5380 C.3       6 GLP5        0.0000 
     10 CA         35.6060   -8.9970  -26.5330 C.3       3 GLC5        0.0000 
     11 CA         33.6330   -8.0010  -26.6090 C.3       9 GLL5        0.0000 
     12 CA         37.5790   -9.9930  -26.4570 C.3       6 GLP5        0.0000 
     13 CA         35.0965   -6.8135  -27.5280 C.3       3 GLC5        0.0000 
     14 CA         36.5600   -5.6260  -28.4470 C.3       6 GLP5        0.0000 
     15 CA         24.9615   -4.3180  -25.9040 C.3       3 GLC5        0.0000 
     16 CA         25.8820   -6.0770  -25.2620 C.3       9 GLL5        0.0000 
     17 CA         24.0410   -2.5590  -26.5460 C.3       6 GLP5        0.0000 
     18 CA         24.9870   -7.5120  -26.3170 C.3       3 GLC5        0.0000 
     19 CA         24.0920   -8.9470  -27.3720 C.3       6 GLP5        0.0000 
     20 CA         26.4510   -6.7530  -27.2475 C.3       3 GLC5        0.0000 
     21 CA         27.0200   -7.4290  -29.2330 C.3       6 GLP5        0.0000 
     22 CA         32.4590   -9.3095  -22.7295 C.3       3 GLC5        0.0000 
     23 CA         30.7710   -9.6690  -22.9210 C.3       9 GLL5        0.0000 
     24 CA         29.4040   -9.6985  -20.4045 C.3       3 GLC5        0.0000 
     25 CA         27.8990  -10.0450  -21.5280 C.3       9 GLL5        0.0000 
     26 CA         30.9090   -9.3520  -19.2810 C.3       6 GLP5        0.0000 
     27 CA         34.5475  -14.0815  -23.9695 C.3       3 GLC5        0.0000 
     28 CA         34.0710  -13.4760  -25.5840 C.3       9 GLL5        0.0000 
     29 CA         35.0240  -14.6870  -22.3550 C.3       6 GLP5        0.0000 
     30 CA         35.5720  -12.4490  -26.0130 C.3       3 GLC5        0.0000 
     31 CA         37.0730  -11.4220  -26.4420 C.3       6 GLP5        0.0000 
     32 CA         33.6250  -13.1210  -27.6740 C.3       3 GLC5        0.0000 
     33 CA         33.1790  -12.7660  -29.7640 C.3       6 GLP5        0.0000 
     34 CA         32.1340   -4.8803  -26.4457 C.3       3 GLC5        0.0000 
     35 CA         31.6570   -6.8640  -27.5340 C.3       9 GLL5        0.0000 
     36 CA         33.1800   -3.3070  -25.5930 C.3       6 GLP5        0.0000 
     37 CA         29.9300   -6.3982  -28.9222 C.3       3 GLC5        0.0000 
     38 CA         30.5190   -6.0430  -27.0630 C.3       9 GLL5        0.0000 
     39 CA         28.7720   -6.3430  -30.5460 C.3       6 GLP5        0.0000 
     40 CA         31.0897   -8.5838  -28.9105 C.3       3 GLC5        0.0000 
     41 CA         30.1970   -9.6860  -30.5370 C.3       6 GLP5        0.0000 
     42 CA         33.2233   -7.3485  -24.8998 C.3       3 GLC5        0.0000 
     43 CA         32.3080   -8.0990  -27.0340 C.3       9 GLL5        0.0000 
     44 CA         33.4760   -6.6470  -22.9780 C.3       6 GLP5        0.0000 
     45 CA         34.9030  -11.1173  -26.3185 C.3       3 GLC5        0.0000 
     46 CA         32.9560  -11.7893  -27.9795 C.3       3 GLC5        0.0000 
     47 CA         32.6920  -11.4770  -26.0420 C.3       9 GLL5        0.0000 
     48 CA         29.5602   -5.9322  -23.9282 C.3       3 GLC5        0.0000 
     49 CA         29.2990   -7.2990  -25.1110 C.3       9 GLL5        0.0000 
     50 CA         29.7910   -5.0490  -22.2120 C.3       6 GLP5        0.0000 
     51 CA         27.8770   -6.7497  -27.7548 C.3       3 GLC5        0.0000 
     52 CA         29.3600   -6.3320  -26.1780 C.3       9 GLL5        0.0000 
     53 CA         30.4789  -10.1312  -28.7308 C.3       3 GLC5        0.0000 
     54 CA         31.7230   -9.4550  -26.8890 C.3       9 GLL5        0.0000 
     55 CA         32.0615  -12.2598  -28.1615 C.3       3 GLC5        0.0000 
     56 CA         30.4080  -11.4010  -26.8310 C.3       9 GLL5        0.0000 
     57 CA         31.7675   -7.5643  -23.5010 C.3       3 GLC5        0.0000 
     58 CA         30.2560   -8.0860  -24.5410 C.3       9 GLL5        0.0000 
     59 CA         30.6127   -9.3125  -21.2475 C.3       3 GLC5        0.0000 
     60 CA         29.8620   -8.8770  -23.5070 C.3       9 GLL5        0.0000 
     61 CA         29.4516   -6.7016  -23.0205 C.3       3 GLC5        0.0000 
     62 CA         28.5430   -8.8280  -23.0860 C.3       9 GLL5        0.0000 
@<TRIPOS>BOND
@<TRIPOS>SUBSTRUCTURE
     1 ALC1        1 GROUP        1 X    ALC  0     ROOT ALC X 1
     2 SEC2        4 GROUP        1 X    SEC  0     **** SEC X 2
     3 GLC5        7 GROUP        1 X    GLC  0     **** GLC X 6
     4 ALP1        3 GROUP        1 Y    ALP  0     ROOT ALP Y 8
     5 SEP2        6 GROUP        1 Y    SEP  0     **** SEP Y 9
     6 GLP5        9 GROUP        1 Y    GLP  0     **** GLP Y 13
     7 ALL1        2 GROUP        1 Z    ALL  0     ROOT ALL Z 15
     8 SEL2        5 GROUP        1 Z    SEL  0     **** SEL Z 16
     9 GLL5        8 GROUP        1 Z    GLL  0     **** GLL Z 20
@<TRIPOS>SET

