#    Name: 3sd0_TSK_2_ligand
#    Modification time : Tue Mar 25 12:25:27 2014

@<TRIPOS>MOLECULE
3sd0_TSK_2_ligand
   44    48     1     0     0
SMALL
NO_CHARGES


@<TRIPOS>ATOM
      1 N1         31.6370   -4.8930  -28.7930 N.am      1 TSK400      0.0000 
      2 C2         32.3190   -6.0150  -28.5120 C.2       1 TSK400      0.0000 
      3 C3         31.6570   -6.8640  -27.5340 C.2       1 TSK400      0.0000 
      4 C4         30.5190   -6.0430  -27.0630 C.2       1 TSK400      0.0000 
      5 C5         30.5500   -4.9110  -27.9850 C.2       1 TSK400      0.0000 
      6 O6         29.6700   -3.9880  -27.9610 O.2       1 TSK400      0.0000 
      7 O7         33.3920   -6.3600  -29.0940 O.2       1 TSK400      0.0000 
      8 C8         32.3080   -8.0990  -27.0340 C.2       1 TSK400      0.0000 
      9 C9         31.7230   -9.4550  -26.8890 C.ar      1 TSK400      0.0000 
     10 C10        32.7740  -10.1480  -26.3480 C.ar      1 TSK400      0.0000 
     11 O11        33.9280   -9.3640  -26.1610 O.3       1 TSK400      0.0000 
     12 C12        33.6330   -8.0010  -26.6090 C.2       1 TSK400      0.0000 
     13 C13        29.3600   -6.3320  -26.1780 C.2       1 TSK400      0.0000 
     14 C14        28.1080   -5.8090  -26.3750 C.2       1 TSK400      0.0000 
     15 N15        27.3160   -6.3660  -25.4490 N.pl3     1 TSK400      0.0000 
     16 C16        27.9880   -7.2320  -24.7020 C.ar      1 TSK400      0.0000 
     17 C17        29.2990   -7.2990  -25.1110 C.ar      1 TSK400      0.0000 
     18 C18        30.5040  -10.0490  -27.1470 C.ar      1 TSK400      0.0000 
     19 C19        30.4080  -11.4010  -26.8310 C.ar      1 TSK400      0.0000 
     20 C20        31.4800  -12.1060  -26.2870 C.ar      1 TSK400      0.0000 
     21 C21        32.6920  -11.4770  -26.0420 C.ar      1 TSK400      0.0000 
     22 C22        30.2560   -8.0860  -24.5410 C.ar      1 TSK400      0.0000 
     23 C23        29.8620   -8.8770  -23.5070 C.ar      1 TSK400      0.0000 
     24 C24        28.5430   -8.8280  -23.0860 C.ar      1 TSK400      0.0000 
     25 C25        27.5870   -8.0200  -23.6620 C.ar      1 TSK400      0.0000 
     26 C26        25.8820   -6.0770  -25.2620 C.3       1 TSK400      0.0000 
     27 F30        30.7710   -9.6690  -22.9210 F         1 TSK400      0.0000 
     28 I31        27.8990  -10.0450  -21.5280 I         1 TSK400      0.0000 
     29 O32        33.8050  -12.0810  -25.5090 O.3       1 TSK400      0.0000 
     30 C33        34.0710  -13.4760  -25.5840 C.3       1 TSK400      0.0000 
     31 H          31.8634   -4.2221  -29.4252 H         1 TSK400      0.0000 
     32 H          34.1972   -7.3040  -26.5952 H         1 TSK400      0.0000 
     33 H          27.8683   -5.1765  -27.0427 H         1 TSK400      0.0000 
     34 H          29.7329   -9.5433  -27.5373 H         1 TSK400      0.0000 
     35 H          29.5118  -11.8997  -27.0053 H         1 TSK400      0.0000 
     36 H          31.3680  -13.1092  -26.0644 H         1 TSK400      0.0000 
     37 H          31.2156   -8.0804  -24.8737 H         1 TSK400      0.0000 
     38 H          26.6312   -8.0154  -23.3243 H         1 TSK400      0.0000 
     39 H          25.7214   -5.1115  -25.0569 H         1 TSK400      0.0000 
     40 H          25.3494   -6.2955  -26.0797 H         1 TSK400      0.0000 
     41 H          25.4918   -6.6056  -24.5081 H         1 TSK400      0.0000 
     42 H          34.9324  -13.7145  -25.1355 H         1 TSK400      0.0000 
     43 H          33.3526  -14.0152  -25.1445 H         1 TSK400      0.0000 
     44 H          34.1365  -13.7912  -26.5308 H         1 TSK400      0.0000 
@<TRIPOS>BOND
     1    2    1 am   
     2    5    1 am   
     3   31    1 1    
     4    3    2 1    
     5    7    2 2    
     6    4    3 2    
     7    8    3 1    
     8    5    4 1    
     9   13    4 1    
    10    6    5 2    
    11    9    8 1    
    12   12    8 2    
    13   10    9 ar   
    14   18    9 ar   
    15   11   10 1    
    16   21   10 ar   
    17   12   11 1    
    18   32   12 1    
    19   14   13 2    
    20   17   13 1    
    21   15   14 1    
    22   33   14 1    
    23   16   15 1    
    24   26   15 1    
    25   17   16 ar   
    26   25   16 ar   
    27   22   17 ar   
    28   19   18 ar   
    29   34   18 1    
    30   20   19 ar   
    31   35   19 1    
    32   21   20 ar   
    33   36   20 1    
    34   29   21 1    
    35   23   22 ar   
    36   37   22 1    
    37   24   23 ar   
    38   27   23 1    
    39   25   24 ar   
    40   28   24 1    
    41   38   25 1    
    42   39   26 1    
    43   40   26 1    
    44   41   26 1    
    45   30   29 1    
    46   42   30 1    
    47   43   30 1    
    48   44   30 1    
@<TRIPOS>SUBSTRUCTURE
     1 TSK400      1 GROUP   
@<TRIPOS>SET

