#    Name: 4kq1_U5P_3_INTS_M
#    Modification time : Tue Mar 25 08:18:44 2014

@<TRIPOS>MOLECULE
4kq1_U5P_3_INTS_M
   43     0    12     0     0
SMALL
NO_CHARGES


@<TRIPOS>ATOM
      1 CA         28.4160   52.2860  -24.8475 C.3       4 GLC5        0.0000 
      2 CA         29.2810   54.3010  -24.4900 C.3      12 GLL5        0.0000 
      3 CA         27.5510   50.2710  -25.2050 C.3       8 GLP5        0.0000 
      4 CA         28.2005   53.3090  -22.7945 C.3       4 GLC5        0.0000 
      5 CA         27.1200   52.3170  -21.0990 C.3       8 GLP5        0.0000 
      6 CA         27.7305   55.0720  -24.2200 C.3       4 GLC5        0.0000 
      7 CA         26.1800   55.8430  -23.9500 C.3       8 GLP5        0.0000 
      8 CA         30.5330   53.2270  -24.1565 C.3       4 GLC5        0.0000 
      9 CA         31.7850   52.1530  -23.8230 C.3       8 GLP5        0.0000 
     10 CA         27.8610   55.6815  -25.4170 C.3       4 GLC5        0.0000 
     11 CA         29.3170   54.6670  -25.8280 C.3      12 GLL5        0.0000 
     12 CA         26.4050   56.6960  -25.0060 C.3       8 GLP5        0.0000 
     13 CA         30.2310   52.9965  -25.2820 C.3       4 GLC5        0.0000 
     14 CA         31.1450   51.3260  -24.7360 C.3       8 GLP5        0.0000 
     15 N          30.9100   58.8625  -25.8165 N.am      2 SEC2        0.0000 
     16 N          31.5310   57.3830  -25.5680 N.am     10 SEL2        0.0000 
     17 N          30.2890   60.3420  -26.0650 N.am      6 SEP2        0.0000 
     18 N          30.0160   54.9660  -20.9745 N.am      2 SEC2        0.0000 
     19 N          30.0170   54.6590  -22.3720 N.am     10 SEL2        0.0000 
     20 N          30.0150   55.2730  -19.5770 N.am      6 SEP2        0.0000 
     21 CA         28.6340   56.9685  -26.2190 C.3       4 GLC5        0.0000 
     22 CA         30.0720   56.1190  -27.6180 C.3      12 GLL5        0.0000 
     23 CA         27.1960   57.8180  -24.8200 C.3       8 GLP5        0.0000 
     24 CA         31.7430   53.7895  -27.5035 C.3       4 GLC5        0.0000 
     25 CA         30.9870   55.3460  -28.5230 C.3      12 GLL5        0.0000 
     26 CA         32.4990   52.2330  -26.4840 C.3       8 GLP5        0.0000 
     27 O          32.6165   54.7700  -28.9555 O.2       1 ALC1        0.0000 
     28 O          32.2950   55.8970  -28.3870 O.2       9 ALL1        0.0000 
     29 O          32.9380   53.6430  -29.5240 O.2       5 ALP1        0.0000 
     30 CA         30.5385   55.0420  -31.8590 C.3       4 GLC5        0.0000 
     31 CA         30.3610   55.5630  -29.9000 C.3      12 GLL5        0.0000 
     32 CA         30.7160   54.5210  -33.8180 C.3       8 GLP5        0.0000 
     33 CA         26.5780   54.0590  -28.8235 C.3       4 GLC5        0.0000 
     34 CA         27.9470   54.9070  -30.1600 C.3      12 GLL5        0.0000 
     35 CA         25.2090   53.2110  -27.4870 C.3       8 GLP5        0.0000 
     36 CA         28.2750   52.7300  -30.5630 C.3       4 GLC5        0.0000 
     37 CA         28.6030   50.5530  -30.9660 C.3       8 GLP5        0.0000 
     38 N          24.2910   55.1455  -28.9275 N.am      2 SEC2        0.0000 
     39 N          25.2240   55.5210  -30.0140 N.am     10 SEL2        0.0000 
     40 N          23.3580   54.7700  -27.8410 N.am      6 SEP2        0.0000 
     41 NZ         23.9690   57.1795  -32.2065 N.4       3 LYC4        0.0000 
     42 NZ         25.6490   56.9870  -32.0170 N.4      11 LYL4        0.0000 
     43 NZ         22.2890   57.3720  -32.3960 N.4       7 LYP4        0.0000 
@<TRIPOS>BOND
@<TRIPOS>SUBSTRUCTURE
     1 ALC1       27 GROUP        1 X    ALC  0     ROOT ALC X 1
     2 SEC2       15 GROUP        1 X    SEC  0     **** SEC X 2
     3 LYC4       41 GROUP        1 X    LYC  0     **** LYC X 4
     4 GLC5        1 GROUP        1 X    GLC  0     **** GLC X 6
     5 ALP1       29 GROUP        1 Y    ALP  0     ROOT ALP Y 8
     6 SEP2       17 GROUP        1 Y    SEP  0     **** SEP Y 9
     7 LYP4       43 GROUP        1 Y    LYP  0     **** LYP Y 11
     8 GLP5        3 GROUP        1 Y    GLP  0     **** GLP Y 13
     9 ALL1       28 GROUP        1 Z    ALL  0     ROOT ALL Z 15
    10 SEL2       16 GROUP        1 Z    SEL  0     **** SEL Z 16
    11 LYL4       42 GROUP        1 Z    LYL  0     **** LYL Z 18
    12 GLL5        2 GROUP        1 Z    GLL  0     **** GLL Z 20
@<TRIPOS>SET

