#    Name: 4kq1_U5P_3_ligand
#    Modification time : Tue Mar 25 08:18:44 2014

@<TRIPOS>MOLECULE
4kq1_U5P_3_ligand
   32    33     1     0     0
SMALL
NO_CHARGES


@<TRIPOS>ATOM
      1 N1         30.0770   55.6960  -26.2110 N.am      1 U5P801      0.0000 
      2 C2         30.8310   56.4100  -25.2460 C.2       1 U5P801      0.0000 
      3 N3         30.8060   56.0480  -23.9610 N.am      1 U5P801      0.0000 
      4 C4         30.0440   55.0090  -23.5720 C.2       1 U5P801      0.0000 
      5 C5         29.2810   54.3010  -24.4900 C.2       1 U5P801      0.0000 
      6 C6         29.3170   54.6670  -25.8280 C.2       1 U5P801      0.0000 
      7 O2         31.5310   57.3830  -25.5680 O.2       1 U5P801      0.0000 
      8 O4         30.0170   54.6590  -22.3720 O.2       1 U5P801      0.0000 
      9 C1'        30.0720   56.1190  -27.6180 C.3       1 U5P801      0.0000 
     10 C2'        30.9870   55.3460  -28.5230 C.3       1 U5P801      0.0000 
     11 O2'        32.2950   55.8970  -28.3870 O.3       1 U5P801      0.0000 
     12 C3'        30.3610   55.5630  -29.9000 C.3       1 U5P801      0.0000 
     13 C4'        28.9160   55.9530  -29.6460 C.3       1 U5P801      0.0000 
     14 O3'        31.0040   56.6300  -30.6030 O.3       1 U5P801      0.0000 
     15 O4'        28.7730   56.0180  -28.2280 O.3       1 U5P801      0.0000 
     16 C5'        27.9470   54.9070  -30.1600 C.3       1 U5P801      0.0000 
     17 O5'        27.3120   55.3270  -31.3660 O.3       1 U5P801      0.0000 
     18 P          25.7200   55.5910  -31.4390 P.3       1 U5P801      0.0000 
     19 O1P        25.2240   55.5210  -30.0140 O.co2     1 U5P801      0.0000 
     20 O2P        25.6490   56.9870  -32.0170 O.co2     1 U5P801      0.0000 
     21 O3P        25.2120   54.4910  -32.3480 O.co2     1 U5P801      0.0000 
     22 H          31.3747   56.5668  -23.2556 H         1 U5P801      0.0000 
     23 H          28.6978   53.5170  -24.1832 H         1 U5P801      0.0000 
     24 H          28.7489   54.1300  -26.5075 H         1 U5P801      0.0000 
     25 H          30.3911   57.1801  -27.6841 H         1 U5P801      0.0000 
     26 H          30.9192   54.3248  -28.2695 H         1 U5P801      0.0000 
     27 H          30.3744   54.6468  -30.4329 H         1 U5P801      0.0000 
     28 H          28.7165   56.8888  -30.0979 H         1 U5P801      0.0000 
     29 H          27.2076   54.7099  -29.3624 H         1 U5P801      0.0000 
     30 H          28.5102   53.9673  -30.3068 H         1 U5P801      0.0000 
     31 H          32.9067   55.2117  -28.7822 H         1 U5P801      0.0000 
     32 H          31.8236   56.8354  -30.0681 H         1 U5P801      0.0000 
@<TRIPOS>BOND
     1    2    1 1    
     2    6    1 1    
     3    9    1 1    
     4    3    2 1    
     5    7    2 2    
     6    4    3 1    
     7   22    3 1    
     8    5    4 1    
     9    8    4 2    
    10    6    5 2    
    11   23    5 1    
    12   24    6 1    
    13   10    9 1    
    14   15    9 1    
    15   25    9 1    
    16   11   10 1    
    17   12   10 1    
    18   26   10 1    
    19   31   11 1    
    20   13   12 1    
    21   14   12 1    
    22   27   12 1    
    23   15   13 1    
    24   16   13 1    
    25   28   13 1    
    26   32   14 1    
    27   17   16 1    
    28   29   16 1    
    29   30   16 1    
    30   18   17 1    
    31   19   18 ar   
    32   20   18 ar   
    33   21   18 ar   
@<TRIPOS>SUBSTRUCTURE
     1 U5P801      1 GROUP   
@<TRIPOS>SET

