#    Name: 3l3m_A92_1_INTS_M
#    Modification time : Mon Mar 24 20:56:27 2014

@<TRIPOS>MOLECULE
3l3m_A92_1_INTS_M
   50     0    12     0     0
SMALL
NO_CHARGES


@<TRIPOS>ATOM
      1 CA         30.0695    9.7240   27.7345 C.3       4 GLC5        0.0000 
      2 CA         28.0630    9.0520   27.6280 C.3      12 GLL5        0.0000 
      3 CA         32.0760   10.3960   27.8410 C.3       8 GLP5        0.0000 
      4 CA         28.4845    7.8355   26.8810 C.3       4 GLC5        0.0000 
      5 CA         28.9060    6.6190   26.1340 C.3       8 GLP5        0.0000 
      6 CA         22.5560    6.8600   26.2615 C.3       4 GLC5        0.0000 
      7 CA         24.0070    7.5420   25.0950 C.3      12 GLL5        0.0000 
      8 CA         21.1050    6.1780   27.4280 C.3       8 GLP5        0.0000 
      9 CA         30.1380    9.5850   29.4660 C.3       4 GLC5        0.0000 
     10 CA         28.6460   11.0240   28.6900 C.3      12 GLL5        0.0000 
     11 CA         31.6300    8.1460   30.2420 C.3       8 GLP5        0.0000 
     12 CA         31.7075   13.8455   29.2580 C.3       4 GLC5        0.0000 
     13 CA         30.6730   15.0210   30.4090 C.3      12 GLL5        0.0000 
     14 CA         32.7420   12.6700   28.1070 C.3       8 GLP5        0.0000 
     15 CA         31.0505   12.8605   28.9965 C.3       4 GLC5        0.0000 
     16 CA         29.3590   13.0510   29.8860 C.3      12 GLL5        0.0000 
     17 OD1        30.1340   15.9905   29.3880 O.co2     3 ASC3        0.0000 
     18 OD1        29.6010   14.4680   29.5490 O.co2    11 ASL3        0.0000 
     19 OD1        30.6670   17.5130   29.2270 O.co2     7 ASP3        0.0000 
     20 O          23.1025   13.5415   23.1065 O.2       1 ALC1        0.0000 
     21 O          23.7070   12.3020   23.5630 O.2       9 ALL1        0.0000 
     22 O          22.4980   14.7810   22.6500 O.2       5 ALP1        0.0000 
     23 N          21.6410   12.2430   21.5315 N.am      2 SEC2        0.0000 
     24 N          22.1520   11.1890   22.2410 N.am     10 SEL2        0.0000 
     25 N          21.1300   13.2970   20.8220 N.am      6 SEP2        0.0000 
     26 N          20.8905   10.3975   21.6795 N.am      2 SEC2        0.0000 
     27 N          19.6290    9.6060   21.1180 N.am      6 SEP2        0.0000 
     28 CA         25.0745    8.3338   23.5135 C.3       4 GLC5        0.0000 
     29 CA         22.8040    8.7820   23.4140 C.3      12 GLL5        0.0000 
     30 CA         27.1870    8.4770   23.2980 C.3       8 GLP5        0.0000 
     31 CA         23.6730    7.7508   21.8160 C.3       4 GLC5        0.0000 
     32 CA         23.1200    7.5990   24.0440 C.3      12 GLL5        0.0000 
     33 CA         24.3840    7.3110   19.9030 C.3       8 GLP5        0.0000 
     34 CA         21.5810    7.1837   22.6765 C.3       4 GLC5        0.0000 
     35 CA         20.2000    6.1770   21.6240 C.3       8 GLP5        0.0000 
     36 CA         21.3620    7.3287   24.5280 C.3       4 GLC5        0.0000 
     37 CA         19.7620    6.4670   25.3270 C.3       8 GLP5        0.0000 
     38 CA         24.1463    5.5828   24.3897 C.3       4 GLC5        0.0000 
     39 CA         24.7290    3.5950   24.2100 C.3       8 GLP5        0.0000 
     40 CA         25.7413    8.3080   24.2940 C.3       4 GLC5        0.0000 
     41 CA         25.5098    9.2085   23.8060 C.3       4 GLC5        0.0000 
     42 CA         24.2810    9.9110   24.8340 C.3      12 GLL5        0.0000 
     43 CA         29.9050   11.6223   32.5938 C.3       4 GLC5        0.0000 
     44 CA         28.7530   13.0680   31.2650 C.3      12 GLL5        0.0000 
     45 CA         30.5460    9.9090   33.4370 C.3       8 GLP5        0.0000 
     46 CA         31.5398   16.0560   32.4910 C.3       4 GLC5        0.0000 
     47 CA         30.1780   15.0010   31.8350 C.3      12 GLL5        0.0000 
     48 CA         32.6540   17.1010   33.8600 C.3       8 GLP5        0.0000 
     49 CA         29.5592   16.7245   31.7015 C.3       4 GLC5        0.0000 
     50 CA         28.6930   18.4380   32.2810 C.3       8 GLP5        0.0000 
@<TRIPOS>BOND
@<TRIPOS>SUBSTRUCTURE
     1 ALC1       20 GROUP        1 X    ALC  0     ROOT ALC X 1
     2 SEC2       23 GROUP        1 X    SEC  0     **** SEC X 2
     3 ASC3       17 GROUP        1 X    ASC  0     **** ASC X 3
     4 GLC5        1 GROUP        1 X    GLC  0     **** GLC X 6
     5 ALP1       22 GROUP        1 Y    ALP  0     ROOT ALP Y 8
     6 SEP2       25 GROUP        1 Y    SEP  0     **** SEP Y 9
     7 ASP3       19 GROUP        1 Y    ASP  0     **** ASP Y 10
     8 GLP5        3 GROUP        1 Y    GLP  0     **** GLP Y 13
     9 ALL1       21 GROUP        1 Z    ALL  0     ROOT ALL Z 15
    10 SEL2       24 GROUP        1 Z    SEL  0     **** SEL Z 16
    11 ASL3       18 GROUP        1 Z    ASL  0     **** ASL Z 17
    12 GLL5        2 GROUP        1 Z    GLL  0     **** GLL Z 20
@<TRIPOS>SET

