#    Name: 3l3m_A92_1_ligand
#    Modification time : Mon Mar 24 20:56:27 2014

@<TRIPOS>MOLECULE
3l3m_A92_1_ligand
   43    46     1     0     0
SMALL
NO_CHARGES


@<TRIPOS>ATOM
      1 F          28.0630    9.0520   27.6280 F         1 A92351      0.0000 
      2 C1         23.1200    7.5990   24.0440 C.ar      1 A92351      0.0000 
      3 C2         26.4820   12.3000   27.5780 C.ar      1 A92351      0.0000 
      4 C3         22.8040    8.7820   23.4140 C.ar      1 A92351      0.0000 
      5 C4         27.3410   12.9870   28.4090 C.ar      1 A92351      0.0000 
      6 C5         24.0070    7.5420   25.0950 C.ar      1 A92351      0.0000 
      7 C6         28.6460   11.0240   28.6900 C.ar      1 A92351      0.0000 
      8 C7         26.6910   10.9670   27.3020 C.ar      1 A92351      0.0000 
      9 C8         23.3840    9.9690   23.7940 C.ar      1 A92351      0.0000 
     10 C9         28.4250   12.3500   28.9680 C.ar      1 A92351      0.0000 
     11 C10        24.2810    9.9110   24.8340 C.ar      1 A92351      0.0000 
     12 C11        24.5840    8.7360   25.4850 C.ar      1 A92351      0.0000 
     13 C12        27.7860   10.3430   27.8630 C.ar      1 A92351      0.0000 
     14 C13        25.7690   10.2530   26.4470 C.2       1 A92351      0.0000 
     15 C14        23.0150   11.2080   23.1100 C.2       1 A92351      0.0000 
     16 C15        29.7750   13.6030   32.2360 C.3       1 A92351      0.0000 
     17 C16        30.1780   15.0010   31.8350 C.3       1 A92351      0.0000 
     18 C17        28.7530   13.0680   31.2650 C.3       1 A92351      0.0000 
     19 C18        30.6730   15.0210   30.4090 C.3       1 A92351      0.0000 
     20 C19        29.3590   13.0510   29.8860 C.3       1 A92351      0.0000 
     21 N20        25.0340   10.8580   25.4660 N.pl3     1 A92351      0.0000 
     22 N21        25.4970    8.9650   26.4760 N.2       1 A92351      0.0000 
     23 N22        29.6010   14.4680   29.5490 N.4       1 A92351      0.0000 
     24 N23        23.7070   12.3020   23.5630 N.am      1 A92351      0.0000 
     25 O24        22.1520   11.1890   22.2410 O.2       1 A92351      0.0000 
     26 H          22.6699    6.7125   23.7120 H         1 A92351      0.0000 
     27 H          25.6720   12.7914   27.1576 H         1 A92351      0.0000 
     28 H          22.1124    8.7763   22.6350 H         1 A92351      0.0000 
     29 H          27.1687   13.9871   28.6128 H         1 A92351      0.0000 
     30 H          24.2269    6.6736   25.5593 H         1 A92351      0.0000 
     31 H          29.4596   10.5373   29.1028 H         1 A92351      0.0000 
     32 H          29.3508   13.6206   33.2384 H         1 A92351      0.0000 
     33 H          30.6517   12.9576   32.2345 H         1 A92351      0.0000 
     34 H          30.9686   15.3558   32.4988 H         1 A92351      0.0000 
     35 H          29.3194   15.6683   31.9307 H         1 A92351      0.0000 
     36 H          27.8764   13.7066   31.2706 H         1 A92351      0.0000 
     37 H          28.4705   12.0610   31.5520 H         1 A92351      0.0000 
     38 H          31.5681   14.4151   30.3331 H         1 A92351      0.0000 
     39 H          30.8974   16.0418   30.1231 H         1 A92351      0.0000 
     40 H          30.2938   12.5236   29.9506 H         1 A92351      0.0000 
     41 H          25.0462   11.7963   25.2565 H         1 A92351      0.0000 
     42 H          23.4859   13.1742   23.1266 H         1 A92351      0.0000 
     43 H          24.3721   12.1318   24.2901 H         1 A92351      0.0000 
@<TRIPOS>BOND
     1   13    1 1    
     2    4    2 ar   
     3    6    2 ar   
     4   26    2 1    
     5    5    3 ar   
     6    8    3 ar   
     7   27    3 1    
     8    9    4 ar   
     9   28    4 1    
    10   10    5 ar   
    11   29    5 1    
    12   12    6 ar   
    13   30    6 1    
    14   10    7 ar   
    15   13    7 ar   
    16   31    7 1    
    17   13    8 ar   
    18   14    8 1    
    19   11    9 ar   
    20   15    9 1    
    21   20   10 1    
    22   12   11 ar   
    23   21   11 1    
    24   22   12 1    
    25   21   14 1    
    26   22   14 2    
    27   24   15 am   
    28   25   15 2    
    29   17   16 1    
    30   18   16 1    
    31   32   16 1    
    32   33   16 1    
    33   19   17 1    
    34   34   17 1    
    35   35   17 1    
    36   20   18 1    
    37   36   18 1    
    38   37   18 1    
    39   23   19 1    
    40   38   19 1    
    41   39   19 1    
    42   23   20 1    
    43   40   20 1    
    44   41   21 1    
    45   42   24 1    
    46   43   24 1    
@<TRIPOS>SUBSTRUCTURE
     1 A92351      1 GROUP   
@<TRIPOS>SET

