#    Name: 3sni_546_1_INTS_M
#    Modification time : Mon Mar 24 17:59:23 2014

@<TRIPOS>MOLECULE
3sni_546_1_INTS_M
   46     0     6     0     0
SMALL
NO_CHARGES


@<TRIPOS>ATOM
      1 CA         16.7165  -11.4355  -33.0065 C.3       2 GLC5        0.0000 
      2 CA         17.3740  -11.1860  -34.8170 C.3       6 GLL5        0.0000 
      3 CA         16.0590  -11.6850  -31.1960 C.3       4 GLP5        0.0000 
      4 CA         15.7480  -10.4365  -34.3630 C.3       2 GLC5        0.0000 
      5 CA         14.1220   -9.6870  -33.9090 C.3       4 GLP5        0.0000 
      6 CA         17.5275  -13.0820  -34.9100 C.3       2 GLC5        0.0000 
      7 CA         17.6810  -14.9780  -35.0030 C.3       4 GLP5        0.0000 
      8 CA         17.5165  -11.9575  -36.3945 C.3       2 GLC5        0.0000 
      9 CA         17.6590  -12.7290  -37.9720 C.3       4 GLP5        0.0000 
     10 CA         21.4865   -7.5090  -35.5680 C.3       2 GLC5        0.0000 
     11 CA         19.9460   -8.4170  -34.3650 C.3       6 GLL5        0.0000 
     12 CA         23.0270   -6.6010  -36.7710 C.3       4 GLP5        0.0000 
     13 CA         21.5115   -8.3660  -32.9945 C.3       2 GLC5        0.0000 
     14 CA         23.0770   -8.3150  -31.6240 C.3       4 GLP5        0.0000 
     15 N          22.7195  -15.3595  -35.3620 N.am      1 SEC2        0.0000 
     16 N          22.3090  -14.0430  -34.9140 N.am      5 SEL2        0.0000 
     17 N          23.1300  -16.6760  -35.8100 N.am      3 SEP2        0.0000 
     18 CA         21.9790  -10.1895  -31.8485 C.3       2 GLC5        0.0000 
     19 CA         20.8810  -12.0640  -32.0730 C.3       6 GLL5        0.0000 
     20 CA         19.3475  -13.5200  -35.3165 C.3       2 GLC5        0.0000 
     21 CA         21.0140  -12.0620  -35.6300 C.3       6 GLL5        0.0000 
     22 CA         24.1245  -13.4650  -37.1120 C.3       2 GLC5        0.0000 
     23 CA         22.0290  -13.4870  -37.2580 C.3       6 GLL5        0.0000 
     24 CA         26.2200  -13.4430  -36.9660 C.3       4 GLP5        0.0000 
     25 CA         18.8340  -11.0670  -38.2830 C.3       2 GLC5        0.0000 
     26 CA         20.0090   -9.4050  -38.5940 C.3       6 GLL5        0.0000 
     27 CA         23.8720  -14.3000  -31.3030 C.3       2 GLC5        0.0000 
     28 CA         22.6650  -14.7200  -32.6360 C.3       6 GLL5        0.0000 
     29 CA         25.0790  -13.8800  -29.9700 C.3       4 GLP5        0.0000 
     30 CA         20.6945  -14.8410  -32.3075 C.3       2 GLC5        0.0000 
     31 CA         18.7240  -14.9620  -31.9790 C.3       4 GLP5        0.0000 
     32 CA         23.7105  -13.1270  -33.3260 C.3       2 GLC5        0.0000 
     33 CA         24.7560  -11.5340  -34.0160 C.3       4 GLP5        0.0000 
     34 CA         18.9050  -12.3310  -30.3720 C.3       2 GLC5        0.0000 
     35 CA         21.1060  -12.4810  -30.6700 C.3       6 GLL5        0.0000 
     36 CA         16.7040  -12.1810  -30.0740 C.3       4 GLP5        0.0000 
     37 CA         21.9745  -10.8430  -29.6345 C.3       2 GLC5        0.0000 
     38 CA         22.8430   -9.2050  -28.5990 C.3       4 GLP5        0.0000 
     39 CA         20.9460  -13.4590  -28.6560 C.3       2 GLC5        0.0000 
     40 CA         20.7860  -14.4370  -26.6420 C.3       4 GLP5        0.0000 
     41 CA         23.0925  -13.1805  -30.3200 C.3       2 GLC5        0.0000 
     42 CA         19.9150  -13.7215  -31.3245 C.3       2 GLC5        0.0000 
     43 CA         19.9065  -13.6532  -32.3252 C.3       2 GLC5        0.0000 
     44 CA         20.6860  -12.6480  -39.8410 C.3       2 GLC5        0.0000 
     45 CA         20.7790  -11.5520  -37.8800 C.3       6 GLL5        0.0000 
     46 CA         20.2190  -13.1890  -41.6090 C.3       4 GLP5        0.0000 
@<TRIPOS>BOND
@<TRIPOS>SUBSTRUCTURE
     1 SEC2       15 GROUP        1 X    SEC  0     ROOT SEC X 2
     2 GLC5        1 GROUP        1 X    GLC  0     **** GLC X 6
     3 SEP2       17 GROUP        1 Y    SEP  0     ROOT SEP Y 9
     4 GLP5        3 GROUP        1 Y    GLP  0     **** GLP Y 13
     5 SEL2       16 GROUP        1 Z    SEL  0     ROOT SEL Z 16
     6 GLL5        2 GROUP        1 Z    GLL  0     **** GLL Z 20
@<TRIPOS>SET

