#    Name: 3sni_546_1_ligand
#    Modification time : Mon Mar 24 17:59:23 2014

@<TRIPOS>MOLECULE
3sni_546_1_ligand
   41    44     1     0     0
SMALL
NO_CHARGES


@<TRIPOS>ATOM
      1 C1         17.3740  -11.1860  -34.8170 C.3       1 546782      0.0000 
      2 N1         19.3420   -7.3570  -34.9590 N.ar      1 546782      0.0000 
      3 O1         20.2970  -10.7660  -38.9190 O.3       1 546782      0.0000 
      4 C2         18.0910   -9.8680  -34.8500 C.ar      1 546782      0.0000 
      5 N2         20.1340  -10.9330  -32.3180 N.2       1 546782      0.0000 
      6 C3         17.4490   -8.7800  -35.4640 C.ar      1 546782      0.0000 
      7 N3         20.7830  -11.7920  -34.2550 N.pl3     1 546782      0.0000 
      8 C4         18.1140   -7.5620  -35.4920 C.ar      1 546782      0.0000 
      9 N4         20.5120  -11.2460  -36.5840 N.ar      1 546782      0.0000 
     10 C5         19.9460   -8.4170  -34.3650 C.ar      1 546782      0.0000 
     11 N5         22.3090  -14.0430  -34.9140 N.2       1 546782      0.0000 
     12 C6         19.3740   -9.6880  -34.2830 C.ar      1 546782      0.0000 
     13 C7         20.0890  -10.7760  -33.6270 C.2       1 546782      0.0000 
     14 C8         20.8810  -12.0640  -32.0730 C.2       1 546782      0.0000 
     15 C9         21.2970  -12.6250  -33.2700 C.2       1 546782      0.0000 
     16 C10        21.0140  -12.0620  -35.6300 C.ar      1 546782      0.0000 
     17 C11        21.7830  -13.1990  -35.9140 C.ar      1 546782      0.0000 
     18 C12        22.0290  -13.4870  -37.2580 C.ar      1 546782      0.0000 
     19 C13        21.5270  -12.6620  -38.2660 C.ar      1 546782      0.0000 
     20 C14        20.7790  -11.5520  -37.8800 C.ar      1 546782      0.0000 
     21 C15        20.0090   -9.4050  -38.5940 C.3       1 546782      0.0000 
     22 C16        22.0820  -13.7820  -33.6570 C.2       1 546782      0.0000 
     23 C17        22.6650  -14.7200  -32.6360 C.3       1 546782      0.0000 
     24 C18        21.1060  -12.4810  -30.6700 C.3       1 546782      0.0000 
     25 H          16.5287   -8.8888  -35.8717 H         1 546782      0.0000 
     26 H          17.6177   -6.7491  -35.9636 H         1 546782      0.0000 
     27 H          20.9050   -8.2896  -33.9348 H         1 546782      0.0000 
     28 H          22.5869  -14.3171  -37.5082 H         1 546782      0.0000 
     29 H          21.7008  -12.8640  -39.2407 H         1 546782      0.0000 
     30 H          17.9166  -11.8927  -34.3629 H         1 546782      0.0000 
     31 H          16.5046  -11.1237  -34.3268 H         1 546782      0.0000 
     32 H          17.1685  -11.5201  -35.7369 H         1 546782      0.0000 
     33 H          20.8215   -8.9208  -38.2693 H         1 546782      0.0000 
     34 H          19.6629   -8.8996  -39.3845 H         1 546782      0.0000 
     35 H          19.3180   -9.3331  -37.8747 H         1 546782      0.0000 
     36 H          23.6621  -14.7641  -32.6987 H         1 546782      0.0000 
     37 H          22.4422  -14.4382  -31.7028 H         1 546782      0.0000 
     38 H          22.3226  -15.6526  -32.7502 H         1 546782      0.0000 
     39 H          21.6576  -13.3132  -30.6138 H         1 546782      0.0000 
     40 H          21.5839  -11.7766  -30.1453 H         1 546782      0.0000 
     41 H          20.2457  -12.6670  -30.1953 H         1 546782      0.0000 
@<TRIPOS>BOND
     1    4    1 1    
     2   30    1 1    
     3   31    1 1    
     4   32    1 1    
     5    8    2 ar   
     6   10    2 ar   
     7   20    3 1    
     8   21    3 1    
     9    6    4 ar   
    10   12    4 ar   
    11   13    5 2    
    12   14    5 1    
    13    8    6 ar   
    14   25    6 1    
    15   13    7 1    
    16   15    7 1    
    17   16    7 1    
    18   26    8 1    
    19   16    9 ar   
    20   20    9 ar   
    21   12   10 ar   
    22   27   10 1    
    23   17   11 1    
    24   22   11 2    
    25   13   12 1    
    26   15   14 2    
    27   24   14 1    
    28   22   15 1    
    29   17   16 ar   
    30   18   17 ar   
    31   19   18 ar   
    32   28   18 1    
    33   20   19 ar   
    34   29   19 1    
    35   33   21 1    
    36   34   21 1    
    37   35   21 1    
    38   23   22 1    
    39   36   23 1    
    40   37   23 1    
    41   38   23 1    
    42   39   24 1    
    43   40   24 1    
    44   41   24 1    
@<TRIPOS>SUBSTRUCTURE
     1 546782      1 GROUP   
@<TRIPOS>SET

