#    Name: 3SBI_1_CAVITY_N1_6.mol2
#    Modification time : Mon Mar 10 23:16:58 2014

@<TRIPOS>MOLECULE
3SBI_1_CAVITY_N1_6.mol2
   89     0     6     0     0
SMALL
NO_CHARGES


@<TRIPOS>ATOM
      1 CA         -1.7601    7.5412   15.6945 C.3       5 GLY6        0.0000 
      2 CZ         -2.8855    8.4644   15.3323 C.ar      4 PHE5        0.0000 
      3 CA         -1.6164    7.1509   14.2533 C.3       5 GLY6        0.0000 
      4 CA         -0.3473    5.8375   13.1743 C.3       5 GLY6        0.0000 
      5 DU         -1.4727    6.7607   12.8121 H         6 CUB7        0.0000 
      6 N           0.9218    4.5240   12.0953 N.2       2 ALA2        0.0000 
      7 CZ          2.3346    2.8203    9.5751 C.ar      4 PHE5        0.0000 
      8 CA          1.2092    3.7435    9.2129 C.3       5 GLY6        0.0000 
      9 CZ         -3.8667    7.3484   15.5366 C.ar      4 PHE5        0.0000 
     10 CA         -1.4722    5.1118   14.8198 C.3       5 GLY6        0.0000 
     11 CA         -2.5976    6.0349   14.4576 C.3       5 GLY6        0.0000 
     12 CZ         -3.7230    6.9581   14.0954 C.ar      4 PHE5        0.0000 
     13 N          -1.3285    4.7215   13.3786 N.2       2 ALA2        0.0000 
     14 DU         -2.4539    5.6447   13.0164 H         6 CUB7        0.0000 
     15 CZ         -3.5793    6.5679   12.6542 C.ar      4 PHE5        0.0000 
     16 N          -0.0594    3.4080   12.2996 N.2       2 ALA2        0.0000 
     17 N          -1.1848    4.3312   11.9374 N.2       2 ALA2        0.0000 
     18 DU         -3.4357    6.1776   11.2130 H         6 CUB7        0.0000 
     19 CZ          0.0843    3.0178   10.8584 C.ar      4 PHE5        0.0000 
     20 DU         -1.0411    3.9410   10.4962 H         6 CUB7        0.0000 
     21 DU         -2.1666    4.8641   10.1340 H         6 CUB7        0.0000 
     22 CA          0.2280    2.6275    9.4172 C.3       5 GLY6        0.0000 
     23 O          -0.8974    3.5507    9.0550 O.2       2 ALA2        0.0000 
     24 CZ         -4.8480    6.2324   15.7410 C.ar      4 PHE5        0.0000 
     25 OG         -2.4534    3.9958   15.0242 O.2       1 SER1        0.0000 
     26 CA         -3.5789    4.9190   14.6620 C.3       5 GLY6        0.0000 
     27 CZ         -4.7043    5.8421   14.2998 C.ar      4 PHE5        0.0000 
     28 OG         -2.3097    3.6055   13.5830 O.2       1 SER1        0.0000 
     29 DU         -3.4352    4.5287   13.2208 H         6 CUB7        0.0000 
     30 O          -4.5606    5.4519   12.8586 O.2       2 ALA2        0.0000 
     31 CZ         -5.6860    6.3750   12.4964 C.ar      4 PHE5        0.0000 
     32 OG         -2.1661    3.2152   12.1418 O.2       1 SER1        0.0000 
     33 DU         -3.2915    4.1384   11.7796 H         6 CUB7        0.0000 
     34 O          -4.4169    5.0616   11.4174 O.2       2 ALA2        0.0000 
     35 O          -5.5423    5.9848   11.0552 O.2       2 ALA2        0.0000 
     36 OG         -0.8970    1.9018   11.0628 O.2       1 SER1        0.0000 
     37 O          -2.0224    2.8250   10.7006 O.2       2 ALA2        0.0000 
     38 O          -3.1478    3.7482   10.3384 O.2       2 ALA2        0.0000 
     39 O          -4.2732    4.6713    9.9762 O.2       2 ALA2        0.0000 
     40 O          -5.3986    5.5945    9.6140 O.2       2 ALA2        0.0000 
     41 CA         -0.7533    1.5115    9.6216 C.3       5 GLY6        0.0000 
     42 CA         -3.5784    3.2700   16.6698 C.3       5 GLY6        0.0000 
     43 CA         -5.8292    5.1164   15.9454 C.3       5 GLY6        0.0000 
     44 CA         -6.9546    6.0396   15.5832 C.3       5 GLY6        0.0000 
     45 OG         -3.4347    2.8798   15.2286 O.2       1 SER1        0.0000 
     46 CA         -4.5601    3.8030   14.8664 C.3       5 GLY6        0.0000 
     47 O          -5.6855    4.7261   14.5042 O.2       2 ALA2        0.0000 
     48 CA         -6.8109    5.6493   14.1420 C.3       5 GLY6        0.0000 
     49 OG         -3.2910    2.4895   13.7874 O.2       1 SER1        0.0000 
     50 O          -4.4164    3.4127   13.4252 O.2       2 ALA2        0.0000 
     51 O          -5.5418    4.3359   13.0630 O.2       2 ALA2        0.0000 
     52 OG         -3.1473    2.0992   12.3462 O.2       1 SER1        0.0000 
     53 O          -4.2727    3.0224   11.9840 O.2       2 ALA2        0.0000 
     54 OG         -1.8782    0.7858   11.2672 O.2       1 SER1        0.0000 
     55 O          -3.0036    1.7090   10.9050 O.2       2 ALA2        0.0000 
     56 O          -4.1290    2.6322   10.5428 O.2       2 ALA2        0.0000 
     57 O          -1.7345    0.3955    9.8260 O.2       2 ALA2        0.0000 
     58 CA         -4.5596    2.1541   16.8741 C.3       5 GLY6        0.0000 
     59 CA         -5.6850    3.0772   16.5119 C.3       5 GLY6        0.0000 
     60 CA         -6.8104    4.0004   16.1497 C.3       5 GLY6        0.0000 
     61 O          -3.2905    0.8406   15.7951 O.2       2 ALA2        0.0000 
     62 OG         -4.4159    1.7638   15.4329 O.2       1 SER1        0.0000 
     63 DU         -5.5413    2.6870   15.0707 H         6 CUB7        0.0000 
     64 CA         -6.6667    3.6102   14.7085 C.3       5 GLY6        0.0000 
     65 OG         -4.2722    1.3735   13.9917 O.2       1 SER1        0.0000 
     66 O          -5.3976    2.2967   13.6295 O.2       2 ALA2        0.0000 
     67 CA         -3.0031    0.0601   12.9127 C.3       5 GLY6        0.0000 
     68 OG         -4.1285    0.9833   12.5505 O.2       1 SER1        0.0000 
     69 O          -5.2539    1.9064   12.1884 O.2       2 ALA2        0.0000 
     70 CA         -1.7340   -1.2534   11.8337 C.3       5 GLY6        0.0000 
     71 CA         -2.8594   -0.3302   11.4716 C.3       5 GLY6        0.0000 
     72 O          -3.9848    0.5930   11.1094 O.2       2 ALA2        0.0000 
     73 N          -5.1102    1.5162   10.7472 N.2       2 ALA2        0.0000 
     74 O          -3.8411    0.2027    9.6682 O.2       2 ALA2        0.0000 
     75 CA         -6.8099    2.3515   18.1575 C.3       5 GLY6        0.0000 
     76 OD1        -5.5408    1.0381   17.0785 O.3       3 ASP3        0.0000 
     77 CA         -6.6662    1.9613   16.7163 C.3       5 GLY6        0.0000 
     78 CA         -7.7916    2.8844   16.3541 C.3       5 GLY6        0.0000 
     79 OG         -4.2717   -0.2754   15.9995 O.2       1 SER1        0.0000 
     80 OD1        -5.3971    0.6478   15.6373 O.3       3 ASP3        0.0000 
     81 N          -6.5225    1.5710   15.2751 N.2       2 ALA2        0.0000 
     82 OD1        -4.1280   -0.6656   14.5583 O.3       3 ASP3        0.0000 
     83 N          -5.2534    0.2575   14.1961 N.2       2 ALA2        0.0000 
     84 CA         -3.9843   -1.0559   13.1171 C.3       5 GLY6        0.0000 
     85 N          -5.1097   -0.1327   12.7549 N.2       2 ALA2        0.0000 
     86 OG         -2.7152   -2.3694   12.0381 O.2       1 SER1        0.0000 
     87 CA         -3.8406   -1.4462   11.6759 C.3       5 GLY6        0.0000 
     88 CA         -4.9660   -0.5230   11.3137 C.3       5 GLY6        0.0000 
     89 CA         -4.8219   -2.5622   11.8803 C.3       5 GLY6        0.0000 
@<TRIPOS>BOND
@<TRIPOS>SUBSTRUCTURE
     1 SER1       25 GROUP   
     2 ALA2        6 GROUP   
     3 ASP3       76 GROUP   
     4 PHE5        2 GROUP   
     5 GLY6        1 GROUP   
     6 CUB7        5 GROUP   
@<TRIPOS>SET

