#    Name: 3sbi_E90_1_INTS_M
#    Modification time : Tue Mar 25 12:22:48 2014

@<TRIPOS>MOLECULE
3sbi_E90_1_INTS_M
   38     0    12     0     0
SMALL
NO_CHARGES


@<TRIPOS>ATOM
      1 CA         -0.0290    6.9440   14.3100 C.3       4 GLC5        0.0000 
      2 CA         -1.4180    7.8330   13.0180 C.3      12 GLL5        0.0000 
      3 CA          1.3600    6.0550   15.6020 C.3       8 GLP5        0.0000 
      4 CA         -1.6110    7.2480   16.4815 C.3       4 GLC5        0.0000 
      5 CA         -1.3000    8.7590   15.1460 C.3      12 GLL5        0.0000 
      6 CA         -1.9220    5.7370   17.8170 C.3       8 GLP5        0.0000 
      7 CA         -0.5270    9.1325   17.1240 C.3       4 GLC5        0.0000 
      8 CA          0.2460    9.5060   19.1020 C.3       8 GLP5        0.0000 
      9 CA         -0.3845    5.6230   14.3660 C.3       4 GLC5        0.0000 
     10 CA         -2.1290    5.1910   13.1300 C.3      12 GLL5        0.0000 
     11 CA         -3.1010    2.8410   17.2360 C.3       4 GLC5        0.0000 
     12 CA         -3.9480    2.1640   15.5630 C.3      12 GLL5        0.0000 
     13 CA         -2.2540    3.5180   18.9090 C.3       8 GLP5        0.0000 
     14 CA         -8.0025    3.2090   15.1780 C.3       4 GLC5        0.0000 
     15 CA         -6.1250    3.2320   15.4790 C.3      12 GLL5        0.0000 
     16 CA         -9.8800    3.1860   14.8770 C.3       8 GLP5        0.0000 
     17 CA         -7.5760    4.9770   15.2130 C.3       4 GLC5        0.0000 
     18 CA         -5.5450    4.2850   14.7680 C.3      12 GLL5        0.0000 
     19 CA         -9.6070    5.6690   15.6580 C.3       8 GLP5        0.0000 
     20 N          -4.0450    0.6600   18.6080 N.am      2 SEC2        0.0000 
     21 N          -5.3920    1.0640   18.1650 N.am     10 SEL2        0.0000 
     22 N          -2.6980    0.2560   19.0510 N.am      6 SEP2        0.0000 
     23 O          -4.4595   -1.3315   16.9390 O.2       1 ALC1        0.0000 
     24 O          -5.3270   -0.5120   16.2250 O.2       9 ALL1        0.0000 
     25 O          -3.5920   -2.1510   17.6530 O.2       5 ALP1        0.0000 
     26 Zn         -6.0200   -1.1100   15.7825 Zn        3 ZIC7        0.0000 
     27 Zn         -5.3270   -0.5120   16.2250 Zn       11 ZIL7        0.0000 
     28 Zn         -6.7130   -1.7080   15.3400 Zn        7 ZIP7        0.0000 
     29 CA         -1.8262   10.5555   16.3223 C.3       4 GLC5        0.0000 
     30 CA         -2.5120   11.7270   17.7920 C.3       8 GLP5        0.0000 
     31 CA          0.2827    8.3005   15.7052 C.3       4 GLC5        0.0000 
     32 CA         -0.9810   10.0090   14.5590 C.3      12 GLL5        0.0000 
     33 CA          1.7060    7.2170   16.5580 C.3       8 GLP5        0.0000 
     34 CA         -1.9277    1.3570   14.9097 C.3       4 GLC5        0.0000 
     35 CA         -3.4050    3.1720   14.8040 C.3      12 GLL5        0.0000 
     36 CA         -0.1790    0.0460   14.6360 C.3       8 GLP5        0.0000 
     37 CA         -4.7151    4.1792   16.7913 C.3       4 GLC5        0.0000 
     38 CA         -4.2360    4.9990   18.4030 C.3       8 GLP5        0.0000 
@<TRIPOS>BOND
@<TRIPOS>SUBSTRUCTURE
     1 ALC1       23 GROUP        1 X    ALC  0     ROOT ALC X 1
     2 SEC2       20 GROUP        1 X    SEC  0     **** SEC X 2
     3 ZIC7       26 GROUP        1 X    ZIC  0     **** ZIC X 5
     4 GLC5        1 GROUP        1 X    GLC  0     **** GLC X 6
     5 ALP1       25 GROUP        1 Y    ALP  0     ROOT ALP Y 8
     6 SEP2       22 GROUP        1 Y    SEP  0     **** SEP Y 9
     7 ZIP7       28 GROUP        1 Y    ZIP  0     **** ZIP Y 12
     8 GLP5        3 GROUP        1 Y    GLP  0     **** GLP Y 13
     9 ALL1       24 GROUP        1 Z    ALL  0     ROOT ALL Z 15
    10 SEL2       21 GROUP        1 Z    SEL  0     **** SEL Z 16
    11 ZIL7       27 GROUP        1 Z    ZIL  0     **** ZIL Z 19
    12 GLL5        2 GROUP        1 Z    GLL  0     **** GLL Z 20
@<TRIPOS>SET

