#    Name: 3sbi_E90_1_ligand
#    Modification time : Tue Mar 25 12:22:48 2014

@<TRIPOS>MOLECULE
3sbi_E90_1_ligand
   30    31     1     0     0
SMALL
NO_CHARGES


@<TRIPOS>ATOM
      1 N1         -1.4790    7.6830   14.3790 N.ar      1 E90266      0.0000 
      2 C2         -1.4180    7.8330   13.0180 C.ar      1 E90266      0.0000 
      3 N3         -1.1600    8.9920   12.3710 N.ar      1 E90266      0.0000 
      4 C4         -0.9880   10.1100   13.1510 C.ar      1 E90266      0.0000 
      5 C5         -0.9810   10.0090   14.5590 C.ar      1 E90266      0.0000 
      6 C6         -1.3000    8.7590   15.1460 C.ar      1 E90266      0.0000 
      7 S7         -1.5940    6.5000   11.9640 S.3       1 E90266      0.0000 
      8 C8         -2.1290    5.1910   13.1300 C.3       1 E90266      0.0000 
      9 C9         -3.6070    5.3290   13.5370 C.2       1 E90266      0.0000 
     10 O10        -4.3230    6.2820   13.1760 O.2       1 E90266      0.0000 
     11 C11        -4.2050    4.2530   14.3930 C.ar      1 E90266      0.0000 
     12 C12        -3.4050    3.1720   14.8040 C.ar      1 E90266      0.0000 
     13 C13        -3.9480    2.1640   15.5630 C.ar      1 E90266      0.0000 
     14 C14        -5.3020    2.2080   15.8730 C.ar      1 E90266      0.0000 
     15 C15        -6.1250    3.2320   15.4790 C.ar      1 E90266      0.0000 
     16 C16        -5.5450    4.2850   14.7680 C.ar      1 E90266      0.0000 
     17 S17        -5.9470    0.8670   16.8390 S.o2      1 E90266      0.0000 
     18 O18        -5.3920    1.0640   18.1650 O.2       1 E90266      0.0000 
     19 O19        -7.4020    0.9580   16.7000 O.2       1 E90266      0.0000 
     20 N20        -5.3270   -0.5120   16.2250 N.pl3     1 E90266      0.0000 
     21 H          -0.8616   11.0387   12.7199 H         1 E90266      0.0000 
     22 H          -0.7549   10.8053   15.1355 H         1 E90266      0.0000 
     23 H          -1.3861    8.7200   16.1774 H         1 E90266      0.0000 
     24 H          -1.4476    5.3241   13.9437 H         1 E90266      0.0000 
     25 H          -1.9196    4.2997   12.5770 H         1 E90266      0.0000 
     26 H          -2.4139    3.1494   14.5285 H         1 E90266      0.0000 
     27 H          -3.3696    1.3881   15.8991 H         1 E90266      0.0000 
     28 H          -7.1153    3.2356   15.6893 H         1 E90266      0.0000 
     29 H          -6.1256    5.1054   14.5157 H         1 E90266      0.0000 
     30 H          -4.4782   -0.8368   16.6421 H         1 E90266      0.0000 
@<TRIPOS>BOND
     1    2    1 ar   
     2    6    1 ar   
     3    3    2 ar   
     4    7    2 1    
     5    4    3 ar   
     6    5    4 ar   
     7   21    4 1    
     8    6    5 ar   
     9   22    5 1    
    10   23    6 1    
    11    8    7 1    
    12    9    8 1    
    13   24    8 1    
    14   25    8 1    
    15   10    9 2    
    16   11    9 1    
    17   12   11 ar   
    18   16   11 ar   
    19   13   12 ar   
    20   26   12 1    
    21   14   13 ar   
    22   27   13 1    
    23   15   14 ar   
    24   17   14 1    
    25   16   15 ar   
    26   28   15 1    
    27   29   16 1    
    28   18   17 2    
    29   19   17 2    
    30   20   17 1    
    31   30   20 1    
@<TRIPOS>SUBSTRUCTURE
     1 E90266      1 GROUP   
@<TRIPOS>SET

