#    Name: 2d52_COA_2_INTS_M
#    Modification time : Mon Apr  7 17:19:44 2014

@<TRIPOS>MOLECULE
2d52_COA_2_INTS_M
   94     0    12     0     0
SMALL
NO_CHARGES


@<TRIPOS>ATOM
      1 CA          1.4870   24.7530  -24.3110 C.3       4 GLC5        0.0000 
      2 CA          2.1210   26.2030  -22.9520 C.3      12 GLL5        0.0000 
      3 CA          0.8530   23.3030  -25.6700 C.3       8 GLP5        0.0000 
      4 CA          2.8925   25.1420  -21.1655 C.3       4 GLC5        0.0000 
      5 CA          3.6640   24.0810  -19.3790 C.3       8 GLP5        0.0000 
      6 CA          3.9355   25.6690  -20.6950 C.3       4 GLC5        0.0000 
      7 CA          4.2070   27.2570  -22.0110 C.3      12 GLL5        0.0000 
      8 CA          5.3395   25.7505  -22.7120 C.3       4 GLC5        0.0000 
      9 CA          6.4720   24.2440  -23.4130 C.3       8 GLP5        0.0000 
     10 CA          3.9545   29.1850  -21.6040 C.3       4 GLC5        0.0000 
     11 CA          3.7020   31.1130  -21.1970 C.3       8 GLP5        0.0000 
     12 O           4.3300   27.2930  -19.5950 O.2       1 ALC1        0.0000 
     13 O           5.0230   27.5260  -20.9610 O.2       9 ALL1        0.0000 
     14 O           3.6370   27.0600  -18.2290 O.2       5 ALP1        0.0000 
     15 N           0.5295   30.0000  -26.1805 N.am      2 SEC2        0.0000 
     16 N           1.7420   29.1960  -27.0700 N.am     10 SEL2        0.0000 
     17 N          -0.6830   30.8040  -25.2910 N.am      6 SEP2        0.0000 
     18 NZ          0.7640   24.9810  -29.6255 N.4       3 LYC4        0.0000 
     19 NZ         -0.3900   26.5290  -30.0050 N.4      11 LYL4        0.0000 
     20 NZ          1.9180   23.4330  -29.2460 N.4       7 LYP4        0.0000 
     21 NZ         10.7560   32.2905  -29.5160 N.4       3 LYC4        0.0000 
     22 NZ          9.6650   31.4410  -29.8170 N.4      11 LYL4        0.0000 
     23 NZ         12.8250   32.2770  -29.4520 N.4       7 LYP4        0.0000 
     24 N          11.0995   31.2220  -29.7540 N.am      2 SEC2        0.0000 
     25 N           9.6650   31.4410  -29.8170 N.am     10 SEL2        0.0000 
     26 N          12.5340   31.0030  -29.6910 N.am      6 SEP2        0.0000 
     27 N          10.7560   32.2905  -29.5160 N.am      2 SEC2        0.0000 
     28 N          11.8470   33.1400  -29.2150 N.am      6 SEP2        0.0000 
     29 N          11.3055   30.2790  -29.1000 N.am      2 SEC2        0.0000 
     30 N          10.0770   29.5550  -28.5090 N.am     10 SEL2        0.0000 
     31 CA         10.4435   28.0520  -29.4585 C.3       4 GLC5        0.0000 
     32 CA          9.6410   28.4310  -27.6950 C.3      12 GLL5        0.0000 
     33 CA         11.2460   27.6730  -31.2220 C.3       8 GLP5        0.0000 
     34 CA         13.3815   27.3275  -27.5920 C.3       4 GLC5        0.0000 
     35 CA         11.9530   28.2050  -26.6960 C.3      12 GLL5        0.0000 
     36 CA         14.8100   26.4500  -28.4880 C.3       8 GLP5        0.0000 
     37 CA          9.6060   25.6195  -26.3890 C.3       4 GLC5        0.0000 
     38 CA          9.9730   27.4090  -25.3490 C.3      12 GLL5        0.0000 
     39 CA          9.2390   23.8300  -27.4290 C.3       8 GLP5        0.0000 
     40 CA          9.3390   26.3155  -24.0005 C.3       4 GLC5        0.0000 
     41 CA          8.7050   25.2220  -22.6520 C.3       8 GLP5        0.0000 
     42 CA         10.7840   31.7165  -25.4850 C.3       4 GLC5        0.0000 
     43 CA         10.2480   29.9190  -25.6460 C.3      12 GLL5        0.0000 
     44 CA         11.3200   33.5140  -25.3240 C.3       8 GLP5        0.0000 
     45 N          12.9215   31.5030  -24.8940 N.am      2 SEC2        0.0000 
     46 N          12.2000   30.2770  -24.3070 N.am     10 SEL2        0.0000 
     47 N          13.6430   32.7290  -25.4810 N.am      6 SEP2        0.0000 
     48 CA         10.1800   32.2345  -21.9165 C.3       4 GLC5        0.0000 
     49 CA         10.8760   30.4670  -21.8020 C.3      12 GLL5        0.0000 
     50 CA          9.4840   34.0020  -22.0310 C.3       8 GLP5        0.0000 
     51 CA         12.0040   31.8560  -20.9980 C.3       4 GLC5        0.0000 
     52 CA         13.1320   33.2450  -20.1940 C.3       8 GLP5        0.0000 
     53 CA         11.9600   27.3265  -21.3605 C.3       4 GLC5        0.0000 
     54 CA         11.1800   29.0760  -21.3280 C.3      12 GLL5        0.0000 
     55 CA         12.7400   25.5770  -21.3930 C.3       8 GLP5        0.0000 
     56 CA          9.6270   28.0145  -20.3675 C.3       4 GLC5        0.0000 
     57 CA          8.0740   26.9530  -19.4070 C.3       8 GLP5        0.0000 
     58 CA         12.2560   30.6175  -20.2340 C.3       4 GLC5        0.0000 
     59 CA         13.3320   32.1590  -19.1400 C.3       8 GLP5        0.0000 
     60 N           9.5795   30.4980  -19.1520 N.am      2 SEC2        0.0000 
     61 N          10.3980   29.2920  -19.4160 N.am     10 SEL2        0.0000 
     62 N           8.7610   31.7040  -18.8880 N.am      6 SEP2        0.0000 
     63 O          13.6805   28.3110  -19.7825 O.2       1 ALC1        0.0000 
     64 O          12.4190   28.4850  -19.2550 O.2       9 ALL1        0.0000 
     65 O          14.9420   28.1370  -20.3100 O.2       5 ALP1        0.0000 
     66 CA         11.3920   29.3820  -16.0995 C.3       4 GLC5        0.0000 
     67 CA         12.4440   28.3560  -17.7330 C.3      12 GLL5        0.0000 
     68 CA         10.3400   30.4080  -14.4660 C.3       8 GLP5        0.0000 
     69 CA         14.3705   29.0185  -18.4030 C.3       4 GLC5        0.0000 
     70 CA         16.2970   29.6810  -19.0730 C.3       8 GLP5        0.0000 
     71 CA         12.8880   30.2575  -18.4365 C.3       4 GLC5        0.0000 
     72 CA         12.4645   26.2650  -19.3000 C.3       4 GLC5        0.0000 
     73 CA         12.1890   26.9530  -17.2070 C.3      12 GLL5        0.0000 
     74 CA         10.8775   25.7050  -16.9760 C.3       4 GLC5        0.0000 
     75 CA          9.5660   24.4570  -16.7450 C.3       8 GLP5        0.0000 
     76 CA         10.9490   27.4480  -14.1845 C.3       4 GLC5        0.0000 
     77 CA         12.2860   27.0750  -15.4050 C.3      12 GLL5        0.0000 
     78 CA          9.6120   27.8210  -12.9640 C.3       8 GLP5        0.0000 
     79 CA         11.1215   25.6275  -15.4110 C.3       4 GLC5        0.0000 
     80 CA          9.9570   24.1800  -15.4170 C.3       8 GLP5        0.0000 
     81 CA          5.3502   26.1855  -24.3277 C.3       4 GLC5        0.0000 
     82 CA          4.5060   27.7220  -23.3570 C.3      12 GLL5        0.0000 
     83 CA          6.6600   24.8220  -24.8000 C.3       8 GLP5        0.0000 
     84 CA          3.3533   29.2460  -23.0888 C.3       4 GLC5        0.0000 
     85 CA          2.6660   30.9430  -22.3220 C.3       8 GLP5        0.0000 
     86 CA          5.9737   25.5950  -29.0913 C.3       4 GLC5        0.0000 
     87 CA          4.1540   27.0930  -29.1650 C.3      12 GLL5        0.0000 
     88 CA          7.0870   23.8680  -28.7310 C.3       8 GLP5        0.0000 
     89 CA         13.0225   29.7602  -22.0920 C.3       4 GLC5        0.0000 
     90 CA         15.0170   29.7490  -22.6190 C.3       8 GLP5        0.0000 
     91 CA         10.2238   28.0218  -17.4340 C.3       4 GLC5        0.0000 
     92 CA          8.1310   28.3890  -17.3980 C.3       8 GLP5        0.0000 
     93 CA         12.8652   25.2745  -16.4805 C.3       4 GLC5        0.0000 
     94 CA         13.4930   23.5350  -16.6550 C.3       8 GLP5        0.0000 
@<TRIPOS>BOND
@<TRIPOS>SUBSTRUCTURE
     1 ALC1       12 GROUP        1 X    ALC  0     ROOT ALC X 1
     2 SEC2       15 GROUP        1 X    SEC  0     **** SEC X 2
     3 LYC4       18 GROUP        1 X    LYC  0     **** LYC X 4
     4 GLC5        1 GROUP        1 X    GLC  0     **** GLC X 6
     5 ALP1       14 GROUP        1 Y    ALP  0     ROOT ALP Y 8
     6 SEP2       17 GROUP        1 Y    SEP  0     **** SEP Y 9
     7 LYP4       20 GROUP        1 Y    LYP  0     **** LYP Y 11
     8 GLP5        3 GROUP        1 Y    GLP  0     **** GLP Y 13
     9 ALL1       13 GROUP        1 Z    ALL  0     ROOT ALL Z 15
    10 SEL2       16 GROUP        1 Z    SEL  0     **** SEL Z 16
    11 LYL4       19 GROUP        1 Z    LYL  0     **** LYL Z 18
    12 GLL5        2 GROUP        1 Z    GLL  0     **** GLL Z 20
@<TRIPOS>SET

