#    Name: 2d52_COA_2_ligand
#    Modification time : Mon Apr  7 17:19:44 2014

@<TRIPOS>MOLECULE
2d52_COA_2_ligand
   79    81     1     0     0
SMALL
NO_CHARGES


@<TRIPOS>ATOM
      1 N1A         3.0010   26.5040  -21.8800 N.ar      1 COA501      0.0000 
      2 C2A         2.1210   26.2030  -22.9520 C.ar      1 COA501      0.0000 
      3 N3A         2.3610   26.6220  -24.2390 N.ar      1 COA501      0.0000 
      4 C4A         3.5750   27.3760  -24.3540 C.ar      1 COA501      0.0000 
      5 C5A         4.5060   27.7220  -23.3570 C.ar      1 COA501      0.0000 
      6 C6A         4.2070   27.2570  -22.0110 C.ar      1 COA501      0.0000 
      7 N6A         5.0230   27.5260  -20.9610 N.pl3     1 COA501      0.0000 
      8 N7A         5.5590   28.4610  -23.8530 N.2       1 COA501      0.0000 
      9 C8A         5.2610   28.5620  -25.1570 C.2       1 COA501      0.0000 
     10 N9A         4.0820   27.9320  -25.5260 N.pl3     1 COA501      0.0000 
     11 C1B         3.3540   27.8090  -26.9710 C.3       1 COA501      0.0000 
     12 C2B         2.8990   28.9410  -27.7560 C.3       1 COA501      0.0000 
     13 O2B         1.7420   29.1960  -27.0700 O.3       1 COA501      0.0000 
     14 C3B         3.0450   28.2290  -29.1130 C.3       1 COA501      0.0000 
     15 O3B         1.8080   27.5070  -29.5980 O.3       1 COA501      0.0000 
     16 P3B         0.3580   27.9410  -30.1480 P.3       1 COA501      0.0000 
     17 O7A        -0.3900   26.5290  -30.0050 O.co2     1 COA501      0.0000 
     18 O8A         0.5710   28.3740  -31.5470 O.co2     1 COA501      0.0000 
     19 O9A        -0.2580   29.0800  -29.3700 O.co2     1 COA501      0.0000 
     20 C4B         4.1540   27.0930  -29.1650 C.3       1 COA501      0.0000 
     21 O4B         4.3310   26.9480  -27.6610 O.3       1 COA501      0.0000 
     22 C5B         5.5670   27.5510  -29.7380 C.3       1 COA501      0.0000 
     23 O5B         5.7090   29.0550  -29.9350 O.3       1 COA501      0.0000 
     24 P1A         6.4910   29.9860  -30.5360 P.3       1 COA501      0.0000 
     25 O1A         6.4020   29.6260  -31.9940 O.co2     1 COA501      0.0000 
     26 O2A         5.9580   31.3530  -30.1820 O.co2     1 COA501      0.0000 
     27 O3A         7.9230   29.7660  -29.9510 O.3       1 COA501      0.0000 
     28 P2A         8.9300   30.4710  -28.9800 P.3       1 COA501      0.0000 
     29 O4A         9.6650   31.4410  -29.8170 O.co2     1 COA501      0.0000 
     30 O5A         8.2150   31.2080  -27.9100 O.co2     1 COA501      0.0000 
     31 O6A        10.0770   29.5550  -28.5090 O.3       1 COA501      0.0000 
     32 CBP        10.4760   28.4940  -26.3170 C.3       1 COA501      0.0000 
     33 CCP         9.6410   28.4310  -27.6950 C.3       1 COA501      0.0000 
     34 CDP        11.9530   28.2050  -26.6960 C.3       1 COA501      0.0000 
     35 CEP         9.9730   27.4090  -25.3490 C.3       1 COA501      0.0000 
     36 CAP        10.2480   29.9190  -25.6460 C.3       1 COA501      0.0000 
     37 OAP         8.8410   30.1960  -25.3870 O.3       1 COA501      0.0000 
     38 C9P        10.9310   30.1620  -24.2550 C.2       1 COA501      0.0000 
     39 O9P        12.2000   30.2770  -24.3070 O.2       1 COA501      0.0000 
     40 N8P        10.1500   30.2280  -23.1570 N.am      1 COA501      0.0000 
     41 C7P        10.8760   30.4670  -21.8020 C.3       1 COA501      0.0000 
     42 C6P        11.1800   29.0760  -21.3280 C.3       1 COA501      0.0000 
     43 C5P        11.2910   28.9680  -19.8010 C.2       1 COA501      0.0000 
     44 O5P        10.3980   29.2920  -19.4160 O.2       1 COA501      0.0000 
     45 N4P        12.4190   28.4850  -19.2550 N.am      1 COA501      0.0000 
     46 C3P        12.4440   28.3560  -17.7330 C.3       1 COA501      0.0000 
     47 C2P        12.1890   26.9530  -17.2070 C.3       1 COA501      0.0000 
     48 S1P        12.2860   27.0750  -15.4050 S.3       1 COA501      0.0000 
     49 H           1.2680   25.6436  -22.7366 H         1 COA501      0.0000 
     50 H           5.8458   28.0554  -21.1675 H         1 COA501      0.0000 
     51 H           4.7294   27.1711  -20.0734 H         1 COA501      0.0000 
     52 H           5.8259   29.0454  -25.8250 H         1 COA501      0.0000 
     53 H           2.4908   27.0990  -26.7416 H         1 COA501      0.0000 
     54 H           3.6718   29.6647  -27.6624 H         1 COA501      0.0000 
     55 H           3.3305   28.9458  -29.8878 H         1 COA501      0.0000 
     56 H           3.7974   26.2525  -29.5658 H         1 COA501      0.0000 
     57 H           5.7160   27.0312  -30.6940 H         1 COA501      0.0000 
     58 H           6.3350   27.1893  -29.0412 H         1 COA501      0.0000 
     59 H           9.8683   27.4818  -28.1428 H         1 COA501      0.0000 
     60 H           8.6041   28.4935  -27.4230 H         1 COA501      0.0000 
     61 H          10.6365   30.6834  -26.3221 H         1 COA501      0.0000 
     62 H           9.1680   30.1421  -23.1122 H         1 COA501      0.0000 
     63 H          10.2094   30.9549  -21.1411 H         1 COA501      0.0000 
     64 H          11.7667   31.0078  -21.9849 H         1 COA501      0.0000 
     65 H          12.1274   28.7306  -21.7707 H         1 COA501      0.0000 
     66 H          10.3922   28.3860  -21.6690 H         1 COA501      0.0000 
     67 H          13.2397   28.2025  -19.7376 H         1 COA501      0.0000 
     68 H          11.6885   29.0436  -17.3063 H         1 COA501      0.0000 
     69 H          13.4271   28.7062  -17.3634 H         1 COA501      0.0000 
     70 H          12.9493   26.2702  -17.4291 H         1 COA501      0.0000 
     71 H          11.2120   26.6123  -17.3587 H         1 COA501      0.0000 
     72 H          12.3093   28.8795  -27.3426 H         1 COA501      0.0000 
     73 H          12.5519   28.2216  -25.8954 H         1 COA501      0.0000 
     74 H          12.0581   27.3064  -27.1221 H         1 COA501      0.0000 
     75 H          10.0772   26.4915  -25.7329 H         1 COA501      0.0000 
     76 H          10.4732   27.4229  -24.4832 H         1 COA501      0.0000 
     77 H           9.0044   27.5268  -25.1299 H         1 COA501      0.0000 
     78 H           1.0186   29.1570  -27.7593 H         1 COA501      0.0000 
     79 H           8.4800   30.5353  -26.2556 H         1 COA501      0.0000 
@<TRIPOS>BOND
     1    2    1 ar   
     2    6    1 ar   
     3    3    2 ar   
     4   49    2 1    
     5    4    3 ar   
     6    5    4 ar   
     7   10    4 1    
     8    6    5 ar   
     9    8    5 1    
    10    7    6 1    
    11   50    7 1    
    12   51    7 1    
    13    9    8 2    
    14   10    9 1    
    15   52    9 1    
    16   11   10 1    
    17   12   11 1    
    18   21   11 1    
    19   53   11 1    
    20   13   12 1    
    21   14   12 1    
    22   54   12 1    
    23   78   13 1    
    24   15   14 1    
    25   20   14 1    
    26   55   14 1    
    27   16   15 1    
    28   17   16 ar   
    29   18   16 ar   
    30   19   16 ar   
    31   21   20 1    
    32   22   20 1    
    33   56   20 1    
    34   23   22 1    
    35   57   22 1    
    36   58   22 1    
    37   24   23 1    
    38   25   24 ar   
    39   26   24 ar   
    40   27   24 1    
    41   28   27 1    
    42   29   28 ar   
    43   30   28 ar   
    44   31   28 1    
    45   33   31 1    
    46   33   32 1    
    47   34   32 1    
    48   35   32 1    
    49   36   32 1    
    50   59   33 1    
    51   60   33 1    
    52   72   34 1    
    53   73   34 1    
    54   74   34 1    
    55   75   35 1    
    56   76   35 1    
    57   77   35 1    
    58   37   36 1    
    59   38   36 1    
    60   61   36 1    
    61   79   37 1    
    62   39   38 2    
    63   40   38 am   
    64   41   40 1    
    65   62   40 1    
    66   42   41 1    
    67   63   41 1    
    68   64   41 1    
    69   43   42 1    
    70   65   42 1    
    71   66   42 1    
    72   44   43 2    
    73   45   43 am   
    74   46   45 1    
    75   67   45 1    
    76   47   46 1    
    77   68   46 1    
    78   69   46 1    
    79   48   47 1    
    80   70   47 1    
    81   71   47 1    
@<TRIPOS>SUBSTRUCTURE
     1 COA501      1 GROUP   
@<TRIPOS>SET

