#    Name: 1s4p_GDP_1_INTS_M
#    Modification time : Tue Mar 25 02:03:00 2014

@<TRIPOS>MOLECULE
1s4p_GDP_1_INTS_M
   55     0    12     0     0
SMALL
NO_CHARGES


@<TRIPOS>ATOM
      1 N          23.6130   51.6520   42.0265 N.am      2 SEC2        0.0000 
      2 N          24.2960   52.7140   42.2590 N.am     10 SEL2        0.0000 
      3 N          22.9300   50.5900   41.7940 N.am      6 SEP2        0.0000 
      4 Zn         24.7015   56.2340   41.8910 Zn        3 ZIC7        0.0000 
      5 Zn         24.8040   55.1090   41.7300 Zn       11 ZIL7        0.0000 
      6 Zn         24.5990   57.3590   42.0520 Zn        7 ZIP7        0.0000 
      7 N          24.5325   53.6495   45.1215 N.am      2 SEC2        0.0000 
      8 N          24.8810   54.3000   44.1340 N.am     10 SEL2        0.0000 
      9 N          24.1840   52.9990   46.1090 N.am      6 SEP2        0.0000 
     10 Zn         23.6460   57.1900   42.5950 Zn        3 ZIC7        0.0000 
     11 Zn         22.6930   57.0210   43.1380 Zn       11 ZIL7        0.0000 
     12 N          20.5185   56.2615   45.6745 N.am      2 SEC2        0.0000 
     13 N          21.6300   55.5730   44.8990 N.am     10 SEL2        0.0000 
     14 N          19.4070   56.9500   46.4500 N.am      6 SEP2        0.0000 
     15 CA         19.9785   54.1825   41.0680 C.3       4 GLC5        0.0000 
     16 CA         20.6640   56.0070   41.1500 C.3      12 GLL5        0.0000 
     17 CA         19.2930   52.3580   40.9860 C.3       8 GLP5        0.0000 
     18 CA         18.9890   55.1955   40.3495 C.3       4 GLC5        0.0000 
     19 CA         19.7670   57.2040   40.8630 C.3      12 GLL5        0.0000 
     20 CA         18.2110   53.1870   39.8360 C.3       8 GLP5        0.0000 
     21 O          18.4640   59.9625   40.6795 O.2       1 ALC1        0.0000 
     22 O          19.7600   59.5750   40.7980 O.2       9 ALL1        0.0000 
     23 O          17.1680   60.3500   40.5610 O.2       5 ALP1        0.0000 
     24 O          18.4635   59.8620   44.6505 O.2       1 ALC1        0.0000 
     25 O          18.7290   59.6730   43.3640 O.2       9 ALL1        0.0000 
     26 O          18.1980   60.0510   45.9370 O.2       5 ALP1        0.0000 
     27 CA         16.2170   57.8335   41.0030 C.3       4 GLC5        0.0000 
     28 CA         17.8760   57.6070   42.1950 C.3      12 GLL5        0.0000 
     29 CA         14.5580   58.0600   39.8110 C.3       8 GLP5        0.0000 
     30 CA         17.3580   55.6180   41.5640 C.3       4 GLC5        0.0000 
     31 CA         16.8400   53.6290   40.9330 C.3       8 GLP5        0.0000 
     32 CA         15.8130   56.6335   46.0960 C.3       4 GLC5        0.0000 
     33 CA         15.6320   55.6930   44.4820 C.3      12 GLL5        0.0000 
     34 CA         15.9940   57.5740   47.7100 C.3       8 GLP5        0.0000 
     35 O          12.1595   56.7335   44.8145 O.2       1 ALC1        0.0000 
     36 O          13.4490   56.5470   44.7710 O.2       9 ALL1        0.0000 
     37 O          10.8700   56.9200   44.8580 O.2       5 ALP1        0.0000 
     38 O          13.2870   60.0345   43.7835 O.2       1 ALC1        0.0000 
     39 O          12.8140   58.5350   43.6860 O.2       9 ALL1        0.0000 
     40 O          13.7600   61.5340   43.8810 O.2       5 ALP1        0.0000 
     41 O          11.8420   57.7275   44.2720 O.2       1 ALC1        0.0000 
     42 CA         15.3685   56.6785   41.5880 C.3       4 GLC5        0.0000 
     43 CA         15.8400   56.7700   43.6620 C.3      12 GLL5        0.0000 
     44 CA         14.8970   56.5870   39.5140 C.3       8 GLP5        0.0000 
     45 CA         15.4365   57.6680   45.3460 C.3       4 GLC5        0.0000 
     46 CA         15.0330   58.5660   47.0300 C.3       8 GLP5        0.0000 
     47 CA         21.2208   58.7032   40.0207 C.3       4 GLC5        0.0000 
     48 CA         22.5260   59.5730   38.7500 C.3       8 GLP5        0.0000 
     49 CA         20.4445   60.2362   42.2972 C.3       4 GLC5        0.0000 
     50 CA         20.0640   58.4630   41.7200 C.3      12 GLL5        0.0000 
     51 CA         21.3390   62.0410   42.3120 C.3       8 GLP5        0.0000 
     52 CA         17.1865   59.6587   42.6780 C.3       4 GLC5        0.0000 
     53 CA         19.0360   58.4000   42.8450 C.3      12 GLL5        0.0000 
     54 CA         15.9170   61.3140   42.8360 C.3       8 GLP5        0.0000 
     55 CA         16.2880   54.9303   42.5025 C.3       4 GLC5        0.0000 
@<TRIPOS>BOND
@<TRIPOS>SUBSTRUCTURE
     1 ALC1       21 GROUP        1 X    ALC  0     ROOT ALC X 1
     2 SEC2        1 GROUP        1 X    SEC  0     **** SEC X 2
     3 ZIC7        4 GROUP        1 X    ZIC  0     **** ZIC X 5
     4 GLC5       15 GROUP        1 X    GLC  0     **** GLC X 6
     5 ALP1       23 GROUP        1 Y    ALP  0     ROOT ALP Y 8
     6 SEP2        3 GROUP        1 Y    SEP  0     **** SEP Y 9
     7 ZIP7        6 GROUP        1 Y    ZIP  0     **** ZIP Y 12
     8 GLP5       17 GROUP        1 Y    GLP  0     **** GLP Y 13
     9 ALL1       22 GROUP        1 Z    ALL  0     ROOT ALL Z 15
    10 SEL2        2 GROUP        1 Z    SEL  0     **** SEL Z 16
    11 ZIL7        5 GROUP        1 Z    ZIL  0     **** ZIL Z 19
    12 GLL5       16 GROUP        1 Z    GLL  0     **** GLL Z 20
@<TRIPOS>SET

