#    Name: 1s4p_GDP_1_ligand
#    Modification time : Tue Mar 25 02:03:00 2014

@<TRIPOS>MOLECULE
1s4p_GDP_1_ligand
   40    42     1     0     0
SMALL
NO_CHARGES


@<TRIPOS>ATOM
      1 PB         24.2470   54.1170   42.7440 P.3       1 GDP904      0.0000 
      2 O1B        24.2960   52.7140   42.2590 O.co2     1 GDP904      0.0000 
      3 O2B        24.8040   55.1090   41.7300 O.co2     1 GDP904      0.0000 
      4 O3B        24.8810   54.3000   44.1340 O.co2     1 GDP904      0.0000 
      5 O3A        22.6380   54.4800   42.9050 O.3       1 GDP904      0.0000 
      6 PA         21.9540   55.7880   43.4480 P.3       1 GDP904      0.0000 
      7 O1A        22.6930   57.0210   43.1380 O.co2     1 GDP904      0.0000 
      8 O2A        21.6300   55.5730   44.8990 O.co2     1 GDP904      0.0000 
      9 O5'        20.6150   55.7700   42.5820 O.3       1 GDP904      0.0000 
     10 C5'        20.6640   56.0070   41.1500 C.3       1 GDP904      0.0000 
     11 C4'        19.7670   57.2040   40.8630 C.3       1 GDP904      0.0000 
     12 O4'        18.4110   56.7730   41.1870 O.3       1 GDP904      0.0000 
     13 C3'        20.0640   58.4630   41.7200 C.3       1 GDP904      0.0000 
     14 O3'        19.7600   59.5750   40.7980 O.3       1 GDP904      0.0000 
     15 C2'        19.0360   58.4000   42.8450 C.3       1 GDP904      0.0000 
     16 O2'        18.7290   59.6730   43.3640 O.3       1 GDP904      0.0000 
     17 C1'        17.8760   57.6070   42.1950 C.3       1 GDP904      0.0000 
     18 N9         17.1410   56.6390   43.2080 N.pl3     1 GDP904      0.0000 
     19 C8         17.6740   55.5130   43.7700 C.2       1 GDP904      0.0000 
     20 N7         16.7760   54.9120   44.5570 N.2       1 GDP904      0.0000 
     21 C5         15.6320   55.6930   44.4820 C.2       1 GDP904      0.0000 
     22 C6         14.3730   55.5250   45.0990 C.2       1 GDP904      0.0000 
     23 O6         14.0530   54.5860   45.8630 O.2       1 GDP904      0.0000 
     24 N1         13.4490   56.5470   44.7710 N.am      1 GDP904      0.0000 
     25 C2         13.7640   57.6090   43.9270 C.2       1 GDP904      0.0000 
     26 N2         12.8140   58.5350   43.6860 N.pl3     1 GDP904      0.0000 
     27 N3         14.9680   57.7540   43.3420 N.2       1 GDP904      0.0000 
     28 C4         15.8400   56.7700   43.6620 C.2       1 GDP904      0.0000 
     29 H          20.2890   55.1557   40.5958 H         1 GDP904      0.0000 
     30 H          21.6687   56.2442   40.8231 H         1 GDP904      0.0000 
     31 H          19.8252   57.4603   39.8297 H         1 GDP904      0.0000 
     32 H          21.0159   58.4378   42.0506 H         1 GDP904      0.0000 
     33 H          19.4722   57.7246   43.5968 H         1 GDP904      0.0000 
     34 H          17.1528   58.2832   41.8089 H         1 GDP904      0.0000 
     35 H          18.5880   55.2037   43.6082 H         1 GDP904      0.0000 
     36 H          12.4919   56.4930   45.1852 H         1 GDP904      0.0000 
     37 H          11.9246   58.3746   44.1139 H         1 GDP904      0.0000 
     38 H          13.0834   59.2998   43.1008 H         1 GDP904      0.0000 
     39 H          18.7651   59.6713   40.8280 H         1 GDP904      0.0000 
     40 H          18.5943   59.5272   44.3441 H         1 GDP904      0.0000 
@<TRIPOS>BOND
     1    2    1 ar   
     2    3    1 ar   
     3    4    1 ar   
     4    5    1 1    
     5    6    5 1    
     6    7    6 ar   
     7    8    6 ar   
     8    9    6 1    
     9   10    9 1    
    10   11   10 1    
    11   29   10 1    
    12   30   10 1    
    13   12   11 1    
    14   13   11 1    
    15   31   11 1    
    16   17   12 1    
    17   14   13 1    
    18   15   13 1    
    19   32   13 1    
    20   39   14 1    
    21   16   15 1    
    22   17   15 1    
    23   33   15 1    
    24   40   16 1    
    25   18   17 1    
    26   34   17 1    
    27   19   18 1    
    28   28   18 1    
    29   20   19 2    
    30   35   19 1    
    31   21   20 1    
    32   22   21 1    
    33   28   21 2    
    34   23   22 2    
    35   24   22 am   
    36   25   24 1    
    37   36   24 1    
    38   26   25 1    
    39   27   25 2    
    40   37   26 1    
    41   38   26 1    
    42   28   27 1    
@<TRIPOS>SUBSTRUCTURE
     1 GDP904      1 GROUP   
@<TRIPOS>SET

