#    Name: 2bc9_GNP_1_INTS_M
#    Modification time : Mon Mar 24 20:29:54 2014

@<TRIPOS>MOLECULE
2bc9_GNP_1_INTS_M
   78     0    15     0     0
SMALL
NO_CHARGES


@<TRIPOS>ATOM
      1 NZ          3.7955   12.9120   40.2170 N.4       3 LYC4        0.0000 
      2 NZ          5.2050   12.9660   41.2820 N.4      13 LYL4        0.0000 
      3 NZ          2.3860   12.8580   39.1520 N.4       8 LYP4        0.0000 
      4 N           5.3045   14.2680   40.7580 N.am      2 SEC2        0.0000 
      5 N           5.2050   12.9660   41.2820 N.am     12 SEL2        0.0000 
      6 N           5.4040   15.5700   40.2340 N.am      7 SEP2        0.0000 
      7 N           6.5235   13.4905   41.5090 N.am      2 SEC2        0.0000 
      8 N           7.8420   14.0150   41.7360 N.am      7 SEP2        0.0000 
      9 Zn          4.2710   13.5295   44.6605 Zn        4 ZIC7        0.0000 
     10 Zn          4.8010   13.4360   43.7470 Zn       14 ZIL7        0.0000 
     11 Zn          3.7410   13.6230   45.5740 Zn        9 ZIP7        0.0000 
     12 N           5.1500   14.7950   43.5230 N.am      2 SEC2        0.0000 
     13 N           4.8010   13.4360   43.7470 N.am     12 SEL2        0.0000 
     14 N           5.4990   16.1540   43.2990 N.am      7 SEP2        0.0000 
     15 NZ          6.0235   10.1430   43.7225 N.4       3 LYC4        0.0000 
     16 NZ          5.7280   11.1560   43.0040 N.4      13 LYL4        0.0000 
     17 NZ          6.3190    9.1300   44.4410 N.4       8 LYP4        0.0000 
     18 N           5.1170   10.3475   41.7320 N.am      2 SEC2        0.0000 
     19 N           5.7280   11.1560   43.0040 N.am     12 SEL2        0.0000 
     20 N           4.5060    9.5390   40.4600 N.am      7 SEP2        0.0000 
     21 NZ          4.9325    9.3855   44.1080 N.4       3 LYC4        0.0000 
     22 NZ          3.5460    9.6410   43.7750 N.4      13 LYL4        0.0000 
     23 N           3.2260    8.5885   42.6980 N.am      2 SEC2        0.0000 
     24 N           3.5460    9.6410   43.7750 N.am     12 SEL2        0.0000 
     25 N           2.9060    7.5360   41.6210 N.am      7 SEP2        0.0000 
     26 N           2.7265    8.9405   44.9245 N.am      2 SEC2        0.0000 
     27 N           1.9070    8.2400   46.0740 N.am      7 SEP2        0.0000 
     28 N           4.9325    9.3855   44.1080 N.am      2 SEC2        0.0000 
     29 N           6.3190    9.1300   44.4410 N.am      7 SEP2        0.0000 
     30 Zn          3.2555   12.6860   45.2650 Zn        4 ZIC7        0.0000 
     31 Zn          2.7700   11.7490   44.9560 Zn       14 ZIL7        0.0000 
     32 N           2.2785   11.2290   46.3710 N.am      2 SEC2        0.0000 
     33 N           2.7700   11.7490   44.9560 N.am     12 SEL2        0.0000 
     34 N           1.7870   10.7090   47.7860 N.am      7 SEP2        0.0000 
     35 N           1.1030    9.0755   43.4235 N.am      2 SEC2        0.0000 
     36 N           1.2450   10.5360   43.3710 N.am     12 SEL2        0.0000 
     37 N           0.9610    7.6150   43.4760 N.am      7 SEP2        0.0000 
     38 N          -0.6880   11.0430   46.6490 N.am      2 SEC2        0.0000 
     39 N          -0.3940   11.1210   45.1670 N.am     12 SEL2        0.0000 
     40 N          -0.9820   10.9650   48.1310 N.am      7 SEP2        0.0000 
     41 N          -0.2460   14.2930   42.7355 N.am      2 SEC2        0.0000 
     42 N           0.4060   12.8980   43.5390 N.am     12 SEL2        0.0000 
     43 N          -0.8980   15.6880   41.9320 N.am      7 SEP2        0.0000 
     44 CA         -2.4590   12.7960   39.1900 C.3       5 GLC5        0.0000 
     45 CA         -2.2820   11.2720   40.5980 C.3      15 GLL5        0.0000 
     46 CA         -2.6360   14.3200   37.7820 C.3      10 GLP5        0.0000 
     47 CA         -2.9470   13.5490   42.8105 C.3       5 GLC5        0.0000 
     48 CA         -3.4360   12.0680   41.2120 C.3      15 GLL5        0.0000 
     49 CA         -2.4580   15.0300   44.4090 C.3      10 GLP5        0.0000 
     50 CA         -3.8030   13.2085   39.5255 C.3       5 GLC5        0.0000 
     51 CA         -4.1700   14.3490   37.8390 C.3      10 GLP5        0.0000 
     52 O          -5.8175   11.6030   40.4980 O.2       1 ALC1        0.0000 
     53 O          -4.4730   12.2700   40.2490 O.2      11 ALL1        0.0000 
     54 O          -7.1620   10.9360   40.7470 O.2       6 ALP1        0.0000 
     55 CA         -4.0545   12.4515   43.9565 C.3       5 GLC5        0.0000 
     56 CA         -3.9050   11.1030   42.2980 C.3      15 GLL5        0.0000 
     57 CA         -4.2040   13.8000   45.6150 C.3      10 GLP5        0.0000 
     58 O          -6.2160   11.1600   41.6845 O.2       1 ALC1        0.0000 
     59 O          -5.2700   11.3840   42.6220 O.2      11 ALL1        0.0000 
     60 CA         -1.7780    7.2130   43.8355 C.3       5 GLC5        0.0000 
     61 CA         -3.5740    6.5520   43.1210 C.3      15 GLL5        0.0000 
     62 CA          0.0180    7.8740   44.5500 C.3      10 GLP5        0.0000 
     63 CA         -5.1070    5.6455   43.8875 C.3       5 GLC5        0.0000 
     64 CA         -6.6400    4.7390   44.6540 C.3      10 GLP5        0.0000 
     65 O          -3.5460    3.3840   40.7190 O.2       1 ALC1        0.0000 
     66 O          -3.6480    4.6090   41.7190 O.2      11 ALL1        0.0000 
     67 O          -3.4440    2.1590   39.7190 O.2       6 ALP1        0.0000 
     68 O          -3.7065    3.3060   41.7995 O.2       1 ALC1        0.0000 
     69 O          -3.7650    2.0030   41.8800 O.2       6 ALP1        0.0000 
     70 O          -3.7025    3.5355   39.5615 O.2       1 ALC1        0.0000 
     71 O          -3.9610    4.9120   39.4040 O.2      11 ALL1        0.0000 
     72 CA         -5.6625    7.0375   41.3735 C.3       5 GLC5        0.0000 
     73 CA         -3.7190    7.3380   41.9860 C.3      15 GLL5        0.0000 
     74 CA         -7.6060    6.7370   40.7610 C.3      10 GLP5        0.0000 
     75 CA         -5.3492    9.5177   43.0975 C.3       5 GLC5        0.0000 
     76 CA         -3.8400    9.7920   41.5140 C.3      15 GLL5        0.0000 
     77 CA         -6.8260    8.5880   44.2890 C.3      10 GLP5        0.0000 
     78 CA         -5.2363    7.7665   43.4213 C.3       5 GLC5        0.0000 
@<TRIPOS>BOND
@<TRIPOS>SUBSTRUCTURE
     1 ALC1       52 GROUP        1 X    ALC  0     ROOT ALC X 1
     2 SEC2        4 GROUP        1 X    SEC  0     **** SEC X 2
     3 LYC4        1 GROUP        1 X    LYC  0     **** LYC X 4
     4 ZIC7        9 GROUP        1 X    ZIC  0     **** ZIC X 5
     5 GLC5       44 GROUP        1 X    GLC  0     **** GLC X 6
     6 ALP1       54 GROUP        1 Y    ALP  0     ROOT ALP Y 8
     7 SEP2        6 GROUP        1 Y    SEP  0     **** SEP Y 9
     8 LYP4        3 GROUP        1 Y    LYP  0     **** LYP Y 11
     9 ZIP7       11 GROUP        1 Y    ZIP  0     **** ZIP Y 12
    10 GLP5       46 GROUP        1 Y    GLP  0     **** GLP Y 13
    11 ALL1       53 GROUP        1 Z    ALL  0     ROOT ALL Z 15
    12 SEL2        5 GROUP        1 Z    SEL  0     **** SEL Z 16
    13 LYL4        2 GROUP        1 Z    LYL  0     **** LYL Z 18
    14 ZIL7       10 GROUP        1 Z    ZIL  0     **** ZIL Z 19
    15 GLL5       45 GROUP        1 Z    GLL  0     **** GLL Z 20
@<TRIPOS>SET

