#    Name: 2bc9_GNP_1_ligand
#    Modification time : Mon Mar 24 20:29:54 2014

@<TRIPOS>MOLECULE
2bc9_GNP_1_ligand
   44    46     1     0     0
SMALL
NO_CHARGES


@<TRIPOS>ATOM
      1 PG          4.7560   12.3580   42.5540 P.3       1 GNP593      0.0000 
      2 O1G         5.2050   12.9660   41.2820 O.co2     1 GNP593      0.0000 
      3 O2G         4.8010   13.4360   43.7470 O.co2     1 GNP593      0.0000 
      4 O3G         5.7280   11.1560   43.0040 O.co2     1 GNP593      0.0000 
      5 N3B         3.2410   11.7780   42.4620 N.4       1 GNP593      0.0000 
      6 PB          2.7680   10.9000   43.7440 P.3       1 GNP593      0.0000 
      7 O1B         3.5460    9.6410   43.7750 O.co2     1 GNP593      0.0000 
      8 O2B         2.7700   11.7490   44.9560 O.co2     1 GNP593      0.0000 
      9 O3A         1.2450   10.5360   43.3710 O.3       1 GNP593      0.0000 
     10 PA          0.0220   11.4930   43.7960 P.3       1 GNP593      0.0000 
     11 O1A        -0.3940   11.1210   45.1670 O.co2     1 GNP593      0.0000 
     12 O2A         0.4060   12.8980   43.5390 O.co2     1 GNP593      0.0000 
     13 O5'        -1.1140   11.0700   42.7390 O.3       1 GNP593      0.0000 
     14 C5'        -0.9820   11.4850   41.3780 C.3       1 GNP593      0.0000 
     15 C4'        -2.2820   11.2720   40.5980 C.3       1 GNP593      0.0000 
     16 O4'        -2.6450    9.8860   40.7220 O.3       1 GNP593      0.0000 
     17 C3'        -3.4360   12.0680   41.2120 C.3       1 GNP593      0.0000 
     18 O3'        -4.4730   12.2700   40.2490 O.3       1 GNP593      0.0000 
     19 C2'        -3.9050   11.1030   42.2980 C.3       1 GNP593      0.0000 
     20 O2'        -5.2700   11.3840   42.6220 O.3       1 GNP593      0.0000 
     21 C1'        -3.8400    9.7920   41.5140 C.3       1 GNP593      0.0000 
     22 N9         -3.7460    8.6090   42.3980 N.pl3     1 GNP593      0.0000 
     23 C8         -3.6280    8.6180   43.7210 C.2       1 GNP593      0.0000 
     24 N7         -3.5190    7.3740   44.1750 N.2       1 GNP593      0.0000 
     25 C5         -3.5740    6.5520   43.1210 C.2       1 GNP593      0.0000 
     26 C6         -3.5350    5.1760   42.9980 C.2       1 GNP593      0.0000 
     27 O6         -3.4100    4.4530   43.9870 O.2       1 GNP593      0.0000 
     28 N1         -3.6480    4.6090   41.7190 N.am      1 GNP593      0.0000 
     29 C2         -3.7980    5.4480   40.6110 C.2       1 GNP593      0.0000 
     30 N2         -3.9610    4.9120   39.4040 N.pl3     1 GNP593      0.0000 
     31 N3         -3.8230    6.7810   40.7730 N.2       1 GNP593      0.0000 
     32 C4         -3.7190    7.3380   41.9860 C.2       1 GNP593      0.0000 
     33 H          -0.1872   10.9243   40.8579 H         1 GNP593      0.0000 
     34 H          -0.7213   12.5542   41.3031 H         1 GNP593      0.0000 
     35 H          -2.1521   11.5532   39.5929 H         1 GNP593      0.0000 
     36 H          -3.0603   12.9256   41.6559 H         1 GNP593      0.0000 
     37 H          -3.2416   11.0857   43.0661 H         1 GNP593      0.0000 
     38 H          -4.7002    9.7337   40.8850 H         1 GNP593      0.0000 
     39 H          -3.6221    9.4259   44.2819 H         1 GNP593      0.0000 
     40 H          -3.6207    3.5966   41.6021 H         1 GNP593      0.0000 
     41 H          -4.0445    5.5565   38.6440 H         1 GNP593      0.0000 
     42 H          -3.9853    3.9130   39.3658 H         1 GNP593      0.0000 
     43 H          -5.3209   12.0523   40.7324 H         1 GNP593      0.0000 
     44 H          -5.7821   11.1741   41.7891 H         1 GNP593      0.0000 
@<TRIPOS>BOND
     1    2    1 ar   
     2    3    1 ar   
     3    4    1 ar   
     4    5    1 1    
     5    6    5 1    
     6    7    6 ar   
     7    8    6 ar   
     8    9    6 1    
     9   10    9 1    
    10   11   10 ar   
    11   12   10 ar   
    12   13   10 1    
    13   14   13 1    
    14   15   14 1    
    15   33   14 1    
    16   34   14 1    
    17   16   15 1    
    18   17   15 1    
    19   35   15 1    
    20   21   16 1    
    21   18   17 1    
    22   19   17 1    
    23   36   17 1    
    24   43   18 1    
    25   20   19 1    
    26   21   19 1    
    27   37   19 1    
    28   44   20 1    
    29   22   21 1    
    30   38   21 1    
    31   23   22 1    
    32   32   22 1    
    33   24   23 2    
    34   39   23 1    
    35   25   24 1    
    36   26   25 1    
    37   32   25 2    
    38   27   26 2    
    39   28   26 am   
    40   29   28 1    
    41   40   28 1    
    42   30   29 1    
    43   31   29 2    
    44   41   30 1    
    45   42   30 1    
    46   32   31 1    
@<TRIPOS>SUBSTRUCTURE
     1 GNP593      1 GROUP   
@<TRIPOS>SET

