#    Name: 4fux_E75_1_INTS_M
#    Modification time : Mon Mar 24 20:48:47 2014

@<TRIPOS>MOLECULE
4fux_E75_1_INTS_M
   55     0     9     0     0
SMALL
NO_CHARGES


@<TRIPOS>ATOM
      1 CA         22.5675   10.3970   14.8305 C.3       3 GLC5        0.0000 
      2 CA         23.2530    9.6290   13.4730 C.3       9 GLL5        0.0000 
      3 CA         21.8820   11.1650   16.1880 C.3       6 GLP5        0.0000 
      4 CA         23.7905    8.8295   15.8525 C.3       3 GLC5        0.0000 
      5 CA         23.4360    8.2580   14.1270 C.3       9 GLL5        0.0000 
      6 CA         24.1450    9.4010   17.5780 C.3       6 GLP5        0.0000 
      7 CA         24.8380    6.9915   15.1835 C.3       3 GLC5        0.0000 
      8 CA         26.2400    5.7250   16.2400 C.3       6 GLP5        0.0000 
      9 O          24.1705    5.3600   13.2960 O.2       1 ALC1        0.0000 
     10 O          22.9760    5.8610   13.9750 O.2       7 ALL1        0.0000 
     11 O          25.3650    4.8590   12.6170 O.2       4 ALP1        0.0000 
     12 CA         22.6375    4.9685   16.7475 C.3       3 GLC5        0.0000 
     13 CA         22.1820    5.2800   14.8880 C.3       9 GLL5        0.0000 
     14 CA         23.0930    4.6570   18.6070 C.3       6 GLP5        0.0000 
     15 CA         24.2110    5.5025   15.5640 C.3       3 GLC5        0.0000 
     16 CA         22.8975    3.6985   13.6135 C.3       3 GLC5        0.0000 
     17 CA         23.6130    2.1170   12.3390 C.3       6 GLP5        0.0000 
     18 N          23.7275    3.3615   14.7080 N.am      2 SEC2        0.0000 
     19 N          22.4040    3.9930   15.1920 N.am      8 SEL2        0.0000 
     20 N          25.0510    2.7300   14.2240 N.am      5 SEP2        0.0000 
     21 CA         22.2460    2.1360   14.4855 C.3       3 GLC5        0.0000 
     22 CA         21.4270    3.3850   15.8860 C.3       9 GLL5        0.0000 
     23 CA         23.0650    0.8870   13.0850 C.3       6 GLP5        0.0000 
     24 CA         15.9750    5.6995   19.7280 C.3       3 GLC5        0.0000 
     25 CA         16.9650    4.5510   18.8950 C.3       9 GLL5        0.0000 
     26 CA         14.9850    6.8480   20.5610 C.3       6 GLP5        0.0000 
     27 CA         15.6435    4.6160   20.4660 C.3       3 GLC5        0.0000 
     28 CA         17.0110    3.6510   19.9460 C.3       9 GLL5        0.0000 
     29 CA         14.2760    5.5810   20.9860 C.3       6 GLP5        0.0000 
     30 CA         19.9560    2.2765   19.7950 C.3       3 GLC5        0.0000 
     31 CA         19.3170    4.1440   20.2790 C.3       9 GLL5        0.0000 
     32 CA         20.5950    0.4090   19.3110 C.3       6 GLP5        0.0000 
     33 CA         23.7200    6.9350   10.1540 C.3       3 GLC5        0.0000 
     34 CA         23.0930    7.1740   11.9030 C.3       9 GLL5        0.0000 
     35 CA         23.8300    6.1570    8.5640 C.3       6 GLP5        0.0000 
     36 CA         21.7995    4.5892   17.3175 C.3       3 GLC5        0.0000 
     37 CA         19.9570    3.2757   14.6315 C.3       3 GLC5        0.0000 
     38 CA         19.4080    2.0300   13.2350 C.3       6 GLP5        0.0000 
     39 CA         19.4655    7.8755   17.3717 C.3       3 GLC5        0.0000 
     40 CA         18.9850    6.2080   16.2370 C.3       9 GLL5        0.0000 
     41 CA         20.1840    9.0330   18.8870 C.3       6 GLP5        0.0000 
     42 CA         19.4378    7.0955   18.8850 C.3       3 GLC5        0.0000 
     43 CA         18.1040    5.2600   18.5270 C.3       9 GLL5        0.0000 
     44 CA         17.9058    5.8875   20.4090 C.3       3 GLC5        0.0000 
     45 CA         19.2790    5.0560   19.2390 C.3       9 GLL5        0.0000 
     46 CA         17.1200    6.6170   21.9350 C.3       6 GLP5        0.0000 
     47 CA         17.1572    2.2830   21.7512 C.3       3 GLC5        0.0000 
     48 CA         16.7150    1.0200   23.2150 C.3       6 GLP5        0.0000 
     49 CA         18.3942    1.8165   20.0508 C.3       3 GLC5        0.0000 
     50 CA         18.1880    3.4410   20.6290 C.3       9 GLL5        0.0000 
     51 CA         19.1890    0.0870   19.8140 C.3       6 GLP5        0.0000 
     52 CA         17.9363    5.2047   21.1945 C.3       3 GLC5        0.0000 
     53 CA         21.1955    4.6285   19.1830 C.3       3 GLC5        0.0000 
     54 CA         20.4810    5.1765   21.3510 C.3       3 GLC5        0.0000 
     55 CA         21.6640    5.7530   22.9430 C.3       6 GLP5        0.0000 
@<TRIPOS>BOND
@<TRIPOS>SUBSTRUCTURE
     1 ALC1        9 GROUP        1 X    ALC  0     ROOT ALC X 1
     2 SEC2       18 GROUP        1 X    SEC  0     **** SEC X 2
     3 GLC5        1 GROUP        1 X    GLC  0     **** GLC X 6
     4 ALP1       11 GROUP        1 Y    ALP  0     ROOT ALP Y 8
     5 SEP2       20 GROUP        1 Y    SEP  0     **** SEP Y 9
     6 GLP5        3 GROUP        1 Y    GLP  0     **** GLP Y 13
     7 ALL1       10 GROUP        1 Z    ALL  0     ROOT ALL Z 15
     8 SEL2       19 GROUP        1 Z    SEL  0     **** SEL Z 16
     9 GLL5        2 GROUP        1 Z    GLL  0     **** GLL Z 20
@<TRIPOS>SET

