#    Name: 4fux_E75_1_ligand
#    Modification time : Mon Mar 24 20:48:47 2014

@<TRIPOS>MOLECULE
4fux_E75_1_ligand
   48    51     1     0     0
SMALL
NO_CHARGES


@<TRIPOS>ATOM
      1 O2         22.5340   10.0000   11.1940 O.3       1 E75401      0.0000 
      2 C10        23.6450    9.6190   12.0110 C.3       1 E75401      0.0000 
      3 C9         24.1270    8.2520   11.5850 C.3       1 E75401      0.0000 
      4 C8         23.0930    7.1740   11.9030 C.3       1 E75401      0.0000 
      5 C11        23.2530    9.6290   13.4730 C.3       1 E75401      0.0000 
      6 C12        23.4360    8.2580   14.1270 C.3       1 E75401      0.0000 
      7 C7         22.7080    7.1670   13.3700 C.3       1 E75401      0.0000 
      8 N4         22.9760    5.8610   13.9750 N.pl3     1 E75401      0.0000 
      9 C4         22.1820    5.2800   14.8880 C.ar      1 E75401      0.0000 
     10 N2         21.1230    5.9940   15.2840 N.ar      1 E75401      0.0000 
     11 N3         22.4040    3.9930   15.1920 N.ar      1 E75401      0.0000 
     12 C5         21.4270    3.3850   15.8860 C.ar      1 E75401      0.0000 
     13 C6         20.2630    4.0050   16.3000 C.ar      1 E75401      0.0000 
     14 C3         20.1670    5.3480   15.9630 C.ar      1 E75401      0.0000 
     15 C2         18.9850    6.2080   16.2370 C.2       1 E75401      0.0000 
     16 C13        18.5090    7.2280   15.4760 C.2       1 E75401      0.0000 
     17 C14        18.9440    7.8610   14.2070 C.3       1 E75401      0.0000 
     18 O1         17.4120    7.7540   16.0550 O.3       1 E75401      0.0000 
     19 C1         18.0840    6.1560   17.3560 C.2       1 E75401      0.0000 
     20 N1         17.1490    7.0550   17.2620 N.2       1 E75401      0.0000 
     21 C15        18.1040    5.2600   18.5270 C.ar      1 E75401      0.0000 
     22 C20        16.9650    4.5510   18.8950 C.ar      1 E75401      0.0000 
     23 C19        17.0110    3.6510   19.9460 C.ar      1 E75401      0.0000 
     24 C18        18.1880    3.4410   20.6290 C.ar      1 E75401      0.0000 
     25 C17        19.3170    4.1440   20.2790 C.ar      1 E75401      0.0000 
     26 C16        19.2790    5.0560   19.2390 C.ar      1 E75401      0.0000 
     27 H          24.4680   10.3203   11.8765 H         1 E75401      0.0000 
     28 H          25.0591    8.0137   12.1036 H         1 E75401      0.0000 
     29 H          24.3220    8.2506   10.5096 H         1 E75401      0.0000 
     30 H          23.5034    6.1955   11.6302 H         1 E75401      0.0000 
     31 H          22.1993    7.3470   11.2934 H         1 E75401      0.0000 
     32 H          22.2039    9.9294   13.5683 H         1 E75401      0.0000 
     33 H          23.8643   10.3620   14.0105 H         1 E75401      0.0000 
     34 H          23.0605    8.3028   15.1546 H         1 E75401      0.0000 
     35 H          24.5050    8.0243   14.1667 H         1 E75401      0.0000 
     36 H          21.6340    7.3791   13.4336 H         1 E75401      0.0000 
     37 H          23.8568    5.3884   13.6413 H         1 E75401      0.0000 
     38 H          21.5427    2.3550   16.1422 H         1 E75401      0.0000 
     39 H          19.5482    3.5284   16.8006 H         1 E75401      0.0000 
     40 H          16.0833    4.6987   18.3804 H         1 E75401      0.0000 
     41 H          16.1566    3.1363   20.2165 H         1 E75401      0.0000 
     42 H          18.2221    2.7576   21.4015 H         1 E75401      0.0000 
     43 H          20.2016    3.9929   20.7938 H         1 E75401      0.0000 
     44 H          20.1271    5.5886   18.9893 H         1 E75401      0.0000 
     45 H          19.8631    8.2479   14.2810 H         1 E75401      0.0000 
     46 H          18.9618    7.2055   13.4520 H         1 E75401      0.0000 
     47 H          18.3338    8.6050   13.9348 H         1 E75401      0.0000 
     48 H          22.8755   10.7485   10.6256 H         1 E75401      0.0000 
@<TRIPOS>BOND
     1    2    1 1    
     2   48    1 1    
     3    3    2 1    
     4    5    2 1    
     5   27    2 1    
     6    4    3 1    
     7   28    3 1    
     8   29    3 1    
     9    7    4 1    
    10   30    4 1    
    11   31    4 1    
    12    6    5 1    
    13   32    5 1    
    14   33    5 1    
    15    7    6 1    
    16   34    6 1    
    17   35    6 1    
    18    8    7 1    
    19   36    7 1    
    20    9    8 1    
    21   37    8 1    
    22   10    9 ar   
    23   11    9 ar   
    24   14   10 ar   
    25   12   11 ar   
    26   13   12 ar   
    27   38   12 1    
    28   14   13 ar   
    29   39   13 1    
    30   15   14 1    
    31   16   15 2    
    32   19   15 1    
    33   17   16 1    
    34   18   16 1    
    35   45   17 1    
    36   46   17 1    
    37   47   17 1    
    38   20   18 1    
    39   20   19 2    
    40   21   19 1    
    41   22   21 ar   
    42   26   21 ar   
    43   23   22 ar   
    44   40   22 1    
    45   24   23 ar   
    46   41   23 1    
    47   25   24 ar   
    48   42   24 1    
    49   26   25 ar   
    50   43   25 1    
    51   44   26 1    
@<TRIPOS>SUBSTRUCTURE
     1 E75401      1 GROUP   
@<TRIPOS>SET

