#    Name: 2rhg_IGP_1_INTS_M
#    Modification time : Mon Mar 24 23:58:04 2014

@<TRIPOS>MOLECULE
2rhg_IGP_1_INTS_M
   45     0     9     0     0
SMALL
NO_CHARGES


@<TRIPOS>ATOM
      1 CA         47.6840   30.4880   12.5115 C.3       3 GLC5        0.0000 
      2 CA         47.9320   28.5370   12.3670 C.3       9 GLL5        0.0000 
      3 CA         47.4360   32.4390   12.6560 C.3       6 GLP5        0.0000 
      4 N          49.1195   31.4455   10.4550 N.am      2 SEC2        0.0000 
      5 N          49.4530   30.1380   10.2380 N.am      8 SEL2        0.0000 
      6 N          48.7860   32.7530   10.6720 N.am      5 SEP2        0.0000 
      7 N          50.1485   30.9085    9.4980 N.am      2 SEC2        0.0000 
      8 N          50.8440   31.6790    8.7580 N.am      5 SEP2        0.0000 
      9 N          46.5530   31.1570   10.9460 N.am      2 SEC2        0.0000 
     10 N          46.8840   30.3890    9.8360 N.am      8 SEL2        0.0000 
     11 N          46.2220   31.9250   12.0560 N.am      5 SEP2        0.0000 
     12 N          47.8350   31.5710   10.2540 N.am      2 SEC2        0.0000 
     13 N          47.0990   28.3530    7.5515 N.am      2 SEC2        0.0000 
     14 N          48.1860   28.7860    8.4230 N.am      8 SEL2        0.0000 
     15 N          46.0120   27.9200    6.6800 N.am      5 SEP2        0.0000 
     16 CA         48.9840   29.5315   15.6135 C.3       3 GLC5        0.0000 
     17 CA         49.2850   27.8380   14.4410 C.3       9 GLL5        0.0000 
     18 CA         48.6830   31.2250   16.7860 C.3       6 GLP5        0.0000 
     19 O          47.5240   26.1915   14.1240 O.2       1 ALC1        0.0000 
     20 O          48.1650   27.0930   14.9850 O.2       7 ALL1        0.0000 
     21 O          46.8830   25.2900   13.2630 O.2       4 ALP1        0.0000 
     22 CA         53.1630   29.3950   14.9775 C.3       3 GLC5        0.0000 
     23 CA         51.6630   27.8430   15.3500 C.3       9 GLL5        0.0000 
     24 CA         54.6630   30.9470   14.6050 C.3       6 GLP5        0.0000 
     25 O          54.2920   27.0295   15.5785 O.2       1 ALC1        0.0000 
     26 O          52.7030   26.8970   15.6000 O.2       7 ALL1        0.0000 
     27 O          55.8810   27.1620   15.5570 O.2       4 ALP1        0.0000 
     28 CA         51.6255   24.0865   16.8485 C.3       3 GLC5        0.0000 
     29 CA         52.4270   23.2660   14.9360 C.3       9 GLL5        0.0000 
     30 CA         50.8240   24.9070   18.7610 C.3       6 GLP5        0.0000 
     31 CA         51.3113   26.8888   16.9753 C.3       3 GLC5        0.0000 
     32 CA         50.6200   27.1920   14.8430 C.3       9 GLL5        0.0000 
     33 CA         51.4810   26.2600   18.8540 C.3       6 GLP5        0.0000 
     34 CA         50.7415   25.0310   16.6598 C.3       3 GLC5        0.0000 
     35 CA         50.9850   25.7740   14.7900 C.3       9 GLL5        0.0000 
     36 CA         52.8398   25.6118   17.1047 C.3       3 GLC5        0.0000 
     37 CA         52.3220   25.7020   15.2610 C.3       9 GLL5        0.0000 
     38 CA         52.9940   26.1330   18.8960 C.3       6 GLP5        0.0000 
     39 CA         54.1185   22.9562   14.3285 C.3       3 GLC5        0.0000 
     40 CA         53.0490   24.4790   15.3660 C.3       9 GLL5        0.0000 
     41 CA         55.4990   22.0400   13.5060 C.3       6 GLP5        0.0000 
     42 CA         53.5605   22.9462   16.5145 C.3       3 GLC5        0.0000 
     43 CA         54.3830   22.0200   17.8780 C.3       6 GLP5        0.0000 
     44 CA         50.7112   21.7133   14.9465 C.3       3 GLC5        0.0000 
     45 CA         49.6610   20.1540   15.2060 C.3       6 GLP5        0.0000 
@<TRIPOS>BOND
@<TRIPOS>SUBSTRUCTURE
     1 ALC1       19 GROUP        1 X    ALC  0     ROOT ALC X 1
     2 SEC2        4 GROUP        1 X    SEC  0     **** SEC X 2
     3 GLC5        1 GROUP        1 X    GLC  0     **** GLC X 6
     4 ALP1       21 GROUP        1 Y    ALP  0     ROOT ALP Y 8
     5 SEP2        6 GROUP        1 Y    SEP  0     **** SEP Y 9
     6 GLP5        3 GROUP        1 Y    GLP  0     **** GLP Y 13
     7 ALL1       20 GROUP        1 Z    ALL  0     ROOT ALL Z 15
     8 SEL2        5 GROUP        1 Z    SEL  0     **** SEL Z 16
     9 GLL5        2 GROUP        1 Z    GLL  0     **** GLL Z 20
@<TRIPOS>SET

