#    Name: 2rhg_IGP_1_ligand
#    Modification time : Mon Mar 24 23:58:04 2014

@<TRIPOS>MOLECULE
2rhg_IGP_1_ligand
   31    32     1     0     0
SMALL
NO_CHARGES


@<TRIPOS>ATOM
      1 C1         47.9320   28.5370   12.3670 C.3       1 IGP269      0.0000 
      2 P          48.1380   29.3540    9.8490 P.3       1 IGP269      0.0000 
      3 OP1        49.4530   30.1380   10.2380 O.co2     1 IGP269      0.0000 
      4 OP2        46.8840   30.3890    9.8360 O.co2     1 IGP269      0.0000 
      5 OP3        48.1860   28.7860    8.4230 O.co2     1 IGP269      0.0000 
      6 OP4        47.8100   28.2100   10.9230 O.3       1 IGP269      0.0000 
      7 C2         49.2310   27.9090   12.8950 C.3       1 IGP269      0.0000 
      8 O2         50.3580   28.6520   12.4240 O.3       1 IGP269      0.0000 
      9 C3         49.2850   27.8380   14.4410 C.3       1 IGP269      0.0000 
     10 O3         48.1650   27.0930   14.9850 O.3       1 IGP269      0.0000 
     11 CG         50.6200   27.1920   14.8430 C.2       1 IGP269      0.0000 
     12 CD2        50.9850   25.7740   14.7900 C.ar      1 IGP269      0.0000 
     13 CE2        52.3220   25.7020   15.2610 C.ar      1 IGP269      0.0000 
     14 CE3        50.3330   24.5360   14.3270 C.ar      1 IGP269      0.0000 
     15 CD1        51.6630   27.8430   15.3500 C.2       1 IGP269      0.0000 
     16 NE1        52.7030   26.8970   15.6000 N.pl3     1 IGP269      0.0000 
     17 CZ2        53.0490   24.4790   15.3660 C.ar      1 IGP269      0.0000 
     18 CZ3        51.0960   23.2790   14.4380 C.ar      1 IGP269      0.0000 
     19 CH2        52.4270   23.2660   14.9360 C.ar      1 IGP269      0.0000 
     20 H          47.0993   28.1271   12.9231 H         1 IGP269      0.0000 
     21 H          47.9818   29.6079   12.5132 H         1 IGP269      0.0000 
     22 H          49.2799   26.8821   12.5234 H         1 IGP269      0.0000 
     23 H          49.2936   28.8576   14.8102 H         1 IGP269      0.0000 
     24 H          49.4224   24.5474   13.9575 H         1 IGP269      0.0000 
     25 H          51.7563   28.7746   15.5353 H         1 IGP269      0.0000 
     26 H          53.5575   27.1805   15.9757 H         1 IGP269      0.0000 
     27 H          53.9862   24.4691   15.7372 H         1 IGP269      0.0000 
     28 H          50.6404   22.4160   14.1464 H         1 IGP269      0.0000 
     29 H          52.9437   22.3891   14.9882 H         1 IGP269      0.0000 
     30 H          50.0174   29.1684   11.6383 H         1 IGP269      0.0000 
     31 H          47.8535   26.5098   14.2348 H         1 IGP269      0.0000 
@<TRIPOS>BOND
     1    6    1 1    
     2    7    1 1    
     3   20    1 1    
     4   21    1 1    
     5    3    2 ar   
     6    4    2 ar   
     7    5    2 ar   
     8    6    2 1    
     9    8    7 1    
    10    9    7 1    
    11   22    7 1    
    12   30    8 1    
    13   10    9 1    
    14   11    9 1    
    15   23    9 1    
    16   31   10 1    
    17   12   11 1    
    18   15   11 2    
    19   13   12 ar   
    20   14   12 ar   
    21   16   13 1    
    22   17   13 ar   
    23   18   14 ar   
    24   24   14 1    
    25   16   15 1    
    26   25   15 1    
    27   26   16 1    
    28   19   17 ar   
    29   27   17 1    
    30   19   18 ar   
    31   28   18 1    
    32   29   19 1    
@<TRIPOS>SUBSTRUCTURE
     1 IGP269      1 GROUP   
@<TRIPOS>SET

