#    Name: 3ilt_TRU_1_INTS_M
#    Modification time : Tue Mar 25 16:44:47 2014

@<TRIPOS>MOLECULE
3ilt_TRU_1_INTS_M
   54     0     9     0     0
SMALL
NO_CHARGES


@<TRIPOS>ATOM
      1 N          16.9335    4.7635   27.5280 N.am      2 SEC2        0.0000 
      2 N          18.4880    4.5790   28.0590 N.am      8 SEL2        0.0000 
      3 N          15.3790    4.9480   26.9970 N.am      5 SEP2        0.0000 
      4 CA         19.1380   -0.0365   29.1420 C.3       3 GLC5        0.0000 
      5 CA         20.8480    1.0360   30.1180 C.3       9 GLL5        0.0000 
      6 CA         17.4280   -1.1090   28.1660 C.3       6 GLP5        0.0000 
      7 CA         23.3560    1.9710   28.5490 C.3       3 GLC5        0.0000 
      8 CA         21.9400    1.0640   28.7040 C.3       9 GLL5        0.0000 
      9 CA         24.7720    2.8780   28.3940 C.3       6 GLP5        0.0000 
     10 CA         23.2465   -0.2105   28.0540 C.3       3 GLC5        0.0000 
     11 CA         24.5530   -1.4850   27.4040 C.3       6 GLP5        0.0000 
     12 CA         21.9285   -0.2710   30.5530 C.3       3 GLC5        0.0000 
     13 CA         19.8380   -0.4390   30.0590 C.3       9 GLL5        0.0000 
     14 CA         24.0190   -0.1030   31.0470 C.3       6 GLP5        0.0000 
     15 CA         20.0270    0.2640   32.0010 C.3       3 GLC5        0.0000 
     16 CA         20.2160    0.9670   33.9430 C.3       6 GLP5        0.0000 
     17 CA         18.9030   -1.4495   29.3260 C.3       3 GLC5        0.0000 
     18 CA         17.9680   -2.4600   28.5930 C.3       6 GLP5        0.0000 
     19 O          19.1235    1.2415   32.2495 O.2       1 ALC1        0.0000 
     20 O          18.9600    2.2480   31.3280 O.2       7 ALL1        0.0000 
     21 O          19.2870    0.2350   33.1710 O.2       4 ALP1        0.0000 
     22 CA         19.1105    4.8065   31.5625 C.3       3 GLC5        0.0000 
     23 CA         17.7270    3.0960   31.3970 C.3       9 GLL5        0.0000 
     24 CA         20.4940    6.5170   31.7280 C.3       6 GLP5        0.0000 
     25 CA         18.7920    3.7425   32.9900 C.3       3 GLC5        0.0000 
     26 CA         19.8570    4.3890   34.5830 C.3       6 GLP5        0.0000 
     27 CA         16.3570    4.4415   35.0590 C.3       3 GLC5        0.0000 
     28 CA         15.0130    4.1910   34.2860 C.3       9 GLL5        0.0000 
     29 CA         17.7010    4.6920   35.8320 C.3       6 GLP5        0.0000 
     30 CA         14.2155    4.0700   35.6125 C.3       3 GLC5        0.0000 
     31 CA         13.4180    3.9490   36.9390 C.3       6 GLP5        0.0000 
     32 O          12.8350    3.0345   30.8070 O.2       1 ALC1        0.0000 
     33 O          12.8000    4.3470   31.7960 O.2       7 ALL1        0.0000 
     34 O          12.8700    1.7220   29.8180 O.2       4 ALP1        0.0000 
     35 N          14.8280    6.6020   29.4065 N.am      2 SEC2        0.0000 
     36 N          13.7380    5.9700   30.3920 N.am      8 SEL2        0.0000 
     37 N          15.9180    7.2340   28.4210 N.am      5 SEP2        0.0000 
     38 CA         15.2915    5.2045   28.4410 C.3       3 GLC5        0.0000 
     39 CA         15.8860    4.2790   30.2610 C.3       9 GLL5        0.0000 
     40 CA         14.6970    6.1300   26.6210 C.3       6 GLP5        0.0000 
     41 CA         20.2972    1.3245   32.0245 C.3       3 GLC5        0.0000 
     42 CA         19.9090    2.3280   30.0940 C.3       9 GLL5        0.0000 
     43 CA         22.7065    0.4735   30.2290 C.3       3 GLC5        0.0000 
     44 CA         18.7997    2.0620   32.9813 C.3       3 GLC5        0.0000 
     45 CA         15.7668    2.2415   31.1532 C.3       3 GLC5        0.0000 
     46 CA         17.0400    3.2180   32.6420 C.3       9 GLL5        0.0000 
     47 CA         14.1500    1.3260   30.2870 C.3       6 GLP5        0.0000 
     48 CA         17.0637    4.1340   34.2537 C.3       3 GLC5        0.0000 
     49 CA         14.8365    2.7630   31.2010 C.3       3 GLC5        0.0000 
     50 CA         15.8130    3.9340   32.7090 C.3       9 GLL5        0.0000 
     51 CA         15.3268    2.6273   30.2587 C.3       3 GLC5        0.0000 
     52 CA         16.7951    5.8636   30.4447 C.3       3 GLC5        0.0000 
     53 CA         17.1210    3.5780   30.2000 C.3       9 GLL5        0.0000 
     54 CA         17.2500    7.7520   30.3440 C.3       6 GLP5        0.0000 
@<TRIPOS>BOND
@<TRIPOS>SUBSTRUCTURE
     1 ALC1       19 GROUP        1 X    ALC  0     ROOT ALC X 1
     2 SEC2        1 GROUP        1 X    SEC  0     **** SEC X 2
     3 GLC5        4 GROUP        1 X    GLC  0     **** GLC X 6
     4 ALP1       21 GROUP        1 Y    ALP  0     ROOT ALP Y 8
     5 SEP2        3 GROUP        1 Y    SEP  0     **** SEP Y 9
     6 GLP5        6 GROUP        1 Y    GLP  0     **** GLP Y 13
     7 ALL1       20 GROUP        1 Z    ALL  0     ROOT ALL Z 15
     8 SEL2        2 GROUP        1 Z    SEL  0     **** SEL Z 16
     9 GLL5        5 GROUP        1 Z    GLL  0     **** GLL Z 20
@<TRIPOS>SET

