#    Name: 3ilt_TRU_1_ligand
#    Modification time : Tue Mar 25 16:44:48 2014

@<TRIPOS>MOLECULE
3ilt_TRU_1_ligand
   28    29     1     0     0
SMALL
NO_CHARGES


@<TRIPOS>ATOM
      1 S1         17.9710    3.3040   28.5650 S.o2      1 TRU800      0.0000 
      2 O17        17.0210    2.7460   27.6000 O.2       1 TRU800      0.0000 
      3 O16        18.4880    4.5790   28.0590 O.2       1 TRU800      0.0000 
      4 N10        19.1360    2.3200   28.7710 N.pl3     1 TRU800      0.0000 
      5 C9         19.9090    2.3280   30.0940 C.3       1 TRU800      0.0000 
      6 C18        20.8480    1.0360   30.1180 C.3       1 TRU800      0.0000 
      7 CL20       21.9400    1.0640   28.7040 Cl        1 TRU800      0.0000 
      8 CL19       19.8380   -0.4390   30.0590 Cl        1 TRU800      0.0000 
      9 N8         18.9600    2.2480   31.3280 N.pl3     1 TRU800      0.0000 
     10 C3         17.7270    3.0960   31.3970 C.ar      1 TRU800      0.0000 
     11 C4         17.0400    3.2180   32.6420 C.ar      1 TRU800      0.0000 
     12 C5         15.8130    3.9340   32.7090 C.ar      1 TRU800      0.0000 
     13 CL11       15.0130    4.1910   34.2860 Cl        1 TRU800      0.0000 
     14 C6         15.2330    4.4660   31.5210 C.ar      1 TRU800      0.0000 
     15 S12        13.9210    5.2660   31.5940 S.o2      1 TRU800      0.0000 
     16 N15        12.8000    4.3470   31.7960 N.pl3     1 TRU800      0.0000 
     17 O14        13.7380    5.9700   30.3920 O.2       1 TRU800      0.0000 
     18 O13        13.9850    6.1760   32.6670 O.2       1 TRU800      0.0000 
     19 C7         15.8860    4.2790   30.2610 C.ar      1 TRU800      0.0000 
     20 C2         17.1210    3.5780   30.2000 C.ar      1 TRU800      0.0000 
     21 H          19.3792    1.6949   28.0607 H         1 TRU800      0.0000 
     22 H          20.5278    3.1749   30.1660 H         1 TRU800      0.0000 
     23 H          21.4308    0.9706   30.9504 H         1 TRU800      0.0000 
     24 H          19.1960    1.6254   32.0566 H         1 TRU800      0.0000 
     25 H          17.4293    2.7925   33.4792 H         1 TRU800      0.0000 
     26 H          12.8908    3.4434   31.3774 H         1 TRU800      0.0000 
     27 H          12.0351    4.6980   32.3361 H         1 TRU800      0.0000 
     28 H          15.4639    4.6484   29.4143 H         1 TRU800      0.0000 
@<TRIPOS>BOND
     1    2    1 2    
     2    3    1 2    
     3    4    1 1    
     4   20    1 1    
     5    5    4 1    
     6   21    4 1    
     7    6    5 1    
     8    9    5 1    
     9   22    5 1    
    10    7    6 1    
    11    8    6 1    
    12   23    6 1    
    13   10    9 1    
    14   24    9 1    
    15   11   10 ar   
    16   20   10 ar   
    17   12   11 ar   
    18   25   11 1    
    19   13   12 1    
    20   14   12 ar   
    21   15   14 1    
    22   19   14 ar   
    23   16   15 1    
    24   17   15 2    
    25   18   15 2    
    26   26   16 1    
    27   27   16 1    
    28   20   19 ar   
    29   28   19 1    
@<TRIPOS>SUBSTRUCTURE
     1 TRU800      1 GROUP   
@<TRIPOS>SET

