#    Name: 1g7v_PAI_1_INTS_M
#    Modification time : Tue Mar 25 02:44:21 2014

@<TRIPOS>MOLECULE
1g7v_PAI_1_INTS_M
   38     0    12     0     0
SMALL
NO_CHARGES


@<TRIPOS>ATOM
      1 NZ          5.8750  100.8545   78.0500 N.4       3 LYC4        0.0000 
      2 NZ          7.5090  100.4130   78.9330 N.4      11 LYL4        0.0000 
      3 NZ          4.2410  101.2960   77.1670 N.4       7 LYP4        0.0000 
      4 N           6.1185  102.3080   78.5355 N.am      2 SEC2        0.0000 
      5 N           7.1910  103.1300   78.8710 N.am     10 SEL2        0.0000 
      6 N           5.0460  101.4860   78.2000 N.am      6 SEP2        0.0000 
      7 CA          8.7895  104.2325   80.8110 C.3       4 GLC5        0.0000 
      8 CA          7.1240  104.5570   79.3780 C.3      12 GLL5        0.0000 
      9 CA         10.4550  103.9080   82.2440 C.3       8 GLP5        0.0000 
     10 CA          5.4010  107.1070   79.1370 C.3       4 GLC5        0.0000 
     11 CA          6.5590  105.7140   78.3910 C.3      12 GLL5        0.0000 
     12 CA          4.2430  108.5000   79.8830 C.3       8 GLP5        0.0000 
     13 CA          7.6645  104.1435   75.9755 C.3       4 GLC5        0.0000 
     14 CA          7.2140  105.7910   76.9190 C.3      12 GLL5        0.0000 
     15 CA          8.1150  102.4960   75.0320 C.3       8 GLP5        0.0000 
     16 CA          8.7190  105.0870   75.7225 C.3       4 GLC5        0.0000 
     17 CA         10.2240  104.3830   74.5260 C.3       8 GLP5        0.0000 
     18 O           7.0865  104.9310   73.8330 O.2       1 ALC1        0.0000 
     19 O           7.0740  106.3710   74.5370 O.2       9 ALL1        0.0000 
     20 O           7.0990  103.4910   73.1290 O.2       5 ALP1        0.0000 
     21 CA          9.1900  110.0660   74.2030 C.3       4 GLC5        0.0000 
     22 CA          7.1410  109.4070   74.6570 C.3      12 GLL5        0.0000 
     23 CA         11.2390  110.7250   73.7490 C.3       8 GLP5        0.0000 
     24 CA          5.2430  108.6720   69.7900 C.3       4 GLC5        0.0000 
     25 CA          5.1740  109.0060   71.8210 C.3      12 GLL5        0.0000 
     26 CA          5.3120  108.3380   67.7590 C.3       8 GLP5        0.0000 
     27 CA          3.6440  112.3280   75.6400 C.3       4 GLC5        0.0000 
     28 CA          5.0530  110.6530   75.2690 C.3      12 GLL5        0.0000 
     29 CA          2.2350  114.0030   76.0110 C.3       8 GLP5        0.0000 
     30 NZ          7.4755  112.8060   72.8935 N.4       3 LYC4        0.0000 
     31 NZ          7.0600  112.2980   74.4760 N.4      11 LYL4        0.0000 
     32 NZ          7.8910  113.3140   71.3110 N.4       7 LYP4        0.0000 
     33 CA          5.4657  104.4317   77.8218 C.3       4 GLC5        0.0000 
     34 CA          4.0900  103.7280   76.7590 C.3       8 GLP5        0.0000 
     35 CA          5.5245  105.0482   76.5657 C.3       4 GLC5        0.0000 
     36 CA          8.5240  106.9183   74.3562 C.3       4 GLC5        0.0000 
     37 CA          6.7040  106.9460   75.8260 C.3      12 GLL5        0.0000 
     38 CA          9.9670  106.1740   72.8860 C.3       8 GLP5        0.0000 
@<TRIPOS>BOND
@<TRIPOS>SUBSTRUCTURE
     1 ALC1       18 GROUP        1 X    ALC  0     ROOT ALC X 1
     2 SEC2        4 GROUP        1 X    SEC  0     **** SEC X 2
     3 LYC4        1 GROUP        1 X    LYC  0     **** LYC X 4
     4 GLC5        7 GROUP        1 X    GLC  0     **** GLC X 6
     5 ALP1       20 GROUP        1 Y    ALP  0     ROOT ALP Y 8
     6 SEP2        6 GROUP        1 Y    SEP  0     **** SEP Y 9
     7 LYP4        3 GROUP        1 Y    LYP  0     **** LYP Y 11
     8 GLP5        9 GROUP        1 Y    GLP  0     **** GLP Y 13
     9 ALL1       19 GROUP        1 Z    ALL  0     ROOT ALL Z 15
    10 SEL2        5 GROUP        1 Z    SEL  0     **** SEL Z 16
    11 LYL4        2 GROUP        1 Z    LYL  0     **** LYL Z 18
    12 GLL5        8 GROUP        1 Z    GLL  0     **** GLL Z 20
@<TRIPOS>SET

