#    Name: 1g7v_PAI_1_ligand
#    Modification time : Tue Mar 25 02:44:21 2014

@<TRIPOS>MOLECULE
1g7v_PAI_1_ligand
   45    44     1     0     0
SMALL
NO_CHARGES


@<TRIPOS>ATOM
      1 P1          7.5020  101.7470   79.8450 P.3       1 PAI300      0.0000 
      2 O1P         6.3700  101.5580   81.0220 O.co2     1 PAI300      0.0000 
      3 O2P         7.5090  100.4130   78.9330 O.co2     1 PAI300      0.0000 
      4 O3P         7.1910  103.1300   78.8710 O.3       1 PAI300      0.0000 
      5 O4P         8.9520  101.9100   80.5560 O.co2     1 PAI300      0.0000 
      6 C6          7.1240  104.5570   79.3780 C.3       1 PAI300      0.0000 
      7 C5          6.5590  105.7140   78.3910 C.3       1 PAI300      0.0000 
      8 O1          6.7970  106.9620   79.0640 O.3       1 PAI300      0.0000 
      9 C4          7.2140  105.7910   76.9190 C.3       1 PAI300      0.0000 
     10 O4          6.9200  104.5030   76.3320 O.3       1 PAI300      0.0000 
     11 C3          6.7040  106.9460   75.8260 C.3       1 PAI300      0.0000 
     12 O3          7.0740  106.3710   74.5370 O.3       1 PAI300      0.0000 
     13 C2          7.4580  108.3790   75.8270 C.3       1 PAI300      0.0000 
     14 O2          7.1800  109.1160   77.0050 O.3       1 PAI300      0.0000 
     15 C1          7.1410  109.4070   74.6570 C.3       1 PAI300      0.0000 
     16 N1          5.7140  109.7020   74.2780 N.4       1 PAI300      0.0000 
     17 C7          5.4600  110.1480   72.8380 C.3       1 PAI300      0.0000 
     18 C8          5.1740  109.0060   71.8210 C.3       1 PAI300      0.0000 
     19 O5          4.1300  108.2600   71.9520 O.3       1 PAI300      0.0000 
     20 O6          5.9590  108.8750   70.8640 O.3       1 PAI300      0.0000 
     21 C9          5.0530  110.6530   75.2690 C.3       1 PAI300      0.0000 
     22 P2          5.5890  112.3360   75.0920 P.3       1 PAI300      0.0000 
     23 O5P         4.5340  112.9810   74.0490 O.co2     1 PAI300      0.0000 
     24 O6P         5.5880  113.1960   76.4670 O.co2     1 PAI300      0.0000 
     25 O7P         7.0600  112.2980   74.4760 O.co2     1 PAI300      0.0000 
     26 H           8.1381  104.8968   79.7010 H         1 PAI300      0.0000 
     27 H           6.4961  104.6066   80.3007 H         1 PAI300      0.0000 
     28 H           5.5017  105.5444   78.2775 H         1 PAI300      0.0000 
     29 H           8.2777  105.9000   77.0265 H         1 PAI300      0.0000 
     30 H           5.6852  107.0650   75.9100 H         1 PAI300      0.0000 
     31 H           8.5382  108.1797   75.7730 H         1 PAI300      0.0000 
     32 H           7.7039  109.0413   73.7518 H         1 PAI300      0.0000 
     33 H           7.6659  110.3670   74.9269 H         1 PAI300      0.0000 
     34 H           5.1394  108.7209   74.4001 H         1 PAI300      0.0000 
     35 H           6.3354  110.7199   72.4754 H         1 PAI300      0.0000 
     36 H           4.6019  110.8467   72.8204 H         1 PAI300      0.0000 
     37 H           5.9602  108.1372   72.6499 H         1 PAI300      0.0000 
     38 H           5.2940  110.4254   76.2953 H         1 PAI300      0.0000 
     39 H           3.9846  110.7208   75.1385 H         1 PAI300      0.0000 
     40 H           6.8794  107.6388   78.3325 H         1 PAI300      0.0000 
     41 H           7.4512  103.8470   76.8683 H         1 PAI300      0.0000 
     42 H           7.3845  105.4439   74.7469 H         1 PAI300      0.0000 
     43 H           8.0732  109.2827   77.4227 H         1 PAI300      0.0000 
     44 H           4.4672  107.3237   71.8541 H         1 PAI300      0.0000 
     45 H           5.3726  108.7533   70.0632 H         1 PAI300      0.0000 
@<TRIPOS>BOND
     1    2    1 ar   
     2    3    1 ar   
     3    4    1 1    
     4    5    1 ar   
     5    6    4 1    
     6    7    6 1    
     7   26    6 1    
     8   27    6 1    
     9    8    7 1    
    10    9    7 1    
    11   28    7 1    
    12   40    8 1    
    13   10    9 1    
    14   11    9 1    
    15   29    9 1    
    16   41   10 1    
    17   12   11 1    
    18   13   11 1    
    19   30   11 1    
    20   42   12 1    
    21   14   13 1    
    22   15   13 1    
    23   31   13 1    
    24   43   14 1    
    25   16   15 1    
    26   32   15 1    
    27   33   15 1    
    28   17   16 1    
    29   21   16 1    
    30   34   16 1    
    31   18   17 1    
    32   35   17 1    
    33   36   17 1    
    34   19   18 1    
    35   20   18 1    
    36   37   18 1    
    37   44   19 1    
    38   45   20 1    
    39   22   21 1    
    40   38   21 1    
    41   39   21 1    
    42   23   22 ar   
    43   24   22 ar   
    44   25   22 ar   
@<TRIPOS>SUBSTRUCTURE
     1 PAI300      1 GROUP   
@<TRIPOS>SET

