#    Name: 2X90_1_CAVITY_N1_6.mol2
#    Modification time : Mon Mar 10 22:40:01 2014

@<TRIPOS>MOLECULE
2X90_1_CAVITY_N1_6.mol2
  153     0     7     0     0
SMALL
NO_CHARGES


@<TRIPOS>ATOM
      1 CZ        -17.7628   18.8116  -27.0407 C.ar      5 PHE5        0.0000 
      2 NZ        -18.4140   19.7435  -28.0191 N.2       4 LYS4        0.0000 
      3 CZ        -18.4606   17.4933  -25.5323 C.ar      5 PHE5        0.0000 
      4 CZ        -19.1118   18.4253  -26.5107 C.ar      5 PHE5        0.0000 
      5 NZ        -19.7630   19.3573  -27.4891 N.2       4 LYS4        0.0000 
      6 CZ        -18.5071   15.2431  -23.0454 C.ar      5 PHE5        0.0000 
      7 CZ        -19.1584   16.1750  -24.0238 C.ar      5 PHE5        0.0000 
      8 CZ        -19.8096   17.1070  -25.0023 C.ar      5 PHE5        0.0000 
      9 CZ        -20.4608   18.0390  -25.9807 C.ar      5 PHE5        0.0000 
     10 NZ        -21.1121   18.9710  -26.9591 N.2       4 LYS4        0.0000 
     11 CZ        -19.8562   14.8568  -22.5154 C.ar      5 PHE5        0.0000 
     12 CZ        -20.5074   15.7888  -23.4939 C.ar      5 PHE5        0.0000 
     13 CA        -21.1586   16.7208  -24.4723 C.3       6 GLY6        0.0000 
     14 OD1       -21.8099   17.6527  -25.4507 O.3       3 ASP3        0.0000 
     15 OD1       -22.4611   18.5847  -26.4291 O.3       3 ASP3        0.0000 
     16 OD1       -23.1124   19.5167  -27.4075 O.3       3 ASP3        0.0000 
     17 DU        -22.5077   16.3345  -23.9423 H         7 CUB7        0.0000 
     18 OD1       -23.1589   17.2665  -24.9207 O.3       3 ASP3        0.0000 
     19 OD1       -23.8102   18.1984  -25.8991 O.3       3 ASP3        0.0000 
     20 OG        -16.3364   20.3079  -26.5648 O.2       1 SER1        0.0000 
     21 N         -15.7317   17.1256  -23.0995 N.2       2 ALA2        0.0000 
     22 CZ        -16.3829   18.0576  -24.0779 C.ar      5 PHE5        0.0000 
     23 CZ        -17.0342   18.9896  -25.0563 C.ar      5 PHE5        0.0000 
     24 OG        -17.6854   19.9216  -26.0348 O.2       1 SER1        0.0000 
     25 N         -16.4295   15.8074  -21.5911 N.2       2 ALA2        0.0000 
     26 CZ        -17.0807   16.7394  -22.5695 C.ar      5 PHE5        0.0000 
     27 CZ        -17.7320   17.6714  -23.5479 C.ar      5 PHE5        0.0000 
     28 CZ        -18.3832   18.6033  -24.5264 C.ar      5 PHE5        0.0000 
     29 DU        -19.0345   19.5353  -25.5048 H         7 CUB7        0.0000 
     30 OG        -19.6857   20.4673  -26.4832 O.2       1 SER1        0.0000 
     31 DU        -17.7785   15.4211  -21.0611 H         7 CUB7        0.0000 
     32 DU        -18.4298   16.3531  -22.0395 H         7 CUB7        0.0000 
     33 DU        -19.0810   17.2851  -23.0180 H         7 CUB7        0.0000 
     34 DU        -19.7323   18.2171  -23.9964 H         7 CUB7        0.0000 
     35 NZ        -21.0347   20.0810  -25.9532 N.2       4 LYS4        0.0000 
     36 NZ        -21.6860   21.0130  -26.9316 N.2       4 LYS4        0.0000 
     37 DU        -19.7788   15.9668  -21.5096 H         7 CUB7        0.0000 
     38 DU        -20.4301   16.8988  -22.4880 H         7 CUB7        0.0000 
     39 DU        -22.3838   19.6948  -25.4232 H         7 CUB7        0.0000 
     40 N         -23.0350   20.6267  -26.4016 N.2       2 ALA2        0.0000 
     41 DU        -23.7328   19.3085  -24.8932 H         7 CUB7        0.0000 
     42 DU        -24.3841   20.2405  -25.8716 H         7 CUB7        0.0000 
     43 CA        -14.9566   19.5540  -23.6020 C.3       6 GLY6        0.0000 
     44 CA        -15.6078   20.4859  -24.5804 C.3       6 GLY6        0.0000 
     45 OG        -16.2590   21.4179  -25.5589 O.2       1 SER1        0.0000 
     46 N         -16.3056   19.1677  -23.0720 N.2       2 ALA2        0.0000 
     47 DU        -16.9568   20.0997  -24.0505 H         7 CUB7        0.0000 
     48 OG        -17.6081   21.0316  -25.0289 O.2       1 SER1        0.0000 
     49 OG        -18.2593   21.9636  -26.0073 O.2       1 SER1        0.0000 
     50 N         -16.3522   16.9174  -20.5852 N.2       2 ALA2        0.0000 
     51 N         -17.0034   17.8494  -21.5636 N.2       2 ALA2        0.0000 
     52 DU        -17.6546   18.7814  -22.5421 H         7 CUB7        0.0000 
     53 DU        -18.9571   20.6454  -24.4989 H         7 CUB7        0.0000 
     54 CA        -19.6084   21.5774  -25.4773 C.3       6 GLY6        0.0000 
     55 CA        -20.2596   22.5093  -26.4557 C.3       6 GLY6        0.0000 
     56 DU        -17.7012   16.5312  -20.0552 H         7 CUB7        0.0000 
     57 DU        -18.3524   17.4631  -21.0337 H         7 CUB7        0.0000 
     58 DU        -20.3062   20.2591  -23.9689 H         7 CUB7        0.0000 
     59 CA        -20.9574   21.1911  -24.9473 C.3       6 GLY6        0.0000 
     60 N         -21.6086   22.1231  -25.9257 N.2       2 ALA2        0.0000 
     61 OG        -19.0502   16.1449  -19.5252 O.2       1 SER1        0.0000 
     62 DU        -19.7015   17.0769  -20.5037 H         7 CUB7        0.0000 
     63 N         -22.3064   20.8048  -24.4173 N.2       2 ALA2        0.0000 
     64 N         -22.9577   21.7368  -25.3957 N.2       2 ALA2        0.0000 
     65 DU        -23.6555   20.4185  -23.8873 H         7 CUB7        0.0000 
     66 N         -24.3067   21.3505  -24.8657 N.2       2 ALA2        0.0000 
     67 CA        -13.5302   21.0503  -23.1261 C.3       6 GLY6        0.0000 
     68 CA        -14.1814   21.9823  -24.1045 C.3       6 GLY6        0.0000 
     69 N         -14.8327   22.9142  -25.0830 N.2       2 ALA2        0.0000 
     70 N         -14.2280   19.7320  -21.6177 N.2       2 ALA2        0.0000 
     71 CA        -14.8792   20.6640  -22.5961 C.3       6 GLY6        0.0000 
     72 CA        -15.5305   21.5960  -23.5746 C.3       6 GLY6        0.0000 
     73 CZ        -16.1817   22.5280  -24.5530 C.ar      5 PHE5        0.0000 
     74 CZ        -16.8330   23.4599  -25.5314 C.ar      5 PHE5        0.0000 
     75 N         -15.5770   19.3457  -21.0877 N.2       2 ALA2        0.0000 
     76 DU        -16.2283   20.2777  -22.0662 H         7 CUB7        0.0000 
     77 DU        -16.8795   21.2097  -23.0446 H         7 CUB7        0.0000 
     78 CA        -17.5307   22.1417  -24.0230 C.3       6 GLY6        0.0000 
     79 CA        -18.1820   23.0737  -25.0014 C.3       6 GLY6        0.0000 
     80 N         -16.2748   18.0275  -19.5793 N.2       2 ALA2        0.0000 
     81 N         -16.9261   18.9595  -20.5577 N.2       2 ALA2        0.0000 
     82 DU        -17.5773   19.8914  -21.5362 H         7 CUB7        0.0000 
     83 DU        -18.2285   20.8234  -22.5146 H         7 CUB7        0.0000 
     84 CA        -18.8798   21.7554  -23.4930 C.3       6 GLY6        0.0000 
     85 DU        -17.6239   17.6412  -19.0493 H         7 CUB7        0.0000 
     86 DU        -19.5776   20.4372  -21.9846 H         7 CUB7        0.0000 
     87 CA        -20.2288   21.3691  -22.9630 C.3       6 GLY6        0.0000 
     88 CA        -20.8801   22.3011  -23.9414 C.3       6 GLY6        0.0000 
     89 OG        -18.9729   17.2549  -18.5194 O.2       1 SER1        0.0000 
     90 DU        -19.6241   18.1869  -19.4978 H         7 CUB7        0.0000 
     91 NZ        -12.1038   22.5466  -22.6502 N.2       4 LYS4        0.0000 
     92 N         -12.7551   23.4786  -23.6286 N.2       2 ALA2        0.0000 
     93 N         -13.4063   24.4106  -24.6071 N.2       2 ALA2        0.0000 
     94 CA        -12.8016   21.2283  -21.1418 C.3       6 GLY6        0.0000 
     95 OD1       -13.4529   22.1603  -22.1202 O.3       3 ASP3        0.0000 
     96 OG        -14.1041   23.0923  -23.0986 O.2       1 SER1        0.0000 
     97 OG        -14.7553   24.0243  -24.0771 O.2       1 SER1        0.0000 
     98 N         -15.4066   24.9563  -25.0555 N.2       2 ALA2        0.0000 
     99 CA        -13.4994   19.9101  -19.6334 C.3       6 GLY6        0.0000 
    100 N         -14.1507   20.8421  -20.6118 N.2       2 ALA2        0.0000 
    101 DU        -14.8019   21.7740  -21.5902 H         7 CUB7        0.0000 
    102 DU        -15.4531   22.7060  -22.5687 H         7 CUB7        0.0000 
    103 CA        -16.1044   23.6380  -23.5471 C.3       6 GLY6        0.0000 
    104 CA        -16.7556   24.5700  -24.5255 C.3       6 GLY6        0.0000 
    105 N         -14.8485   19.5238  -19.1034 N.2       2 ALA2        0.0000 
    106 DU        -15.4997   20.4558  -20.0818 H         7 CUB7        0.0000 
    107 DU        -16.1509   21.3878  -21.0603 H         7 CUB7        0.0000 
    108 DU        -16.8022   22.3198  -22.0387 H         7 CUB7        0.0000 
    109 CA        -17.4534   23.2517  -23.0171 C.3       6 GLY6        0.0000 
    110 DU        -16.1975   19.1375  -18.5734 H         7 CUB7        0.0000 
    111 DU        -16.8487   20.0695  -19.5519 H         7 CUB7        0.0000 
    112 O         -17.5000   21.0015  -20.5303 O.2       2 ALA2        0.0000 
    113 O         -18.1512   21.9335  -21.5087 O.2       2 ALA2        0.0000 
    114 CA        -18.8025   22.8655  -22.4871 C.3       6 GLY6        0.0000 
    115 DU        -17.5465   18.7513  -18.0435 H         7 CUB7        0.0000 
    116 DU        -18.1978   19.6832  -19.0219 H         7 CUB7        0.0000 
    117 O         -19.5002   21.5472  -20.9787 O.2       2 ALA2        0.0000 
    118 DU        -18.8956   18.3650  -17.5135 H         7 CUB7        0.0000 
    119 DU        -20.1980   20.2289  -19.4703 H         7 CUB7        0.0000 
    120 OG        -14.0268   24.2023  -22.0928 O.2       1 SER1        0.0000 
    121 N         -14.0733   21.9521  -19.6059 N.2       2 ALA2        0.0000 
    122 NZ        -14.7246   22.8841  -20.5844 N.2       4 LYS4        0.0000 
    123 OG        -15.3758   23.8161  -21.5628 O.2       1 SER1        0.0000 
    124 OG        -16.0270   24.7481  -22.5412 O.2       1 SER1        0.0000 
    125 O         -14.7711   20.6338  -18.0975 O.2       2 ALA2        0.0000 
    126 NZ        -15.4224   21.5658  -19.0760 N.2       4 LYS4        0.0000 
    127 O         -16.0736   22.4978  -20.0544 O.2       2 ALA2        0.0000 
    128 O         -16.7248   23.4298  -21.0328 O.2       2 ALA2        0.0000 
    129 DU        -16.1202   20.2476  -17.5676 H         7 CUB7        0.0000 
    130 O         -16.7714   21.1796  -18.5460 O.2       2 ALA2        0.0000 
    131 O         -17.4226   22.1115  -19.5244 O.2       2 ALA2        0.0000 
    132 DU        -17.4692   19.8613  -17.0376 H         7 CUB7        0.0000 
    133 O         -18.1204   20.7933  -18.0160 O.2       2 ALA2        0.0000 
    134 O         -18.7717   21.7253  -18.9944 O.2       2 ALA2        0.0000 
    135 DU        -19.4695   20.4070  -17.4860 H         7 CUB7        0.0000 
    136 CZ        -17.9174   16.5915  -29.0524 C.ar      5 PHE5        0.0000 
    137 CA        -18.5687   17.5234  -30.0309 C.3       6 GLY6        0.0000 
    138 CZ        -19.2665   16.2052  -28.5224 C.ar      5 PHE5        0.0000 
    139 CZ        -16.4911   18.0878  -28.5765 C.ar      5 PHE5        0.0000 
    140 CA        -17.1423   19.0198  -29.5549 C.3       6 GLY6        0.0000 
    141 CZ        -17.8401   17.7015  -28.0465 C.ar      5 PHE5        0.0000 
    142 NZ        -18.4913   18.6335  -29.0250 N.2       4 LYS4        0.0000 
    143 CZ        -19.1891   17.3152  -27.5166 C.ar      5 PHE5        0.0000 
    144 NZ        -19.8404   18.2472  -28.4950 N.2       4 LYS4        0.0000 
    145 CZ        -20.5382   16.9290  -26.9866 C.ar      5 PHE5        0.0000 
    146 OD1       -21.1894   17.8609  -27.9650 O.3       3 ASP3        0.0000 
    147 CA        -21.2360   15.6107  -25.4782 C.3       6 GLY6        0.0000 
    148 OD1       -21.8872   16.5427  -26.4566 O.3       3 ASP3        0.0000 
    149 OG        -16.4137   19.1978  -27.5706 O.2       1 SER1        0.0000 
    150 NZ        -14.6938   21.7439  -17.0916 N.2       4 LYS4        0.0000 
    151 O         -16.6941   22.2896  -17.5401 O.2       2 ALA2        0.0000 
    152 O         -18.0431   21.9033  -17.0101 O.2       2 ALA2        0.0000 
    153 O         -20.0434   22.4490  -17.4585 O.2       2 ALA2        0.0000 
@<TRIPOS>BOND
@<TRIPOS>SUBSTRUCTURE
     1 SER1       20 GROUP   
     2 ALA2       21 GROUP   
     3 ASP3       14 GROUP   
     4 LYS4        2 GROUP   
     5 PHE5        1 GROUP   
     6 GLY6       13 GROUP   
     7 CUB7       17 GROUP   
@<TRIPOS>SET

