#    Name: 2x90_EAL_1_INTS_M
#    Modification time : Tue Mar 25 05:30:01 2014

@<TRIPOS>MOLECULE
2x90_EAL_1_INTS_M
   71     0    15     0     0
SMALL
NO_CHARGES


@<TRIPOS>ATOM
      1 N         -12.8515   26.6185  -26.0105 N.am      1 SEC2        0.0000 
      2 N         -12.7020   27.2560  -24.7690 N.am     11 SEL2        0.0000 
      3 N         -13.0010   25.9810  -27.2520 N.am      6 SEP2        0.0000 
      4 Zn        -11.6740   23.6090  -21.0320 Zn        4 ZIC7        0.0000 
      5 Zn        -11.9060   23.0110  -22.0440 Zn       14 ZIL7        0.0000 
      6 Zn        -11.4420   24.2070  -20.0200 Zn        9 ZIP7        0.0000 
      7 Zn        -12.2390   24.4170  -20.5855 Zn        4 ZIC7        0.0000 
      8 Zn        -13.0360   24.6270  -21.1510 Zn       14 ZIL7        0.0000 
      9 N         -13.7595   25.6400  -21.4525 N.am      1 SEC2        0.0000 
     10 N         -13.0360   24.6270  -21.1510 N.am     11 SEL2        0.0000 
     11 N         -14.4830   26.6530  -21.7540 N.am      6 SEP2        0.0000 
     12 NZ        -13.1660   31.1710  -26.3170 N.4       3 LYC4        0.0000 
     13 NZ        -12.7210   30.7750  -25.0760 N.4      13 LYL4        0.0000 
     14 NZ        -13.6110   31.5670  -27.5580 N.4       8 LYP4        0.0000 
     15 N         -11.5240   31.8480  -25.5370 N.am      1 SEC2        0.0000 
     16 N         -12.7210   30.7750  -25.0760 N.am     11 SEL2        0.0000 
     17 N         -10.3270   32.9210  -25.9980 N.am      6 SEP2        0.0000 
     18 N         -13.1660   31.1710  -26.3170 N.am      1 SEC2        0.0000 
     19 N         -13.6110   31.5670  -27.5580 N.am      6 SEP2        0.0000 
     20 NZ        -12.2225   30.6560  -26.5710 N.4       3 LYC4        0.0000 
     21 NZ        -10.8340   29.7450  -25.5840 N.4      13 LYL4        0.0000 
     22 N         -10.5805   31.3330  -25.7910 N.am      1 SEC2        0.0000 
     23 N         -10.8340   29.7450  -25.5840 N.am     11 SEL2        0.0000 
     24 OD1       -10.7490   23.5350  -24.0810 O.co2     2 ASC3        0.0000 
     25 OD1       -12.1670   24.6300  -24.2690 O.co2    12 ASL3        0.0000 
     26 OD1        -9.3310   22.4400  -23.8930 O.co2     7 ASP3        0.0000 
     27 CA         -9.7680   24.9500  -22.4775 C.3       5 GLC5        0.0000 
     28 CA        -11.0100   25.5940  -24.0930 C.3      15 GLL5        0.0000 
     29 CA         -8.5260   24.3060  -20.8620 C.3      10 GLP5        0.0000 
     30 CA        -13.6980   26.1410  -22.3055 C.3       5 GLC5        0.0000 
     31 CA        -13.1530   24.4580  -23.5360 C.3      15 GLL5        0.0000 
     32 CA        -14.2430   27.8240  -21.0750 C.3      10 GLP5        0.0000 
     33 CA        -13.2660   30.9220  -23.2180 C.3       5 GLC5        0.0000 
     34 CA        -11.7550   29.4320  -23.3370 C.3      15 GLL5        0.0000 
     35 CA        -14.7770   32.4120  -23.0990 C.3      10 GLP5        0.0000 
     36 CA        -12.3940   28.7260  -21.8835 C.3       5 GLC5        0.0000 
     37 CA        -13.0330   28.0200  -20.4300 C.3      10 GLP5        0.0000 
     38 CA        -11.2245   31.9140  -21.7915 C.3       5 GLC5        0.0000 
     39 CA        -10.8410   30.2150  -22.3610 C.3      15 GLL5        0.0000 
     40 CA        -11.6080   33.6130  -21.2220 C.3      10 GLP5        0.0000 
     41 CA         -9.2430   30.8125  -20.2695 C.3       5 GLC5        0.0000 
     42 CA         -9.8630   29.3820  -21.8780 C.3      15 GLL5        0.0000 
     43 CA         -8.6230   32.2430  -18.6610 C.3      10 GLP5        0.0000 
     44 CA         -9.2265   26.1615  -21.6335 C.3       5 GLC5        0.0000 
     45 CA         -9.9270   28.0170  -22.4050 C.3      15 GLL5        0.0000 
     46 CA        -11.4800   28.0185  -21.4175 C.3       5 GLC5        0.0000 
     47 CA         -9.3680   23.7945  -26.3765 C.3       5 GLC5        0.0000 
     48 CA         -9.9680   25.5290  -25.2240 C.3      15 GLL5        0.0000 
     49 CA         -8.7680   22.0600  -27.5290 C.3      10 GLP5        0.0000 
     50 CA         -7.8790   24.8525  -25.6330 C.3       5 GLC5        0.0000 
     51 CA         -5.7900   24.1760  -26.0420 C.3      10 GLP5        0.0000 
     52 CA        -16.2260   25.7940  -23.7215 C.3       5 GLC5        0.0000 
     53 CA        -15.7260   23.6640  -23.2950 C.3      15 GLL5        0.0000 
     54 CA        -16.7260   27.9240  -24.1480 C.3      10 GLP5        0.0000 
     55 CA        -17.3350   24.7475  -22.8035 C.3       5 GLC5        0.0000 
     56 CA        -18.9440   25.8310  -22.3120 C.3      10 GLP5        0.0000 
     57 CA        -15.0610   20.6155  -25.3305 C.3       5 GLC5        0.0000 
     58 CA        -16.7670   21.9110  -24.8910 C.3      15 GLL5        0.0000 
     59 CA        -13.3550   19.3200  -25.7700 C.3      10 GLP5        0.0000 
     60 CA        -19.2885   22.9545  -23.5635 C.3       5 GLC5        0.0000 
     61 CA        -18.6280   21.1090  -22.7620 C.3      15 GLL5        0.0000 
     62 CA        -19.9490   24.8000  -24.3650 C.3      10 GLP5        0.0000 
     63 CA        -18.2955   23.9995  -22.4095 C.3       5 GLC5        0.0000 
     64 CA        -17.6470   22.1680  -22.5070 C.3      15 GLL5        0.0000 
     65 CA        -11.8625   25.1632  -26.2508 C.3       5 GLC5        0.0000 
     66 CA        -13.2360   24.7650  -27.8430 C.3      10 GLP5        0.0000 
     67 CA        -13.4753   24.3705  -25.7338 C.3       5 GLC5        0.0000 
     68 CA        -11.5800   29.5072  -20.9303 C.3       5 GLC5        0.0000 
     69 CA        -12.8080   29.2160  -19.7410 C.3      10 GLP5        0.0000 
     70 CA        -18.3440   23.5213  -24.2980 C.3       5 GLC5        0.0000 
     71 CA        -16.7110   22.5740  -23.5710 C.3      15 GLL5        0.0000 
@<TRIPOS>BOND
@<TRIPOS>SUBSTRUCTURE
     1 SEC2        1 GROUP        1 X    SEC  0     ROOT SEC X 2
     2 ASC3       24 GROUP        1 X    ASC  0     **** ASC X 3
     3 LYC4       12 GROUP        1 X    LYC  0     **** LYC X 4
     4 ZIC7        4 GROUP        1 X    ZIC  0     **** ZIC X 5
     5 GLC5       27 GROUP        1 X    GLC  0     **** GLC X 6
     6 SEP2        3 GROUP        1 Y    SEP  0     ROOT SEP Y 9
     7 ASP3       26 GROUP        1 Y    ASP  0     **** ASP Y 10
     8 LYP4       14 GROUP        1 Y    LYP  0     **** LYP Y 11
     9 ZIP7        6 GROUP        1 Y    ZIP  0     **** ZIP Y 12
    10 GLP5       29 GROUP        1 Y    GLP  0     **** GLP Y 13
    11 SEL2        2 GROUP        1 Z    SEL  0     ROOT SEL Z 16
    12 ASL3       25 GROUP        1 Z    ASL  0     **** ASL Z 17
    13 LYL4       13 GROUP        1 Z    LYL  0     **** LYL Z 18
    14 ZIL7        5 GROUP        1 Z    ZIL  0     **** ZIL Z 19
    15 GLL5       28 GROUP        1 Z    GLL  0     **** GLL Z 20
@<TRIPOS>SET

