#    Name: 2x90_EAL_1_ligand
#    Modification time : Tue Mar 25 05:30:01 2014

@<TRIPOS>MOLECULE
2x90_EAL_1_ligand
   46    47     1     0     0
SMALL
NO_CHARGES


@<TRIPOS>ATOM
      1 O1        -12.7020   27.2560  -24.7690 O.2       1 EAL1617     0.0000 
      2 O2        -11.9060   23.0110  -22.0440 O.co2     1 EAL1617     0.0000 
      3 O3        -13.0360   24.6270  -21.1510 O.co2     1 EAL1617     0.0000 
      4 O4        -12.7210   30.7750  -25.0760 O.co2     1 EAL1617     0.0000 
      5 O5        -10.8340   29.7450  -25.5840 O.co2     1 EAL1617     0.0000 
      6 N1        -12.1670   24.6300  -24.2690 N.4       1 EAL1617     0.0000 
      7 N2        -11.1130   28.0500  -23.3110 N.am      1 EAL1617     0.0000 
      8 C1        -11.6500   27.0360  -24.0670 C.2       1 EAL1617     0.0000 
      9 C2        -11.0100   25.5940  -24.0930 C.3       1 EAL1617     0.0000 
     10 C3        -12.6860   24.0070  -22.1460 C.2       1 EAL1617     0.0000 
     11 C4        -13.1530   24.4580  -23.5360 C.3       1 EAL1617     0.0000 
     12 C5        -11.7550   29.4320  -23.3370 C.3       1 EAL1617     0.0000 
     13 C6        -10.8410   30.2150  -22.3610 C.3       1 EAL1617     0.0000 
     14 C7         -9.8630   29.3820  -21.8780 C.3       1 EAL1617     0.0000 
     15 C8         -9.9270   28.0170  -22.4050 C.3       1 EAL1617     0.0000 
     16 C9        -11.7170   30.0180  -24.8170 C.2       1 EAL1617     0.0000 
     17 C10        -9.9680   25.5290  -25.2240 C.3       1 EAL1617     0.0000 
     18 C14       -14.2760   23.4940  -23.7130 C.3       1 EAL1617     0.0000 
     19 C15       -15.7260   23.6640  -23.2950 C.3       1 EAL1617     0.0000 
     20 C16       -16.7110   22.5740  -23.5710 C.ar      1 EAL1617     0.0000 
     21 C17       -16.7670   21.9110  -24.8910 C.ar      1 EAL1617     0.0000 
     22 C18       -17.7420   20.8600  -25.1420 C.ar      1 EAL1617     0.0000 
     23 C19       -18.6780   20.4530  -24.0800 C.ar      1 EAL1617     0.0000 
     24 C20       -18.6280   21.1090  -22.7620 C.ar      1 EAL1617     0.0000 
     25 C21       -17.6470   22.1680  -22.5070 C.ar      1 EAL1617     0.0000 
     26 H         -10.5444   25.4432  -23.1486 H         1 EAL1617     0.0000 
     27 H         -13.6937   25.4394  -23.2315 H         1 EAL1617     0.0000 
     28 H         -12.7186   29.3883  -22.9716 H         1 EAL1617     0.0000 
     29 H         -11.4998   30.6191  -21.5767 H         1 EAL1617     0.0000 
     30 H         -10.4463   31.0729  -22.9273 H         1 EAL1617     0.0000 
     31 H          -9.8932   29.3190  -20.7526 H         1 EAL1617     0.0000 
     32 H          -8.8328   29.7867  -22.0930 H         1 EAL1617     0.0000 
     33 H          -9.0477   27.7835  -22.9687 H         1 EAL1617     0.0000 
     34 H         -10.0927   27.3110  -21.6179 H         1 EAL1617     0.0000 
     35 H         -13.9250   22.4650  -23.2696 H         1 EAL1617     0.0000 
     36 H         -14.2949   23.1853  -24.8457 H         1 EAL1617     0.0000 
     37 H         -16.1091   24.6254  -23.7575 H         1 EAL1617     0.0000 
     38 H         -15.7415   23.8952  -22.1854 H         1 EAL1617     0.0000 
     39 H         -16.1258   22.1939  -25.6106 H         1 EAL1617     0.0000 
     40 H         -17.7828   20.4072  -26.0374 H         1 EAL1617     0.0000 
     41 H         -19.3484   19.7303  -24.2539 H         1 EAL1617     0.0000 
     42 H         -19.2659   20.8291  -22.0418 H         1 EAL1617     0.0000 
     43 H         -17.6099   22.6169  -21.6131 H         1 EAL1617     0.0000 
     44 H          -9.2216   26.1786  -25.0791 H         1 EAL1617     0.0000 
     45 H          -9.5560   24.6208  -25.2977 H         1 EAL1617     0.0000 
     46 H         -10.3721   25.7406  -26.1139 H         1 EAL1617     0.0000 
@<TRIPOS>BOND
     1    8    1 2    
     2   10    2 ar   
     3   10    3 ar   
     4   16    4 ar   
     5   16    5 ar   
     6    9    6 1    
     7   11    6 1    
     8    8    7 am   
     9   12    7 1    
    10   15    7 1    
    11    9    8 1    
    12   17    9 1    
    13   26    9 1    
    14   11   10 1    
    15   18   11 1    
    16   27   11 1    
    17   13   12 1    
    18   16   12 1    
    19   28   12 1    
    20   14   13 1    
    21   29   13 1    
    22   30   13 1    
    23   15   14 1    
    24   31   14 1    
    25   32   14 1    
    26   33   15 1    
    27   34   15 1    
    28   44   17 1    
    29   45   17 1    
    30   46   17 1    
    31   19   18 1    
    32   35   18 1    
    33   36   18 1    
    34   20   19 1    
    35   37   19 1    
    36   38   19 1    
    37   21   20 ar   
    38   25   20 ar   
    39   22   21 ar   
    40   39   21 1    
    41   23   22 ar   
    42   40   22 1    
    43   24   23 ar   
    44   41   23 1    
    45   25   24 ar   
    46   42   24 1    
    47   43   25 1    
@<TRIPOS>SUBSTRUCTURE
     1 EAL1617     1 GROUP   
@<TRIPOS>SET

