#    Name: 1bmk_SB5_1_INTS_M
#    Modification time : Mon Mar 24 19:38:45 2014

@<TRIPOS>MOLECULE
1bmk_SB5_1_INTS_M
   57     0     9     0     0
SMALL
NO_CHARGES


@<TRIPOS>ATOM
      1 CA          9.7120   10.4470   31.1010 C.3       3 GLC5        0.0000 
      2 CA          7.9730   10.8540   30.2870 C.3       9 GLL5        0.0000 
      3 CA         11.4510   10.0400   31.9150 C.3       6 GLP5        0.0000 
      4 CA          8.6715    9.4465   29.2790 C.3       3 GLC5        0.0000 
      5 CA          9.3700    8.0390   28.2710 C.3       6 GLP5        0.0000 
      6 CA          7.1770    9.4300   31.0340 C.3       3 GLC5        0.0000 
      7 CA          6.3810    8.0060   31.7810 C.3       6 GLP5        0.0000 
      8 CA          7.6960   13.1930   32.1360 C.3       3 GLC5        0.0000 
      9 CA          6.1150   12.2490   30.9310 C.3       9 GLL5        0.0000 
     10 CA          9.2770   14.1370   33.3410 C.3       6 GLP5        0.0000 
     11 CA          7.7545    9.5695   28.5130 C.3       3 GLC5        0.0000 
     12 CA          6.1390   11.1000   28.7550 C.3       9 GLL5        0.0000 
     13 CA          3.8415   12.5965   26.7155 C.3       3 GLC5        0.0000 
     14 CA          4.8850   11.6620   28.4500 C.3       9 GLL5        0.0000 
     15 CA          2.7980   13.5310   24.9810 C.3       6 GLP5        0.0000 
     16 CA          1.3545    6.8820   29.7710 C.3       3 GLC5        0.0000 
     17 CA          1.3490    8.9140   30.2800 C.3       9 GLL5        0.0000 
     18 CA          1.3600    4.8500   29.2620 C.3       6 GLP5        0.0000 
     19 N          -0.0205    7.1615   29.9455 N.am      2 SEC2        0.0000 
     20 N           0.4240    8.4160   29.4220 N.am      8 SEL2        0.0000 
     21 N          -0.4650    5.9070   30.4690 N.am      5 SEP2        0.0000 
     22 CA          1.5675    8.6225   27.9935 C.3       3 GLC5        0.0000 
     23 CA         -0.0610    9.2200   28.4870 C.3       9 GLL5        0.0000 
     24 CA          3.1960    8.0250   27.5000 C.3       6 GLP5        0.0000 
     25 CA          0.0230    7.5510   27.5205 C.3       3 GLC5        0.0000 
     26 CA          0.1070    5.8820   26.5540 C.3       6 GLP5        0.0000 
     27 O          -2.0030    7.7945   28.6925 O.2       1 ALC1        0.0000 
     28 O          -0.9520    8.7080   27.6830 O.2       7 ALL1        0.0000 
     29 O          -3.0540    6.8810   29.7020 O.2       4 ALP1        0.0000 
     30 N           4.0075   15.2715   28.7720 N.am      2 SEC2        0.0000 
     31 N           2.8720   14.4160   28.5630 N.am      8 SEL2        0.0000 
     32 N           5.1430   16.1270   28.9810 N.am      5 SEP2        0.0000 
     33 CA         -0.2900   15.2485   23.9170 C.3       3 GLC5        0.0000 
     34 CA         -0.5680   14.0230   25.3210 C.3       9 GLL5        0.0000 
     35 CA         -0.0120   16.4740   22.5130 C.3       6 GLP5        0.0000 
     36 CA          5.2395   11.9818   32.5845 C.3       3 GLC5        0.0000 
     37 CA          4.9950   11.4320   34.3920 C.3       6 GLP5        0.0000 
     38 CA          5.7873   10.1762   30.7770 C.3       3 GLC5        0.0000 
     39 CA          5.1390    8.5310   31.0910 C.3       6 GLP5        0.0000 
     40 CA          4.3540    9.7030   28.0512 C.3       3 GLC5        0.0000 
     41 CA          8.4794   11.8200   29.0170 C.3       3 GLC5        0.0000 
     42 CA         10.2070   12.5280   28.5860 C.3       6 GLP5        0.0000 
     43 CA          5.3255    9.9560   29.8468 C.3       3 GLC5        0.0000 
     44 CA          5.6822   12.7500   27.4596 C.3       3 GLC5        0.0000 
     45 CA          6.5030   13.5430   25.9300 C.3       6 GLP5        0.0000 
     46 CA          4.8355   10.6022   30.5452 C.3       3 GLC5        0.0000 
     47 CA          4.2110   12.5330   29.3760 C.3       9 GLL5        0.0000 
     48 CA          3.3560    9.0595   30.6650 C.3       3 GLC5        0.0000 
     49 CA          0.7715    8.5315   31.4935 C.3       3 GLC5        0.0000 
     50 CA          1.7970   10.2620   30.1980 C.3       9 GLL5        0.0000 
     51 CA         -0.0300    7.4750   32.7480 C.3       6 GLP5        0.0000 
     52 CA          2.2938    9.1762   28.5938 C.3       3 GLC5        0.0000 
     53 CA          2.5300   13.1555   26.9835 C.3       3 GLC5        0.0000 
     54 CA          1.5780   12.4660   28.9450 C.3       9 GLL5        0.0000 
     55 CA          0.9845   13.8637   25.5013 C.3       3 GLC5        0.0000 
     56 CA         -1.8910   13.8053   23.7203 C.3       3 GLC5        0.0000 
     57 CA         -2.4700   13.6380   21.9700 C.3       6 GLP5        0.0000 
@<TRIPOS>BOND
@<TRIPOS>SUBSTRUCTURE
     1 ALC1       27 GROUP        1 X    ALC  0     ROOT ALC X 1
     2 SEC2       19 GROUP        1 X    SEC  0     **** SEC X 2
     3 GLC5        1 GROUP        1 X    GLC  0     **** GLC X 6
     4 ALP1       29 GROUP        1 Y    ALP  0     ROOT ALP Y 8
     5 SEP2       21 GROUP        1 Y    SEP  0     **** SEP Y 9
     6 GLP5        3 GROUP        1 Y    GLP  0     **** GLP Y 13
     7 ALL1       28 GROUP        1 Z    ALL  0     ROOT ALL Z 15
     8 SEL2       20 GROUP        1 Z    SEL  0     **** SEL Z 16
     9 GLL5        2 GROUP        1 Z    GLL  0     **** GLL Z 20
@<TRIPOS>SET

