#    Name: 1bmk_SB5_1_ligand
#    Modification time : Mon Mar 24 19:38:46 2014

@<TRIPOS>MOLECULE
1bmk_SB5_1_ligand
   39    42     1     0     0
SMALL
NO_CHARGES


@<TRIPOS>ATOM
      1 FA1         7.9730   10.8540   30.2870 F         1 SB5800      0.0000 
      2 CA1         6.1150   12.2490   30.9310 C.ar      1 SB5800      0.0000 
      3 CA2         6.7560   11.3940   29.9950 C.ar      1 SB5800      0.0000 
      4 CA3         6.1390   11.1000   28.7550 C.ar      1 SB5800      0.0000 
      5 CA4         4.8850   11.6620   28.4500 C.ar      1 SB5800      0.0000 
      6 CA5         4.2110   12.5330   29.3760 C.ar      1 SB5800      0.0000 
      7 CA6         4.8530   12.8140   30.6230 C.ar      1 SB5800      0.0000 
      8 CB1         1.3490    8.9140   30.2800 C.ar      1 SB5800      0.0000 
      9 NB2         0.4240    8.4160   29.4220 N.ar      1 SB5800      0.0000 
     10 CB3        -0.0610    9.2200   28.4870 C.ar      1 SB5800      0.0000 
     11 NB4         0.2760   10.4940   28.3020 N.ar      1 SB5800      0.0000 
     12 CB5         1.2100   11.0670   29.1360 C.ar      1 SB5800      0.0000 
     13 CB6         1.7970   10.2620   30.1980 C.ar      1 SB5800      0.0000 
     14 NB7        -0.9520    8.7080   27.6830 N.pl3     1 SB5800      0.0000 
     15 NC1         0.6660   13.4540   28.3860 N.pl3     1 SB5800      0.0000 
     16 CC2         1.5780   12.4660   28.9450 C.2       1 SB5800      0.0000 
     17 CC3         2.9460   13.0940   29.0270 C.2       1 SB5800      0.0000 
     18 NC4         2.8720   14.4160   28.5630 N.2       1 SB5800      0.0000 
     19 CC5         1.5560   14.5090   28.2300 C.2       1 SB5800      0.0000 
     20 CD1        -0.7750   13.3790   27.8760 C.3       1 SB5800      0.0000 
     21 CE1        -1.0900   14.3700   26.7220 C.3       1 SB5800      0.0000 
     22 CE2        -2.0560   13.9220   25.6200 C.3       1 SB5800      0.0000 
     23 CE3        -0.5680   14.0230   25.3210 C.3       1 SB5800      0.0000 
     24 H           6.5636   12.4544   31.8219 H         1 SB5800      0.0000 
     25 H           6.6034   10.4842   28.0892 H         1 SB5800      0.0000 
     26 H           4.4312   11.4546   27.5526 H         1 SB5800      0.0000 
     27 H           4.3909   13.4303   31.2955 H         1 SB5800      0.0000 
     28 H           1.7592    8.3171   31.0281 H         1 SB5800      0.0000 
     29 H           2.4627   10.6425   30.8141 H         1 SB5800      0.0000 
     30 H          -1.1599    7.7390   27.8164 H         1 SB5800      0.0000 
     31 H          -1.3451    9.3317   27.0073 H         1 SB5800      0.0000 
     32 H           1.1856   15.4124   27.8371 H         1 SB5800      0.0000 
     33 H          -1.4652   13.5845   28.7071 H         1 SB5800      0.0000 
     34 H          -0.9821   12.3585   27.5224 H         1 SB5800      0.0000 
     35 H          -1.1408   15.3169   26.7724 H         1 SB5800      0.0000 
     36 H          -2.4735   14.6984   25.2772 H         1 SB5800      0.0000 
     37 H          -2.2590   13.0113   25.7750 H         1 SB5800      0.0000 
     38 H          -0.2044   13.1515   25.3645 H         1 SB5800      0.0000 
     39 H          -0.4189   14.8385   24.8667 H         1 SB5800      0.0000 
@<TRIPOS>BOND
     1    3    1 1    
     2    3    2 ar   
     3    7    2 ar   
     4   24    2 1    
     5    4    3 ar   
     6    5    4 ar   
     7   25    4 1    
     8    6    5 ar   
     9   26    5 1    
    10    7    6 ar   
    11   17    6 1    
    12   27    7 1    
    13    9    8 ar   
    14   13    8 ar   
    15   28    8 1    
    16   10    9 ar   
    17   11   10 ar   
    18   14   10 1    
    19   12   11 ar   
    20   13   12 ar   
    21   16   12 1    
    22   29   13 1    
    23   30   14 1    
    24   31   14 1    
    25   16   15 1    
    26   19   15 1    
    27   20   15 1    
    28   17   16 2    
    29   18   17 1    
    30   19   18 2    
    31   32   19 1    
    32   21   20 1    
    33   33   20 1    
    34   34   20 1    
    35   22   21 1    
    36   23   21 1    
    37   35   21 1    
    38   23   22 1    
    39   36   22 1    
    40   37   22 1    
    41   38   23 1    
    42   39   23 1    
@<TRIPOS>SUBSTRUCTURE
     1 SB5800      1 GROUP   
@<TRIPOS>SET

