#    Name: 3SUC_1_CAVITY_N1_ALL.mol2
#    Modification time : Tue Mar 11 01:13:37 2014

@<TRIPOS>MOLECULE
3SUC_1_CAVITY_N1_ALL.mol2
   70     0     6     0     0
SMALL
NO_CHARGES


@<TRIPOS>ATOM
      1 DU         41.9494  -53.4814  -13.6313 H         6 CUB7        0.0000 
      2 O          41.3975  -52.1503  -14.0481 O.2       1 ALA2        0.0000 
      3 O          40.0031  -52.6869  -13.9153 O.2       1 ALA2        0.0000 
      4 O          39.4512  -51.3558  -14.3321 O.2       1 ALA2        0.0000 
      5 DU         43.8644  -53.8396  -11.9125 H         6 CUB7        0.0000 
      6 OD1        43.3126  -52.5085  -12.3292 O.3       2 ASP3        0.0000 
      7 O          42.7607  -51.1774  -12.7460 O.2       1 ALA2        0.0000 
      8 DU         41.9181  -53.0451  -12.1965 H         6 CUB7        0.0000 
      9 CA         41.3662  -51.7140  -12.6133 C.3       5 GLY6        0.0000 
     10 CA         40.8144  -50.3830  -13.0300 C.3       5 GLY6        0.0000 
     11 DU         40.5237  -53.5817  -12.0637 H         6 CUB7        0.0000 
     12 CA         39.9718  -52.2506  -12.4805 C.3       5 GLY6        0.0000 
     13 CA         39.1292  -54.1183  -11.9310 C.3       5 GLY6        0.0000 
     14 O          38.5774  -52.7872  -12.3478 O.2       1 ALA2        0.0000 
     15 CZ         37.1829  -53.3238  -12.2150 C.ar      4 PHE5        0.0000 
     16 CA         44.3850  -54.7343  -10.0609 C.3       5 GLY6        0.0000 
     17 O          43.8331  -53.4033  -10.4777 O.2       1 ALA2        0.0000 
     18 N          43.2813  -52.0722  -10.8944 N.2       1 ALA2        0.0000 
     19 CZ         42.7294  -50.7412  -11.3112 C.ar      4 PHE5        0.0000 
     20 N          42.4387  -53.9399  -10.3449 N.2       1 ALA2        0.0000 
     21 CZ         41.8868  -52.6088  -10.7617 C.ar      4 PHE5        0.0000 
     22 CZ         41.3350  -51.2777  -11.1785 C.ar      4 PHE5        0.0000 
     23 CA         41.0443  -54.4765  -10.2122 C.3       5 GLY6        0.0000 
     24 DU         40.4924  -53.1454  -10.6289 H         6 CUB7        0.0000 
     25 CA         39.9405  -51.8143  -11.0457 C.3       5 GLY6        0.0000 
     26 CA         39.0980  -53.6820  -10.4962 C.3       5 GLY6        0.0000 
     27 CA         38.5461  -52.3509  -10.9130 C.3       5 GLY6        0.0000 
     28 CZ         37.1516  -52.8875  -10.7802 C.ar      4 PHE5        0.0000 
     29 N          38.9102  -51.0642   -1.8873 N.2       1 ALA2        0.0000 
     30 NZ         37.2546  -47.0710   -3.1377 N.2       3 LYS4        0.0000 
     31 CZ         35.7572  -53.4241  -10.6474 C.ar      4 PHE5        0.0000 
     32 N          42.4074  -53.5036   -8.9101 N.2       1 ALA2        0.0000 
     33 CZ         41.8555  -52.1725   -9.3269 C.ar      4 PHE5        0.0000 
     34 N          41.0130  -54.0402   -8.7773 N.2       1 ALA2        0.0000 
     35 CZ         40.4611  -52.7091   -9.1941 C.ar      4 PHE5        0.0000 
     36 CA         39.9092  -51.3780   -9.6109 C.3       5 GLY6        0.0000 
     37 CA         39.0667  -53.2457   -9.0614 C.3       5 GLY6        0.0000 
     38 CA         38.5148  -51.9146   -9.4781 C.3       5 GLY6        0.0000 
     39 CA         37.6722  -53.7823   -8.9286 C.3       5 GLY6        0.0000 
     40 CZ         37.1204  -52.4512   -9.3454 C.ar      4 PHE5        0.0000 
     41 O          35.7259  -52.9878   -9.2126 O.2       1 ALA2        0.0000 
     42 CA         40.4298  -52.2728   -7.7593 C.3       5 GLY6        0.0000 
     43 CZ         39.8779  -50.9417   -8.1761 C.ar      4 PHE5        0.0000 
     44 CA         39.0354  -52.8094   -7.6266 C.3       5 GLY6        0.0000 
     45 CA         38.4835  -51.4783   -8.0433 C.3       5 GLY6        0.0000 
     46 N          37.0891  -52.0149   -7.9106 N.2       1 ALA2        0.0000 
     47 CZ         38.4522  -51.0420   -6.6085 C.ar      4 PHE5        0.0000 
     48 CA         37.9003  -49.7110   -7.0253 C.3       5 GLY6        0.0000 
     49 CA         40.3672  -51.4002   -4.8897 C.3       5 GLY6        0.0000 
     50 CA         39.8154  -50.0692   -5.3065 C.3       5 GLY6        0.0000 
     51 O          39.2635  -48.7381   -5.7233 O.2       1 ALA2        0.0000 
     52 CZ         38.4209  -50.6058   -5.1737 C.ar      4 PHE5        0.0000 
     53 CA         41.7304  -50.4274   -3.5876 C.3       5 GLY6        0.0000 
     54 CA         41.1785  -49.0963   -4.0044 C.3       5 GLY6        0.0000 
     55 CA         40.6266  -47.7652   -4.4212 C.3       5 GLY6        0.0000 
     56 N          40.8878  -52.2950   -3.0381 N.2       1 ALA2        0.0000 
     57 N          40.3360  -50.9639   -3.4549 N.2       1 ALA2        0.0000 
     58 CA         39.7841  -49.6329   -3.8717 C.3       5 GLY6        0.0000 
     59 DU         39.2322  -48.3018   -4.2884 H         6 CUB7        0.0000 
     60 CA         38.6803  -46.9708   -4.7052 C.3       5 GLY6        0.0000 
     61 N          38.9415  -51.5005   -3.3221 N.2       1 ALA2        0.0000 
     62 CZ         38.3897  -50.1695   -3.7389 C.ar      4 PHE5        0.0000 
     63 CZ         37.8378  -48.8384   -4.1557 C.ar      4 PHE5        0.0000 
     64 CZ         37.2859  -47.5073   -4.5725 C.ar      4 PHE5        0.0000 
     65 DU         41.1472  -48.6600   -2.5696 H         6 CUB7        0.0000 
     66 N          40.8566  -51.8587   -1.6033 N.2       1 ALA2        0.0000 
     67 DU         40.3047  -50.5277   -2.0201 H         6 CUB7        0.0000 
     68 DU         39.7528  -49.1966   -2.4369 H         6 CUB7        0.0000 
     69 DU         39.2009  -47.8655   -2.8536 H         6 CUB7        0.0000 
     70 CA         38.6491  -46.5345   -3.2704 C.3       5 GLY6        0.0000 
@<TRIPOS>BOND
@<TRIPOS>SUBSTRUCTURE
     1 ALA2        2 GROUP   
     2 ASP3        6 GROUP   
     3 LYS4       30 GROUP   
     4 PHE5       15 GROUP   
     5 GLY6        9 GROUP   
     6 CUB7        1 GROUP   
@<TRIPOS>SET

