#    Name: 3suc_ATP_1_INTS_M
#    Modification time : Mon Mar 24 18:36:39 2014

@<TRIPOS>MOLECULE
3suc_ATP_1_INTS_M
   72     0    15     0     0
SMALL
NO_CHARGES


@<TRIPOS>ATOM
      1 NZ         42.5790  -46.7335  -15.3435 N.4       3 LYC4        0.0000 
      2 NZ         42.1600  -47.9810  -14.7030 N.4      13 LYL4        0.0000 
      3 NZ         42.1150  -44.6380  -16.5080 N.4       8 LYP4        0.0000 
      4 NZ         43.2530  -48.6680  -14.1835 N.4       3 LYC4        0.0000 
      5 NZ         45.1690  -50.3760  -13.8600 N.4       8 LYP4        0.0000 
      6 N          42.5790  -46.7335  -15.3435 N.am      2 SEC2        0.0000 
      7 N          42.1600  -47.9810  -14.7030 N.am     12 SEL2        0.0000 
      8 N          42.9980  -45.4860  -15.9840 N.am      7 SEP2        0.0000 
      9 N          43.2530  -48.6680  -14.1835 N.am      2 SEC2        0.0000 
     10 N          44.3460  -49.3550  -13.6640 N.am      7 SEP2        0.0000 
     11 NZ         40.9045  -46.6490  -16.9325 N.4       3 LYC4        0.0000 
     12 NZ         40.8290  -48.1980  -16.8490 N.4      13 LYL4        0.0000 
     13 N          40.9045  -46.6490  -16.9325 N.am      2 SEC2        0.0000 
     14 N          40.8290  -48.1980  -16.8490 N.am     12 SEL2        0.0000 
     15 N          40.9800  -45.1000  -17.0160 N.am      7 SEP2        0.0000 
     16 NZ         43.5815  -49.5365  -15.0480 N.4       3 LYC4        0.0000 
     17 NZ         42.8170  -49.7180  -16.4320 N.4      13 LYL4        0.0000 
     18 Zn         42.5270  -50.8590  -17.1400 Zn        4 ZIC7        0.0000 
     19 Zn         42.8170  -49.7180  -16.4320 Zn       14 ZIL7        0.0000 
     20 Zn         42.2370  -52.0000  -17.8480 Zn        9 ZIP7        0.0000 
     21 N          43.9120  -50.4335  -15.6810 N.am      2 SEC2        0.0000 
     22 N          42.8170  -49.7180  -16.4320 N.am     12 SEL2        0.0000 
     23 N          45.0070  -51.1490  -14.9300 N.am      7 SEP2        0.0000 
     24 N          43.5815  -49.5365  -15.0480 N.am      2 SEC2        0.0000 
     25 N          43.8890  -49.2755  -17.1865 N.am      2 SEC2        0.0000 
     26 N          44.9610  -48.8330  -17.9410 N.am      7 SEP2        0.0000 
     27 Zn         41.1875  -51.5595  -17.5575 Zn        4 ZIC7        0.0000 
     28 Zn         40.1380  -51.1190  -17.2670 Zn       14 ZIL7        0.0000 
     29 N          38.0345  -50.1465  -14.2405 N.am      2 SEC2        0.0000 
     30 N          38.3090  -50.2470  -15.6160 N.am     12 SEL2        0.0000 
     31 N          37.7600  -50.0460  -12.8650 N.am      7 SEP2        0.0000 
     32 N          37.5255  -48.9970  -15.7360 N.am      2 SEC2        0.0000 
     33 N          36.7420  -47.7470  -15.8560 N.am      7 SEP2        0.0000 
     34 Zn         42.0920  -52.5050  -16.9315 Zn        4 ZIC7        0.0000 
     35 Zn         41.9470  -53.0100  -16.0150 Zn       14 ZIL7        0.0000 
     36 CA         42.3890  -51.0980  -10.0190 C.3       5 GLC5        0.0000 
     37 CA         42.6270  -52.5860  -11.3410 C.3      15 GLL5        0.0000 
     38 CA         42.1510  -49.6100   -8.6970 C.3      10 GLP5        0.0000 
     39 N          44.3070  -52.6375   -8.7380 N.am      2 SEC2        0.0000 
     40 N          43.7910  -53.7160   -9.5550 N.am     12 SEL2        0.0000 
     41 N          44.8230  -51.5590   -7.9210 N.am      7 SEP2        0.0000 
     42 O          43.5980  -54.0230   -8.0330 O.2       1 ALC1        0.0000 
     43 O          43.7910  -53.7160   -9.5550 O.2      11 ALL1        0.0000 
     44 O          43.4050  -54.3300   -6.5110 O.2       6 ALP1        0.0000 
     45 CA         39.6875  -55.3265   -9.9140 C.3       5 GLC5        0.0000 
     46 CA         41.3740  -53.9950   -9.8120 C.3      15 GLL5        0.0000 
     47 CA         38.0010  -56.6580  -10.0160 C.3      10 GLP5        0.0000 
     48 CA         42.1440  -52.7895   -8.1290 C.3       5 GLC5        0.0000 
     49 CA         42.9140  -51.5840   -6.4460 C.3      10 GLP5        0.0000 
     50 CA         39.6270  -51.1435  -11.0065 C.3       5 GLC5        0.0000 
     51 CA         40.6110  -52.7090  -10.0940 C.3      15 GLL5        0.0000 
     52 CA         38.6430  -49.5780  -11.9190 C.3      10 GLP5        0.0000 
     53 CA         41.3810  -51.1595   -9.3955 C.3       5 GLC5        0.0000 
     54 CA         36.3380  -54.9050   -9.5290 C.3       5 GLC5        0.0000 
     55 CA         35.6360  -53.3400  -10.2140 C.3      15 GLL5        0.0000 
     56 CA         37.0400  -56.4700   -8.8440 C.3      10 GLP5        0.0000 
     57 O          33.0155  -53.6655  -10.3885 O.2       1 ALC1        0.0000 
     58 O          34.5750  -53.7170  -10.9680 O.2      11 ALL1        0.0000 
     59 O          31.4560  -53.6140   -9.8090 O.2       6 ALP1        0.0000 
     60 N          34.3920  -53.1040   -7.9010 N.am      2 SEC2        0.0000 
     61 N          35.4740  -52.9320   -8.9320 N.am     12 SEL2        0.0000 
     62 N          33.3100  -53.2760   -6.8700 N.am      7 SEP2        0.0000 
     63 CA         37.5595  -50.6960   -8.8080 C.3       5 GLC5        0.0000 
     64 CA         36.5220  -52.5520   -8.1700 C.3      15 GLL5        0.0000 
     65 CA         38.5970  -48.8400   -9.4460 C.3      10 GLP5        0.0000 
     66 CA         35.0460  -53.4375   -7.0300 C.3       5 GLC5        0.0000 
     67 CA         33.5700  -54.3230   -5.8900 C.3      10 GLP5        0.0000 
     68 CA         37.4715  -54.1580   -7.5060 C.3       5 GLC5        0.0000 
     69 CA         38.4210  -55.7640   -6.8420 C.3      10 GLP5        0.0000 
     70 CA         38.3540  -50.8850   -9.6580 C.3       5 GLC5        0.0000 
     71 CA         38.1110  -52.9300   -9.8700 C.3      15 GLL5        0.0000 
     72 CA         37.7825  -54.9008  -10.1668 C.3       5 GLC5        0.0000 
@<TRIPOS>BOND
@<TRIPOS>SUBSTRUCTURE
     1 ALC1       42 GROUP        1 X    ALC  0     ROOT ALC X 1
     2 SEC2        6 GROUP        1 X    SEC  0     **** SEC X 2
     3 LYC4        1 GROUP        1 X    LYC  0     **** LYC X 4
     4 ZIC7       18 GROUP        1 X    ZIC  0     **** ZIC X 5
     5 GLC5       36 GROUP        1 X    GLC  0     **** GLC X 6
     6 ALP1       44 GROUP        1 Y    ALP  0     ROOT ALP Y 8
     7 SEP2        8 GROUP        1 Y    SEP  0     **** SEP Y 9
     8 LYP4        3 GROUP        1 Y    LYP  0     **** LYP Y 11
     9 ZIP7       20 GROUP        1 Y    ZIP  0     **** ZIP Y 12
    10 GLP5       38 GROUP        1 Y    GLP  0     **** GLP Y 13
    11 ALL1       43 GROUP        1 Z    ALL  0     ROOT ALL Z 15
    12 SEL2        7 GROUP        1 Z    SEL  0     **** SEL Z 16
    13 LYL4        2 GROUP        1 Z    LYL  0     **** LYL Z 18
    14 ZIL7       19 GROUP        1 Z    ZIL  0     **** ZIL Z 19
    15 GLL5       37 GROUP        1 Z    GLL  0     **** GLL Z 20
@<TRIPOS>SET

