#    Name: 3suc_ATP_1_ligand
#    Modification time : Mon Mar 24 18:36:39 2014

@<TRIPOS>MOLECULE
3suc_ATP_1_ligand
   43    45     1     0     0
SMALL
NO_CHARGES


@<TRIPOS>ATOM
      1 PG         41.7130  -48.8810  -15.8310 P.3       1 ATP856      0.0000 
      2 O1G        42.1600  -47.9810  -14.7030 O.co2     1 ATP856      0.0000 
      3 O2G        40.8290  -48.1980  -16.8490 O.co2     1 ATP856      0.0000 
      4 O3G        42.8170  -49.7180  -16.4320 O.co2     1 ATP856      0.0000 
      5 PB         39.6670  -50.8700  -15.8510 P.3       1 ATP856      0.0000 
      6 O1B        40.1380  -51.1190  -17.2670 O.co2     1 ATP856      0.0000 
      7 O2B        38.3090  -50.2470  -15.6160 O.co2     1 ATP856      0.0000 
      8 O3B        40.7660  -49.9610  -15.0870 O.3       1 ATP856      0.0000 
      9 PA         41.0440  -53.1370  -14.8100 P.3       1 ATP856      0.0000 
     10 O1A        41.9470  -53.0100  -16.0150 O.co2     1 ATP856      0.0000 
     11 O2A        40.6370  -54.5130  -14.3330 O.co2     1 ATP856      0.0000 
     12 O3A        39.6980  -52.2770  -15.0540 O.3       1 ATP856      0.0000 
     13 O5'        41.7300  -52.3480  -13.5820 O.3       1 ATP856      0.0000 
     14 C5'        42.7960  -52.9170  -12.8240 C.3       1 ATP856      0.0000 
     15 C4'        42.6270  -52.5860  -11.3410 C.3       1 ATP856      0.0000 
     16 O4'        41.3500  -51.9870  -11.0850 O.3       1 ATP856      0.0000 
     17 C3'        42.7220  -53.8490  -10.4990 C.3       1 ATP856      0.0000 
     18 O3'        43.7910  -53.7160   -9.5550 O.3       1 ATP856      0.0000 
     19 C2'        41.3740  -53.9950   -9.8120 C.3       1 ATP856      0.0000 
     20 O2'        41.5140  -54.1850   -8.4010 O.3       1 ATP856      0.0000 
     21 C1'        40.6110  -52.7090  -10.0940 C.3       1 ATP856      0.0000 
     22 N9         39.2410  -53.0310  -10.5810 N.pl3     1 ATP856      0.0000 
     23 C8         38.9240  -53.4800  -11.8120 C.2       1 ATP856      0.0000 
     24 N7         37.5870  -53.6810  -11.9390 N.2       1 ATP856      0.0000 
     25 C5         37.0170  -53.3570  -10.7650 C.ar      1 ATP856      0.0000 
     26 C6         35.6360  -53.3400  -10.2140 C.ar      1 ATP856      0.0000 
     27 N6         34.5750  -53.7170  -10.9680 N.pl3     1 ATP856      0.0000 
     28 N1         35.4740  -52.9320   -8.9320 N.ar      1 ATP856      0.0000 
     29 C2         36.5220  -52.5520   -8.1700 C.ar      1 ATP856      0.0000 
     30 N3         37.7990  -52.5450   -8.6040 N.ar      1 ATP856      0.0000 
     31 C4         38.1110  -52.9300   -9.8700 C.ar      1 ATP856      0.0000 
     32 H          43.7737  -52.5305  -13.1422 H         1 ATP856      0.0000 
     33 H          42.8255  -54.0108  -12.9198 H         1 ATP856      0.0000 
     34 H          43.4281  -51.9268  -11.0421 H         1 ATP856      0.0000 
     35 H          42.8590  -54.6770  -11.1609 H         1 ATP856      0.0000 
     36 H          40.8425  -54.8013  -10.2818 H         1 ATP856      0.0000 
     37 H          40.5514  -52.1536   -9.1765 H         1 ATP856      0.0000 
     38 H          39.5752  -53.6432  -12.5314 H         1 ATP856      0.0000 
     39 H          33.6844  -53.7014  -10.5134 H         1 ATP856      0.0000 
     40 H          34.7766  -53.9775  -11.9122 H         1 ATP856      0.0000 
     41 H          36.3283  -52.2397   -7.1680 H         1 ATP856      0.0000 
     42 H          43.3888  -53.9604   -8.6727 H         1 ATP856      0.0000 
     43 H          41.2989  -53.2956   -7.9976 H         1 ATP856      0.0000 
@<TRIPOS>BOND
     1    2    1 ar   
     2    3    1 ar   
     3    4    1 ar   
     4    8    1 1    
     5    6    5 ar   
     6    7    5 ar   
     7    8    5 1    
     8   12    5 1    
     9   10    9 ar   
    10   11    9 ar   
    11   12    9 1    
    12   13    9 1    
    13   14   13 1    
    14   15   14 1    
    15   32   14 1    
    16   33   14 1    
    17   16   15 1    
    18   17   15 1    
    19   34   15 1    
    20   21   16 1    
    21   18   17 1    
    22   19   17 1    
    23   35   17 1    
    24   42   18 1    
    25   20   19 1    
    26   21   19 1    
    27   36   19 1    
    28   43   20 1    
    29   22   21 1    
    30   37   21 1    
    31   23   22 1    
    32   31   22 1    
    33   24   23 2    
    34   38   23 1    
    35   25   24 1    
    36   26   25 ar   
    37   31   25 ar   
    38   27   26 1    
    39   28   26 ar   
    40   39   27 1    
    41   40   27 1    
    42   29   28 ar   
    43   30   29 ar   
    44   41   29 1    
    45   31   30 ar   
@<TRIPOS>SUBSTRUCTURE
     1 ATP856      1 GROUP   
@<TRIPOS>SET

