#    Name: 4fw8_NAI_2_INTS_M
#    Modification time : Mon Mar 24 20:53:15 2014

@<TRIPOS>MOLECULE
4fw8_NAI_2_INTS_M
   84     0     9     0     0
SMALL
NO_CHARGES


@<TRIPOS>ATOM
      1 N          28.5595   28.9850   -2.1830 N.am      2 SEC2        0.0000 
      2 N          28.1610   29.3870   -0.8760 N.am      8 SEL2        0.0000 
      3 N          28.9580   28.5830   -3.4900 N.am      5 SEP2        0.0000 
      4 N          30.3545   33.5220   -3.6175 N.am      2 SEC2        0.0000 
      5 N          29.1290   33.5520   -2.4270 N.am      8 SEL2        0.0000 
      6 N          31.5800   33.4920   -4.8080 N.am      5 SEP2        0.0000 
      7 O          28.8275   34.7610   -2.6280 O.2       1 ALC1        0.0000 
      8 O          29.1290   33.5520   -2.4270 O.2       7 ALL1        0.0000 
      9 O          28.5260   35.9700   -2.8290 O.2       4 ALP1        0.0000 
     10 CA         27.0390   36.0515   -0.5935 C.3       3 GLC5        0.0000 
     11 CA         27.4220   33.8440   -0.6570 C.3       9 GLL5        0.0000 
     12 CA         26.6560   38.2590   -0.5300 C.3       6 GLP5        0.0000 
     13 O          28.1130   35.6080   -1.8235 O.2       1 ALC1        0.0000 
     14 O          27.7000   35.2460   -0.8180 O.2       7 ALL1        0.0000 
     15 CA         26.6385   32.9280   -3.4780 C.3       3 GLC5        0.0000 
     16 CA         26.3200   33.3730   -1.5950 C.3       9 GLL5        0.0000 
     17 CA         26.9570   32.4830   -5.3610 C.3       6 GLP5        0.0000 
     18 CA         22.0765   38.1840   -2.9275 C.3       3 GLC5        0.0000 
     19 CA         22.4970   36.1990   -2.1220 C.3       9 GLL5        0.0000 
     20 CA         21.6560   40.1690   -3.7330 C.3       6 GLP5        0.0000 
     21 CA         21.2900   35.8475   -3.4455 C.3       3 GLC5        0.0000 
     22 CA         20.0830   35.4960   -4.7690 C.3       6 GLP5        0.0000 
     23 O          20.6765   37.6025   -1.7405 O.2       1 ALC1        0.0000 
     24 O          21.3480   36.5130   -1.5170 O.2       7 ALL1        0.0000 
     25 O          20.0050   38.6920   -1.9640 O.2       4 ALP1        0.0000 
     26 N          21.6940   37.5855   -4.1080 N.am      2 SEC2        0.0000 
     27 N          22.8500   36.7830   -3.2870 N.am      8 SEL2        0.0000 
     28 N          20.5380   38.3880   -4.9290 N.am      5 SEP2        0.0000 
     29 CA         25.8035   37.0880   -4.5875 C.3       3 GLC5        0.0000 
     30 CA         24.0620   36.4270   -3.8930 C.3       9 GLL5        0.0000 
     31 CA         27.5450   37.7490   -5.2820 C.3       6 GLP5        0.0000 
     32 CA         24.2260   37.7615   -2.5355 C.3       3 GLC5        0.0000 
     33 CA         24.3900   39.0960   -1.1780 C.3       6 GLP5        0.0000 
     34 CA         22.8590   38.2980   -3.8130 C.3       3 GLC5        0.0000 
     35 CA         22.0725   35.9615   -4.3310 C.3       3 GLC5        0.0000 
     36 CA         23.6445   34.3705   -4.2935 C.3       3 GLC5        0.0000 
     37 CA         23.2270   32.3140   -4.6940 C.3       6 GLP5        0.0000 
     38 N          30.7440   26.1995   -2.6010 N.am      2 SEC2        0.0000 
     39 N          29.6930   26.4680   -1.2710 N.am      8 SEL2        0.0000 
     40 N          31.7950   25.9310   -3.9310 N.am      5 SEP2        0.0000 
     41 CA         28.1855   25.4540   -3.7395 C.3       3 GLC5        0.0000 
     42 CA         26.5060   26.3430   -2.7040 C.3       9 GLL5        0.0000 
     43 CA         29.8650   24.5650   -4.7750 C.3       6 GLP5        0.0000 
     44 CA         24.9810   24.3635   -4.9285 C.3       3 GLC5        0.0000 
     45 CA         25.2290   25.5890   -3.1240 C.3       9 GLL5        0.0000 
     46 CA         24.7330   23.1380   -6.7330 C.3       6 GLP5        0.0000 
     47 CA         23.1015   27.5910   -1.8230 C.3       3 GLC5        0.0000 
     48 CA         24.0920   25.9860   -2.1950 C.3       9 GLL5        0.0000 
     49 CA         22.1110   29.1960   -1.4510 C.3       6 GLP5        0.0000 
     50 N          21.6495   25.4325   -3.1595 N.am      2 SEC2        0.0000 
     51 N          22.9410   26.2980   -2.9650 N.am      8 SEL2        0.0000 
     52 N          20.3580   24.5670   -3.3540 N.am      5 SEP2        0.0000 
     53 O          23.3645   27.2205   -3.9085 O.2       1 ALC1        0.0000 
     54 O          22.9410   26.2980   -2.9650 O.2       7 ALL1        0.0000 
     55 O          23.7880   28.1430   -4.8520 O.2       4 ALP1        0.0000 
     56 CA         21.6630   24.4155   -1.8290 C.3       3 GLC5        0.0000 
     57 CA         23.8250   24.7450   -1.3930 C.3       9 GLL5        0.0000 
     58 CA         19.5010   24.0860   -2.2650 C.3       6 GLP5        0.0000 
     59 N          21.9700   23.7170   -0.3470 N.am      2 SEC2        0.0000 
     60 N          22.4340   24.6620   -1.1180 N.am      8 SEL2        0.0000 
     61 N          21.5060   22.7720    0.4240 N.am      5 SEP2        0.0000 
     62 N          21.3960   24.6145   -2.2360 N.am      2 SEC2        0.0000 
     63 CA         24.4845   23.3745   -4.5220 C.3       3 GLC5        0.0000 
     64 CA         24.2360   23.6110   -2.3110 C.3       9 GLL5        0.0000 
     65 CA         27.3465   22.3080   -2.5245 C.3       3 GLC5        0.0000 
     66 CA         25.8080   22.2490   -1.0350 C.3       9 GLL5        0.0000 
     67 CA         28.8850   22.3670   -4.0140 C.3       6 GLP5        0.0000 
     68 CA         24.7285   20.4155   -3.5085 C.3       3 GLC5        0.0000 
     69 CA         24.0600   21.2770   -2.0290 C.3       9 GLL5        0.0000 
     70 CA         25.3970   19.5540   -4.9880 C.3       6 GLP5        0.0000 
     71 CA         27.5832   32.4142   -3.3787 C.3       3 GLC5        0.0000 
     72 CA         28.5570   33.0020   -1.2200 C.3       9 GLL5        0.0000 
     73 CA         30.1709   31.6380   -0.6960 C.3       3 GLC5        0.0000 
     74 CA         32.0000   31.1700   -0.2570 C.3       6 GLP5        0.0000 
     75 CA         23.5425   33.7047   -3.2440 C.3       3 GLC5        0.0000 
     76 CA         23.2750   35.2740   -1.5170 C.3       9 GLL5        0.0000 
     77 CA         21.2310   34.3882   -1.4503 C.3       3 GLC5        0.0000 
     78 CA         19.5760   33.0400   -1.0810 C.3       6 GLP5        0.0000 
     79 CA         24.0267   37.2114   -1.5616 C.3       3 GLC5        0.0000 
     80 CA         22.2467   20.1440   -1.7263 C.3       3 GLC5        0.0000 
     81 CA         24.3330   20.0610   -1.3900 C.3       9 GLL5        0.0000 
     82 CA         20.2970   19.6190   -1.7430 C.3       6 GLP5        0.0000 
     83 CA         25.3877   19.4226   -2.4391 C.3       3 GLC5        0.0000 
     84 CA         25.7840   18.5430   -4.0260 C.3       6 GLP5        0.0000 
@<TRIPOS>BOND
@<TRIPOS>SUBSTRUCTURE
     1 ALC1        7 GROUP        1 X    ALC  0     ROOT ALC X 1
     2 SEC2        1 GROUP        1 X    SEC  0     **** SEC X 2
     3 GLC5       10 GROUP        1 X    GLC  0     **** GLC X 6
     4 ALP1        9 GROUP        1 Y    ALP  0     ROOT ALP Y 8
     5 SEP2        3 GROUP        1 Y    SEP  0     **** SEP Y 9
     6 GLP5       12 GROUP        1 Y    GLP  0     **** GLP Y 13
     7 ALL1        8 GROUP        1 Z    ALL  0     ROOT ALL Z 15
     8 SEL2        2 GROUP        1 Z    SEL  0     **** SEL Z 16
     9 GLL5       11 GROUP        1 Z    GLL  0     **** GLL Z 20
@<TRIPOS>SET

