#    Name: 4fw8_NAI_2_ligand
#    Modification time : Mon Mar 24 20:53:15 2014

@<TRIPOS>MOLECULE
4fw8_NAI_2_ligand
   71    75     1     0     0
SMALL
NO_CHARGES


@<TRIPOS>ATOM
      1 PA         28.0060   28.5030    0.4120 P.3       1 NAI501      0.0000 
      2 O1A        29.5540   28.1990    0.8610 O.co2     1 NAI501      0.0000 
      3 O2A        27.1620   29.1960    1.4510 O.co2     1 NAI501      0.0000 
      4 O5B        28.1610   29.3870   -0.8760 O.3       1 NAI501      0.0000 
      5 C5B        28.3910   30.7310   -0.5270 C.3       1 NAI501      0.0000 
      6 C4B        27.8620   31.6890   -1.5730 C.3       1 NAI501      0.0000 
      7 O4B        26.4210   31.9230   -1.4590 O.3       1 NAI501      0.0000 
      8 C3B        28.5570   33.0020   -1.2200 C.3       1 NAI501      0.0000 
      9 O3B        29.1290   33.5520   -2.4270 O.3       1 NAI501      0.0000 
     10 C2B        27.4220   33.8440   -0.6570 C.3       1 NAI501      0.0000 
     11 O2B        27.7000   35.2460   -0.8180 O.3       1 NAI501      0.0000 
     12 C1B        26.3200   33.3730   -1.5950 C.3       1 NAI501      0.0000 
     13 N9A        25.0010   33.9950   -1.2790 N.pl3     1 NAI501      0.0000 
     14 C8A        24.1960   33.7700   -0.2390 C.2       1 NAI501      0.0000 
     15 N7A        23.1310   34.5580   -0.3880 N.2       1 NAI501      0.0000 
     16 C5A        23.2750   35.2740   -1.5170 C.ar      1 NAI501      0.0000 
     17 C6A        22.4970   36.1990   -2.1220 C.ar      1 NAI501      0.0000 
     18 N6A        21.3480   36.5130   -1.5170 N.pl3     1 NAI501      0.0000 
     19 N1A        22.8500   36.7830   -3.2870 N.ar      1 NAI501      0.0000 
     20 C2A        24.0620   36.4270   -3.8930 C.ar      1 NAI501      0.0000 
     21 N3A        24.8490   35.4710   -3.2350 N.ar      1 NAI501      0.0000 
     22 C4A        24.4410   34.9170   -2.0710 C.ar      1 NAI501      0.0000 
     23 O3         27.3730   27.0560   -0.0460 O.3       1 NAI501      0.0000 
     24 PN         28.2610   25.8660   -0.7110 P.3       1 NAI501      0.0000 
     25 O1N        29.6930   26.4680   -1.2710 O.co2     1 NAI501      0.0000 
     26 O2N        28.4660   24.7010    0.1900 O.co2     1 NAI501      0.0000 
     27 O5D        27.4060   25.4560   -2.0200 O.3       1 NAI501      0.0000 
     28 C5D        26.5060   26.3430   -2.7040 C.3       1 NAI501      0.0000 
     29 C4D        25.2290   25.5890   -3.1240 C.3       1 NAI501      0.0000 
     30 O4D        25.3760   24.1310   -3.0110 O.3       1 NAI501      0.0000 
     31 C3D        24.0920   25.9860   -2.1950 C.3       1 NAI501      0.0000 
     32 O3D        22.9410   26.2980   -2.9650 O.3       1 NAI501      0.0000 
     33 C2D        23.8250   24.7450   -1.3930 C.3       1 NAI501      0.0000 
     34 O2D        22.4340   24.6620   -1.1180 O.3       1 NAI501      0.0000 
     35 C1D        24.2360   23.6110   -2.3110 C.3       1 NAI501      0.0000 
     36 N1N        24.5400   22.4120   -1.4950 N.pl3     1 NAI501      0.0000 
     37 C2N        25.8080   22.2490   -1.0350 C.2       1 NAI501      0.0000 
     38 C3N        26.1440   21.0490   -0.3710 C.2       1 NAI501      0.0000 
     39 C7N        27.4410   20.8720    0.1610 C.2       1 NAI501      0.0000 
     40 O7N        28.2690   21.7850    0.0550 O.2       1 NAI501      0.0000 
     41 N7N        27.7080   19.6880    0.7690 N.am      1 NAI501      0.0000 
     42 C4N        25.1560   20.0380   -0.2580 C.3       1 NAI501      0.0000 
     43 C5N        24.3330   20.0610   -1.3900 C.2       1 NAI501      0.0000 
     44 C6N        24.0600   21.2770   -2.0290 C.2       1 NAI501      0.0000 
     45 H          29.4727   30.9429   -0.3970 H         1 NAI501      0.0000 
     46 H          27.9110   30.9931    0.4388 H         1 NAI501      0.0000 
     47 H          28.1652   31.3979   -2.5260 H         1 NAI501      0.0000 
     48 H          29.2600   32.8070   -0.4640 H         1 NAI501      0.0000 
     49 H          27.2117   33.5262    0.3035 H         1 NAI501      0.0000 
     50 H          26.6482   33.6532   -2.5995 H         1 NAI501      0.0000 
     51 H          24.3552   33.1530    0.4844 H         1 NAI501      0.0000 
     52 H          20.8942   35.7717   -1.0224 H         1 NAI501      0.0000 
     53 H          21.0449   37.4611   -1.6131 H         1 NAI501      0.0000 
     54 H          24.3550   36.8384   -4.7611 H         1 NAI501      0.0000 
     55 H          26.9578   26.7581   -3.6121 H         1 NAI501      0.0000 
     56 H          26.2001   27.1807   -2.0670 H         1 NAI501      0.0000 
     57 H          24.9644   25.8707   -4.1188 H         1 NAI501      0.0000 
     58 H          24.4121   26.7546   -1.5652 H         1 NAI501      0.0000 
     59 H          24.4322   24.7394   -0.5397 H         1 NAI501      0.0000 
     60 H          23.4232   23.4275   -2.9780 H         1 NAI501      0.0000 
     61 H          26.5246   22.9686   -1.1554 H         1 NAI501      0.0000 
     62 H          26.9503   19.0372    0.8168 H         1 NAI501      0.0000 
     63 H          28.6388   19.5712    1.1153 H         1 NAI501      0.0000 
     64 H          24.5589   20.1927    0.6649 H         1 NAI501      0.0000 
     65 H          25.6402   19.0456   -0.1445 H         1 NAI501      0.0000 
     66 H          23.9312   19.1907   -1.7505 H         1 NAI501      0.0000 
     67 H          23.4999   21.2728   -2.8898 H         1 NAI501      0.0000 
     68 H          29.2673   34.5224   -2.2289 H         1 NAI501      0.0000 
     69 H          28.4714   35.2855   -1.4530 H         1 NAI501      0.0000 
     70 H          23.2582   26.9534   -3.6504 H         1 NAI501      0.0000 
     71 H          22.3021   25.2014   -0.2863 H         1 NAI501      0.0000 
@<TRIPOS>BOND
     1    2    1 ar   
     2    3    1 ar   
     3    4    1 1    
     4   23    1 1    
     5    5    4 1    
     6    6    5 1    
     7   45    5 1    
     8   46    5 1    
     9    7    6 1    
    10    8    6 1    
    11   47    6 1    
    12   12    7 1    
    13    9    8 1    
    14   10    8 1    
    15   48    8 1    
    16   68    9 1    
    17   11   10 1    
    18   12   10 1    
    19   49   10 1    
    20   69   11 1    
    21   13   12 1    
    22   50   12 1    
    23   14   13 1    
    24   22   13 1    
    25   15   14 2    
    26   51   14 1    
    27   16   15 1    
    28   17   16 ar   
    29   22   16 ar   
    30   18   17 1    
    31   19   17 ar   
    32   52   18 1    
    33   53   18 1    
    34   20   19 ar   
    35   21   20 ar   
    36   54   20 1    
    37   22   21 ar   
    38   24   23 1    
    39   25   24 ar   
    40   26   24 ar   
    41   27   24 1    
    42   28   27 1    
    43   29   28 1    
    44   55   28 1    
    45   56   28 1    
    46   30   29 1    
    47   31   29 1    
    48   57   29 1    
    49   35   30 1    
    50   32   31 1    
    51   33   31 1    
    52   58   31 1    
    53   70   32 1    
    54   34   33 1    
    55   35   33 1    
    56   59   33 1    
    57   71   34 1    
    58   36   35 1    
    59   60   35 1    
    60   37   36 1    
    61   44   36 1    
    62   38   37 2    
    63   61   37 1    
    64   39   38 1    
    65   42   38 1    
    66   40   39 2    
    67   41   39 am   
    68   62   41 1    
    69   63   41 1    
    70   43   42 1    
    71   64   42 1    
    72   65   42 1    
    73   44   43 2    
    74   66   43 1    
    75   67   44 1    
@<TRIPOS>SUBSTRUCTURE
     1 NAI501      1 GROUP   
@<TRIPOS>SET

