#    Name: 1h5t_DAU_2_INTS_M
#    Modification time : Tue Mar 25 04:43:38 2014

@<TRIPOS>MOLECULE
1h5t_DAU_2_INTS_M
   85     0    12     0     0
SMALL
NO_CHARGES


@<TRIPOS>ATOM
      1 CA         53.4880    5.8010   50.0905 C.3       4 GLC5        0.0000 
      2 CA         53.8050    6.5320   52.0790 C.3      12 GLL5        0.0000 
      3 CA         53.1710    5.0700   48.1020 C.3       8 GLP5        0.0000 
      4 CA         51.9055    7.0575   51.6815 C.3       4 GLC5        0.0000 
      5 CA         50.0060    7.5830   51.2840 C.3       8 GLP5        0.0000 
      6 N          56.0030   10.2145   52.7265 N.am      2 SEC2        0.0000 
      7 N          55.2680    9.0690   52.1640 N.am     10 SEL2        0.0000 
      8 N          56.7380   11.3600   53.2890 N.am      6 SEP2        0.0000 
      9 O          54.6260    9.3975   50.9695 O.2       1 ALC1        0.0000 
     10 O          55.2680    9.0690   52.1640 O.2       9 ALL1        0.0000 
     11 O          53.9840    9.7260   49.7750 O.2       5 ALP1        0.0000 
     12 CA         57.4565   10.0450   52.4410 C.3       4 GLC5        0.0000 
     13 CA         57.3270    7.9340   52.4770 C.3      12 GLL5        0.0000 
     14 CA         57.5860   12.1560   52.4050 C.3       8 GLP5        0.0000 
     15 O          59.0990    9.4570   52.3335 O.2       1 ALC1        0.0000 
     16 O          58.0250    8.9490   51.7110 O.2       9 ALL1        0.0000 
     17 O          60.1730    9.9650   52.9560 O.2       5 ALP1        0.0000 
     18 O          58.8505    8.8130   53.1800 O.2       1 ALC1        0.0000 
     19 O          59.6760    8.6770   54.6490 O.2       5 ALP1        0.0000 
     20 CA         59.0975    6.5625   50.5820 C.3       4 GLC5        0.0000 
     21 CA         57.8850    6.5220   52.3470 C.3      12 GLL5        0.0000 
     22 CA         60.3100    6.6030   48.8170 C.3       8 GLP5        0.0000 
     23 N          60.5260    7.4065   52.3420 N.am      2 SEC2        0.0000 
     24 N          59.1500    6.5540   52.8980 N.am     10 SEL2        0.0000 
     25 N          61.9020    8.2590   51.7860 N.am      6 SEP2        0.0000 
     26 O          59.4130    7.6155   53.7735 O.2       1 ALC1        0.0000 
     27 O          59.1500    6.5540   52.8980 O.2       9 ALL1        0.0000 
     28 NZ         58.0695    6.1305   57.9235 N.4       3 LYC4        0.0000 
     29 NZ         57.8380    5.3490   57.0550 N.4      11 LYL4        0.0000 
     30 NZ         58.3010    6.9120   58.7920 N.4       7 LYP4        0.0000 
     31 NZ         59.3305    5.6720   57.5090 N.4       3 LYC4        0.0000 
     32 NZ         61.7050    6.3690   57.0300 N.4       7 LYP4        0.0000 
     33 N          58.0695    6.1305   57.9235 N.am      2 SEC2        0.0000 
     34 N          57.8380    5.3490   57.0550 N.am     10 SEL2        0.0000 
     35 N          58.3010    6.9120   58.7920 N.am      6 SEP2        0.0000 
     36 N          59.3305    5.6720   57.5090 N.am      2 SEC2        0.0000 
     37 N          60.8230    5.9950   57.9630 N.am      6 SEP2        0.0000 
     38 NZ         60.5045    5.2470   55.3960 N.4       3 LYC4        0.0000 
     39 NZ         59.5400    4.3750   55.0500 N.4      11 LYL4        0.0000 
     40 N          60.5045    5.2470   55.3960 N.am      2 SEC2        0.0000 
     41 N          59.5400    4.3750   55.0500 N.am     10 SEL2        0.0000 
     42 N          61.4690    6.1190   55.7420 N.am      6 SEP2        0.0000 
     43 CA         54.7025    2.1365   52.5840 C.3       4 GLC5        0.0000 
     44 CA         55.2600    1.4270   54.2670 C.3      12 GLL5        0.0000 
     45 CA         54.1450    2.8460   50.9010 C.3       8 GLP5        0.0000 
     46 CA         55.3055    0.4995   51.9635 C.3       4 GLC5        0.0000 
     47 CA         54.8860   -0.0230   53.9790 C.3      12 GLL5        0.0000 
     48 CA         55.7250    1.0220   49.9480 C.3       8 GLP5        0.0000 
     49 N          53.2945   -2.2730   53.8060 N.am      2 SEC2        0.0000 
     50 N          53.5100   -1.6600   55.0450 N.am     10 SEL2        0.0000 
     51 N          53.0790   -2.8860   52.5670 N.am      6 SEP2        0.0000 
     52 O          52.3970   -1.0215   55.0260 O.2       1 ALC1        0.0000 
     53 O          53.5100   -1.6600   55.0450 O.2       9 ALL1        0.0000 
     54 O          51.2840   -0.3830   55.0070 O.2       5 ALP1        0.0000 
     55 CA         57.2545   -2.4030   52.0460 C.3       4 GLC5        0.0000 
     56 CA         56.3790   -1.8610   54.0360 C.3      12 GLL5        0.0000 
     57 CA         58.1300   -2.9450   50.0560 C.3       8 GLP5        0.0000 
     58 CA         58.5295    0.1575   52.5270 C.3       4 GLC5        0.0000 
     59 CA         58.4540   -0.7400   54.5330 C.3      12 GLL5        0.0000 
     60 CA         58.6050    1.0550   50.5210 C.3       8 GLP5        0.0000 
     61 CA         60.7535   -2.1885   55.8500 C.3       4 GLC5        0.0000 
     62 CA         59.8590   -0.7680   54.5750 C.3      12 GLL5        0.0000 
     63 CA         61.6480   -3.6090   57.1250 C.3       8 GLP5        0.0000 
     64 N          57.0065   -4.9485   52.8655 N.am      2 SEC2        0.0000 
     65 N          57.9180   -3.8500   52.8340 N.am     10 SEL2        0.0000 
     66 N          56.0950   -6.0470   52.8970 N.am      6 SEP2        0.0000 
     67 O          60.6165   -4.0135   53.0390 O.2       1 ALC1        0.0000 
     68 O          59.9030   -2.8230   53.3690 O.2       9 ALL1        0.0000 
     69 O          61.3300   -5.2040   52.7090 O.2       5 ALP1        0.0000 
     70 N          62.5545   -2.9235   53.1755 N.am      2 SEC2        0.0000 
     71 N          61.8260   -1.7330   53.9210 N.am     10 SEL2        0.0000 
     72 N          63.2830   -4.1140   52.4300 N.am      6 SEP2        0.0000 
     73 N          63.0855   -1.1095   53.9650 N.am      2 SEC2        0.0000 
     74 N          64.3450   -0.4860   54.0090 N.am      6 SEP2        0.0000 
     75 CA         54.3088    4.7498   51.6655 C.3       4 GLC5        0.0000 
     76 CA         55.1400    6.7750   52.7810 C.3      12 GLL5        0.0000 
     77 CA         53.9579    8.2384   53.5042 C.3       4 GLC5        0.0000 
     78 CA         52.7340    9.2410   54.7940 C.3       8 GLP5        0.0000 
     79 CA         58.0265    4.7230   51.3160 C.3       4 GLC5        0.0000 
     80 CA         57.1190    5.5040   53.1290 C.3      12 GLL5        0.0000 
     81 CA         58.5510    3.4330   49.8940 C.3       8 GLP5        0.0000 
     82 CA         56.8678   -3.2895   55.9522 C.3       4 GLC5        0.0000 
     83 CA         57.5960   -4.8070   57.1500 C.3       8 GLP5        0.0000 
     84 CA         62.0652    0.2655   54.0700 C.3       4 GLC5        0.0000 
     85 CA         63.8680    0.7110   53.3190 C.3       8 GLP5        0.0000 
@<TRIPOS>BOND
@<TRIPOS>SUBSTRUCTURE
     1 ALC1        9 GROUP        1 X    ALC  0     ROOT ALC X 1
     2 SEC2        6 GROUP        1 X    SEC  0     **** SEC X 2
     3 LYC4       28 GROUP        1 X    LYC  0     **** LYC X 4
     4 GLC5        1 GROUP        1 X    GLC  0     **** GLC X 6
     5 ALP1       11 GROUP        1 Y    ALP  0     ROOT ALP Y 8
     6 SEP2        8 GROUP        1 Y    SEP  0     **** SEP Y 9
     7 LYP4       30 GROUP        1 Y    LYP  0     **** LYP Y 11
     8 GLP5        3 GROUP        1 Y    GLP  0     **** GLP Y 13
     9 ALL1       10 GROUP        1 Z    ALL  0     ROOT ALL Z 15
    10 SEL2        7 GROUP        1 Z    SEL  0     **** SEL Z 16
    11 LYL4       29 GROUP        1 Z    LYL  0     **** LYL Z 18
    12 GLL5        2 GROUP        1 Z    GLL  0     **** GLL Z 20
@<TRIPOS>SET

