#    Name: 1h5t_DAU_2_ligand
#    Modification time : Tue Mar 25 04:43:38 2014

@<TRIPOS>MOLECULE
1h5t_DAU_2_ligand
   60    62     1     0     0
SMALL
NO_CHARGES


@<TRIPOS>ATOM
      1 O6         53.0590    5.6360   52.9000 O.3       1 DAU1293     0.0000 
      2 C6         53.8050    6.5320   52.0790 C.3       1 DAU1293     0.0000 
      3 C5         55.1400    6.7750   52.7810 C.3       1 DAU1293     0.0000 
      4 O5         55.7590    5.4940   52.7240 O.3       1 DAU1293     0.0000 
      5 C4         55.8910    7.8180   51.9990 C.3       1 DAU1293     0.0000 
      6 O4         55.2680    9.0690   52.1640 O.3       1 DAU1293     0.0000 
      7 C3         57.3270    7.9340   52.4770 C.3       1 DAU1293     0.0000 
      8 O3         58.0250    8.9490   51.7110 O.3       1 DAU1293     0.0000 
      9 C2         57.8850    6.5220   52.3470 C.3       1 DAU1293     0.0000 
     10 O2         59.1500    6.5540   52.8980 O.3       1 DAU1293     0.0000 
     11 C1         57.1190    5.5040   53.1290 C.3       1 DAU1293     0.0000 
     12 O1         57.2500    5.8460   54.5170 O.3       1 DAU1293     0.0000 
     13 P2         57.9670    4.7700   55.4940 P.3       1 DAU1293     0.0000 
     14 O3P        57.8380    5.3490   57.0550 O.co2     1 DAU1293     0.0000 
     15 O4P        59.5400    4.3750   55.0500 O.co2     1 DAU1293     0.0000 
     16 OPP        56.9770    3.5530   55.2650 O.3       1 DAU1293     0.0000 
     17 P          56.4050    2.5660   56.3660 P.3       1 DAU1293     0.0000 
     18 O1P        54.9520    3.0910   57.0330 O.co2     1 DAU1293     0.0000 
     19 O2P        57.6760    2.0950   57.3090 O.co2     1 DAU1293     0.0000 
     20 O5         56.0990    1.2950   55.4230 O.3       1 DAU1293     0.0000 
     21 C5         55.2600    1.4270   54.2670 C.3       1 DAU1293     0.0000 
     22 C4         54.8860   -0.0230   53.9790 C.3       1 DAU1293     0.0000 
     23 O4         56.0170   -0.6400   53.3670 O.3       1 DAU1293     0.0000 
     24 C3         54.6440   -0.8100   55.2710 C.3       1 DAU1293     0.0000 
     25 O3         53.5100   -1.6600   55.0450 O.3       1 DAU1293     0.0000 
     26 C2         55.9000   -1.6830   55.4730 C.3       1 DAU1293     0.0000 
     27 C1         56.3790   -1.8610   54.0360 C.3       1 DAU1293     0.0000 
     28 N11        57.8380   -1.8120   53.9990 N.am      1 DAU1293     0.0000 
     29 C61        58.4540   -0.7400   54.5330 C.2       1 DAU1293     0.0000 
     30 C51        59.8590   -0.7680   54.5750 C.2       1 DAU1293     0.0000 
     31 C5A        60.6660    0.4080   55.0670 C.3       1 DAU1293     0.0000 
     32 C21        58.5470   -2.8310   53.4180 C.2       1 DAU1293     0.0000 
     33 O21        57.9180   -3.8500   52.8340 O.2       1 DAU1293     0.0000 
     34 N31        59.9030   -2.8230   53.3690 N.am      1 DAU1293     0.0000 
     35 C41        60.5370   -1.8010   53.9450 C.2       1 DAU1293     0.0000 
     36 O41        61.8260   -1.7330   53.9210 O.2       1 DAU1293     0.0000 
     37 H          53.3082    7.4900   51.9632 H         1 DAU1293     0.0000 
     38 H          54.0129    6.1123   51.0999 H         1 DAU1293     0.0000 
     39 H          54.9424    7.0914   53.7591 H         1 DAU1293     0.0000 
     40 H          55.9081    7.5261   50.9578 H         1 DAU1293     0.0000 
     41 H          57.2860    8.1798   53.5307 H         1 DAU1293     0.0000 
     42 H          57.9079    6.2495   51.3174 H         1 DAU1293     0.0000 
     43 H          57.5846    4.5375   52.9476 H         1 DAU1293     0.0000 
     44 H          55.7883    1.8139   53.4266 H         1 DAU1293     0.0000 
     45 H          54.3685    1.9718   54.4751 H         1 DAU1293     0.0000 
     46 H          54.0333   -0.0694   53.3705 H         1 DAU1293     0.0000 
     47 H          54.5352   -0.1559   56.0660 H         1 DAU1293     0.0000 
     48 H          55.6209   -2.6098   55.8800 H         1 DAU1293     0.0000 
     49 H          56.6123   -1.1488   56.0295 H         1 DAU1293     0.0000 
     50 H          55.9865   -2.6870   53.6012 H         1 DAU1293     0.0000 
     51 H          57.9543    0.0626   54.8950 H         1 DAU1293     0.0000 
     52 H          60.4131   -3.5830   52.9018 H         1 DAU1293     0.0000 
     53 H          61.6485    0.2251   55.0315 H         1 DAU1293     0.0000 
     54 H          60.5004    1.2276   54.5185 H         1 DAU1293     0.0000 
     55 H          60.4450    0.6398   56.0143 H         1 DAU1293     0.0000 
     56 H          53.7169    4.9399   53.1874 H         1 DAU1293     0.0000 
     57 H          54.8496    9.2685   51.2779 H         1 DAU1293     0.0000 
     58 H          58.6676    9.3633   52.3555 H         1 DAU1293     0.0000 
     59 H          59.1507    7.3542   53.4978 H         1 DAU1293     0.0000 
     60 H          52.7467   -1.1986   55.4972 H         1 DAU1293     0.0000 
@<TRIPOS>BOND
     1    2    1 1    
     2   56    1 1    
     3    3    2 1    
     4   37    2 1    
     5   38    2 1    
     6    4    3 1    
     7    5    3 1    
     8   39    3 1    
     9   11    4 1    
    10    6    5 1    
    11    7    5 1    
    12   40    5 1    
    13   57    6 1    
    14    8    7 1    
    15    9    7 1    
    16   41    7 1    
    17   58    8 1    
    18   10    9 1    
    19   11    9 1    
    20   42    9 1    
    21   59   10 1    
    22   12   11 1    
    23   43   11 1    
    24   13   12 1    
    25   14   13 ar   
    26   15   13 ar   
    27   16   13 1    
    28   17   16 1    
    29   18   17 ar   
    30   19   17 ar   
    31   20   17 1    
    32   21   20 1    
    33   22   21 1    
    34   44   21 1    
    35   45   21 1    
    36   23   22 1    
    37   24   22 1    
    38   46   22 1    
    39   27   23 1    
    40   25   24 1    
    41   26   24 1    
    42   47   24 1    
    43   60   25 1    
    44   27   26 1    
    45   48   26 1    
    46   49   26 1    
    47   28   27 1    
    48   50   27 1    
    49   29   28 1    
    50   32   28 1    
    51   30   29 2    
    52   51   29 1    
    53   31   30 1    
    54   35   30 1    
    55   53   31 1    
    56   54   31 1    
    57   55   31 1    
    58   33   32 2    
    59   34   32 1    
    60   35   34 1    
    61   52   34 1    
    62   36   35 2    
@<TRIPOS>SUBSTRUCTURE
     1 DAU1293     1 GROUP   
@<TRIPOS>SET

