#    Name: 3o01_DXC_1_INTS_M
#    Modification time : Tue Mar 25 03:02:06 2014

@<TRIPOS>MOLECULE
3o01_DXC_1_INTS_M
   44     0     6     0     0
SMALL
NO_CHARGES


@<TRIPOS>ATOM
      1 CA         86.4335   30.3720  -11.2305 C.3       2 GLC5        0.0000 
      2 CA         87.5150   28.7980  -11.3490 C.3       6 GLL5        0.0000 
      3 CA         85.3520   31.9460  -11.1120 C.3       4 GLP5        0.0000 
      4 CA         90.0860   25.1765  -11.0165 C.3       2 GLC5        0.0000 
      5 CA         88.3010   26.0550  -10.8170 C.3       6 GLL5        0.0000 
      6 CA         91.8710   24.2980  -11.2160 C.3       4 GLP5        0.0000 
      7 CA         89.6605   27.7660   -6.9915 C.3       2 GLC5        0.0000 
      8 CA         89.6750   26.6650   -8.8820 C.3       6 GLL5        0.0000 
      9 CA         89.6460   28.8670   -5.1010 C.3       4 GLP5        0.0000 
     10 CA         90.7730   25.4815  -10.0490 C.3       2 GLC5        0.0000 
     11 CA         88.1310   26.8735   -4.1060 C.3       2 GLC5        0.0000 
     12 CA         86.7380   26.1120   -5.2520 C.3       6 GLL5        0.0000 
     13 CA         89.5240   27.6350   -2.9600 C.3       4 GLP5        0.0000 
     14 CA         85.9700   26.8235   -3.2990 C.3       2 GLC5        0.0000 
     15 CA         85.2020   27.5350   -1.3460 C.3       4 GLP5        0.0000 
     16 CA         87.6425   24.3380   -5.7235 C.3       2 GLC5        0.0000 
     17 CA         88.5470   22.5640   -6.1950 C.3       4 GLP5        0.0000 
     18 CA         82.3810   23.4640   -1.3825 C.3       2 GLC5        0.0000 
     19 CA         82.2220   24.9050   -2.5840 C.3       6 GLL5        0.0000 
     20 CA         82.5400   22.0230   -0.1810 C.3       4 GLP5        0.0000 
     21 NZ         80.4375   28.0235   -0.6425 N.4       1 LYC4        0.0000 
     22 NZ         80.9210   26.3660   -1.2580 N.4       5 LYL4        0.0000 
     23 NZ         79.9540   29.6810   -0.0270 N.4       3 LYP4        0.0000 
     24 CA         81.9050   23.4285   -5.1100 C.3       2 GLC5        0.0000 
     25 CA         83.7840   24.0300   -5.0490 C.3       6 GLL5        0.0000 
     26 CA         80.0260   22.8270   -5.1710 C.3       4 GLP5        0.0000 
     27 CA         84.6245   22.2685   -4.5655 C.3       2 GLC5        0.0000 
     28 CA         85.4650   20.5070   -4.0820 C.3       4 GLP5        0.0000 
     29 CA         84.3235   23.2135   -6.8860 C.3       2 GLC5        0.0000 
     30 CA         84.8630   22.3970   -8.7230 C.3       4 GLP5        0.0000 
     31 CA         87.0278   30.9462   -9.3927 C.3       2 GLC5        0.0000 
     32 CA         87.1340   29.4150   -8.1790 C.3       6 GLL5        0.0000 
     33 CA         86.2930   32.4200  -10.1610 C.3       4 GLP5        0.0000 
     34 CA         88.5064   28.7959   -6.6244 C.3       2 GLC5        0.0000 
     35 CA         87.4243   23.9898   -7.0065 C.3       2 GLC5        0.0000 
     36 CA         86.9480   25.4900   -8.2170 C.3       6 GLL5        0.0000 
     37 CA         85.5822   23.9062   -8.2705 C.3       2 GLC5        0.0000 
     38 CA         84.6767   29.9857   -4.6368 C.3       2 GLC5        0.0000 
     39 CA         84.1660   27.9450   -5.0500 C.3       6 GLL5        0.0000 
     40 CA         84.6800   31.6380   -3.8140 C.3       4 GLP5        0.0000 
     41 CA         84.6940   27.3818   -3.3260 C.3       2 GLC5        0.0000 
     42 CA         81.1863   24.0898   -4.1828 C.3       2 GLC5        0.0000 
     43 CA         82.4710   25.8000   -3.8050 C.3       6 GLL5        0.0000 
     44 CA         83.9407   26.4029   -2.3565 C.3       2 GLC5        0.0000 
@<TRIPOS>BOND
@<TRIPOS>SUBSTRUCTURE
     1 LYC4       21 GROUP        1 X    LYC  0     ROOT LYC X 4
     2 GLC5        1 GROUP        1 X    GLC  0     **** GLC X 6
     3 LYP4       23 GROUP        1 Y    LYP  0     ROOT LYP Y 11
     4 GLP5        3 GROUP        1 Y    GLP  0     **** GLP Y 13
     5 LYL4       22 GROUP        1 Z    LYL  0     ROOT LYL Z 18
     6 GLL5        2 GROUP        1 Z    GLL  0     **** GLL Z 20
@<TRIPOS>SET

