#    Name: 3o01_DXC_1_ligand
#    Modification time : Tue Mar 25 03:02:06 2014

@<TRIPOS>MOLECULE
3o01_DXC_1_ligand
   67    70     1     0     0
SMALL
NO_CHARGES


@<TRIPOS>ATOM
      1 C1         87.4640   27.7860  -12.4840 C.3       1 DXC1        0.0000 
      2 C2         87.5150   28.7980  -11.3490 C.3       1 DXC1        0.0000 
      3 C3         88.4880   28.4730  -10.2020 C.3       1 DXC1        0.0000 
      4 C4         88.3810   27.0380   -9.6470 C.3       1 DXC1        0.0000 
      5 C5         88.3010   26.0550  -10.8170 C.3       1 DXC1        0.0000 
      6 C6         87.2450   26.3970  -11.8860 C.3       1 DXC1        0.0000 
      7 C7         88.3910   29.5300   -9.0700 C.3       1 DXC1        0.0000 
      8 C8         87.1340   29.4150   -8.1790 C.3       1 DXC1        0.0000 
      9 C9         86.9710   27.9770   -7.6710 C.3       1 DXC1        0.0000 
     10 C10        87.1080   26.9180   -8.7830 C.3       1 DXC1        0.0000 
     11 C11        85.6490   27.7320   -6.9240 C.3       1 DXC1        0.0000 
     12 C12        85.5740   26.3660   -6.2420 C.3       1 DXC1        0.0000 
     13 C13        85.6550   25.3410   -7.4190 C.3       1 DXC1        0.0000 
     14 C14        86.9480   25.4900   -8.2170 C.3       1 DXC1        0.0000 
     15 C15        85.1810   28.7220   -5.8690 C.3       1 DXC1        0.0000 
     16 C16        84.1660   27.9450   -5.0500 C.3       1 DXC1        0.0000 
     17 C17        84.2060   26.5120   -5.5620 C.3       1 DXC1        0.0000 
     18 C18        89.6750   26.6650   -8.8820 C.3       1 DXC1        0.0000 
     19 C19        83.8030   25.4730   -4.4950 C.3       1 DXC1        0.0000 
     20 O1         84.5690   25.4870   -8.3730 O.3       1 DXC1        0.0000 
     21 O2         86.3090   28.0700  -13.2940 O.3       1 DXC1        0.0000 
     22 C20        86.7380   26.1120   -5.2520 C.3       1 DXC1        0.0000 
     23 C21        82.4710   25.8000   -3.8050 C.3       1 DXC1        0.0000 
     24 C22        82.2220   24.9050   -2.5840 C.3       1 DXC1        0.0000 
     25 C23        80.9260   25.3460   -1.9590 C.2       1 DXC1        0.0000 
     26 O3         80.9210   26.3660   -1.2580 O.co2     1 DXC1        0.0000 
     27 O4         79.8820   24.7310   -2.2220 O.co2     1 DXC1        0.0000 
     28 C24        83.7840   24.0300   -5.0490 C.3       1 DXC1        0.0000 
     29 H          88.3541   27.8006  -13.0280 H         1 DXC1        0.0000 
     30 H          86.4967   28.9128  -10.9210 H         1 DXC1        0.0000 
     31 H          87.7836   29.7927  -11.7633 H         1 DXC1        0.0000 
     32 H          89.5247   28.5792  -10.6205 H         1 DXC1        0.0000 
     33 H          88.0870   25.0445  -10.4228 H         1 DXC1        0.0000 
     34 H          89.2907   25.9984  -11.3066 H         1 DXC1        0.0000 
     35 H          87.2929   25.6491  -12.6808 H         1 DXC1        0.0000 
     36 H          86.2536   26.3518  -11.4294 H         1 DXC1        0.0000 
     37 H          88.4132   30.5335   -9.5249 H         1 DXC1        0.0000 
     38 H          89.2865   29.4447   -8.4334 H         1 DXC1        0.0000 
     39 H          86.2626   29.6932   -8.7607 H         1 DXC1        0.0000 
     40 H          87.2376   30.0865   -7.3343 H         1 DXC1        0.0000 
     41 H          87.7860   27.7754   -6.9455 H         1 DXC1        0.0000 
     42 H          86.2362   27.0658   -9.4755 H         1 DXC1        0.0000 
     43 H          84.8206   27.6961   -7.6989 H         1 DXC1        0.0000 
     44 H          85.6463   24.3406   -6.9967 H         1 DXC1        0.0000 
     45 H          87.8002   25.2705   -7.5726 H         1 DXC1        0.0000 
     46 H          86.9468   24.7819   -9.0466 H         1 DXC1        0.0000 
     47 H          84.7091   29.5526   -6.3378 H         1 DXC1        0.0000 
     48 H          86.0007   29.0080   -5.2537 H         1 DXC1        0.0000 
     49 H          83.1867   28.3546   -5.2019 H         1 DXC1        0.0000 
     50 H          84.4429   27.9653   -4.0143 H         1 DXC1        0.0000 
     51 H          83.4455   26.4754   -6.3854 H         1 DXC1        0.0000 
     52 H          84.5875   25.4938   -3.7046 H         1 DXC1        0.0000 
     53 H          81.6563   25.6647   -4.5196 H         1 DXC1        0.0000 
     54 H          82.4811   26.8446   -3.4865 H         1 DXC1        0.0000 
     55 H          83.0327   25.0286   -1.8866 H         1 DXC1        0.0000 
     56 H          82.1496   23.8810   -2.9079 H         1 DXC1        0.0000 
     57 H          90.4808   26.7067   -9.4727 H         1 DXC1        0.0000 
     58 H          89.8429   27.2821   -8.1132 H         1 DXC1        0.0000 
     59 H          89.6322   25.7379   -8.5097 H         1 DXC1        0.0000 
     60 H          87.6277   26.1513   -5.7069 H         1 DXC1        0.0000 
     61 H          86.7546   26.7894   -4.5166 H         1 DXC1        0.0000 
     62 H          86.6689   25.2125   -4.8205 H         1 DXC1        0.0000 
     63 H          84.6811   23.7523   -5.3928 H         1 DXC1        0.0000 
     64 H          83.5204   23.3667   -4.3486 H         1 DXC1        0.0000 
     65 H          83.1369   23.9309   -5.8049 H         1 DXC1        0.0000 
     66 H          84.7457   25.0394   -7.4963 H         1 DXC1        0.0000 
     67 H          87.2485   28.4120  -13.3155 H         1 DXC1        0.0000 
@<TRIPOS>BOND
     1    2    1 1    
     2    6    1 1    
     3   21    1 1    
     4   29    1 1    
     5    3    2 1    
     6   30    2 1    
     7   31    2 1    
     8    4    3 1    
     9    7    3 1    
    10   32    3 1    
    11    5    4 1    
    12   10    4 1    
    13   18    4 1    
    14    6    5 1    
    15   33    5 1    
    16   34    5 1    
    17   35    6 1    
    18   36    6 1    
    19    8    7 1    
    20   37    7 1    
    21   38    7 1    
    22    9    8 1    
    23   39    8 1    
    24   40    8 1    
    25   10    9 1    
    26   11    9 1    
    27   41    9 1    
    28   14   10 1    
    29   42   10 1    
    30   12   11 1    
    31   15   11 1    
    32   43   11 1    
    33   13   12 1    
    34   17   12 1    
    35   22   12 1    
    36   14   13 1    
    37   20   13 1    
    38   44   13 1    
    39   45   14 1    
    40   46   14 1    
    41   16   15 1    
    42   47   15 1    
    43   48   15 1    
    44   17   16 1    
    45   49   16 1    
    46   50   16 1    
    47   19   17 1    
    48   51   17 1    
    49   57   18 1    
    50   58   18 1    
    51   59   18 1    
    52   23   19 1    
    53   28   19 1    
    54   52   19 1    
    55   66   20 1    
    56   67   21 1    
    57   60   22 1    
    58   61   22 1    
    59   62   22 1    
    60   24   23 1    
    61   53   23 1    
    62   54   23 1    
    63   25   24 1    
    64   55   24 1    
    65   56   24 1    
    66   26   25 ar   
    67   27   25 ar   
    68   63   28 1    
    69   64   28 1    
    70   65   28 1    
@<TRIPOS>SUBSTRUCTURE
     1 DXC1        1 GROUP   
@<TRIPOS>SET

