#    Name: 2w3w_VG9_1_INTS_M
#    Modification time : Tue Mar 25 03:39:04 2014

@<TRIPOS>MOLECULE
2w3w_VG9_1_INTS_M
   68     0     9     0     0
SMALL
NO_CHARGES


@<TRIPOS>ATOM
      1 O          12.3250    2.5830   39.5700 O.2       1 ALC1        0.0000 
      2 O          12.3240    2.5150   40.9770 O.2       7 ALL1        0.0000 
      3 O          12.3260    2.6510   38.1630 O.2       4 ALP1        0.0000 
      4 CA         11.3170    2.4820   42.7840 C.3       3 GLC5        0.0000 
      5 CA         12.8900    3.4990   41.7090 C.3       9 GLL5        0.0000 
      6 CA          9.7440    1.4650   43.8590 C.3       6 GLP5        0.0000 
      7 CA         13.4760    1.9085   42.7265 C.3       3 GLC5        0.0000 
      8 CA         14.0620    0.3180   43.7440 C.3       6 GLP5        0.0000 
      9 CA         14.2750    2.5360   40.5480 C.3       3 GLC5        0.0000 
     10 CA         15.6600    1.5730   39.3870 C.3       6 GLP5        0.0000 
     11 CA         11.3380    4.7250   41.4675 C.3       3 GLC5        0.0000 
     12 CA          9.7860    5.9510   41.2260 C.3       6 GLP5        0.0000 
     13 CA         13.7325    2.3770   43.7755 C.3       3 GLC5        0.0000 
     14 CA         13.4030    4.4360   43.8070 C.3       9 GLL5        0.0000 
     15 O          13.0435    2.8075   45.5250 O.2       1 ALC1        0.0000 
     16 O          13.3680    4.2000   45.1270 O.2       7 ALL1        0.0000 
     17 O          12.7190    1.4150   45.9230 O.2       4 ALP1        0.0000 
     18 O          14.0470    4.4260   46.4310 O.2       1 ALC1        0.0000 
     19 O          14.7260    4.6520   47.7350 O.2       4 ALP1        0.0000 
     20 N          13.6140    4.4240   39.6670 N.am      2 SEC2        0.0000 
     21 N          13.4900    4.5160   41.0550 N.am      8 SEL2        0.0000 
     22 N          13.7380    4.3320   38.2790 N.am      5 SEP2        0.0000 
     23 CA         11.8865    5.7490   41.4950 C.3       3 GLC5        0.0000 
     24 CA         13.9870    5.5470   41.7640 C.3       9 GLL5        0.0000 
     25 CA         13.5960    8.7220   40.4795 C.3       3 GLC5        0.0000 
     26 CA         15.0520    7.6290   41.6840 C.3       9 GLL5        0.0000 
     27 CA         12.1400    9.8150   39.2750 C.3       6 GLP5        0.0000 
     28 CA         12.6140    7.2045   45.1755 C.3       3 GLC5        0.0000 
     29 CA         14.5260    6.8420   45.3120 C.3       9 GLL5        0.0000 
     30 CA         10.7020    7.5670   45.0390 C.3       6 GLP5        0.0000 
     31 CA         13.2635    6.1470   46.8990 C.3       3 GLC5        0.0000 
     32 CA         12.0010    5.4520   48.4860 C.3       6 GLP5        0.0000 
     33 CA         15.7570    5.6235   45.3355 C.3       3 GLC5        0.0000 
     34 CA         16.9880    4.4050   45.3590 C.3       6 GLP5        0.0000 
     35 CA         17.0425    8.0990   42.7160 C.3       3 GLC5        0.0000 
     36 CA         15.7110    8.9930   43.7120 C.3       9 GLL5        0.0000 
     37 CA         18.3740    7.2050   41.7200 C.3       6 GLP5        0.0000 
     38 CA         15.5900   10.2625   45.0900 C.3       3 GLC5        0.0000 
     39 CA         15.4690   11.5320   46.4680 C.3       6 GLP5        0.0000 
     40 CA         15.5405   13.7950   41.3040 C.3       3 GLC5        0.0000 
     41 CA         14.0880   12.4120   40.5580 C.3       9 GLL5        0.0000 
     42 CA         16.9930   15.1780   42.0500 C.3       6 GLP5        0.0000 
     43 CA         11.8260   12.2225   44.0840 C.3       3 GLC5        0.0000 
     44 CA         12.4910   11.5570   42.1210 C.3       9 GLL5        0.0000 
     45 CA         11.1610   12.8880   46.0470 C.3       6 GLP5        0.0000 
     46 CA         11.1415   11.0880   40.7340 C.3       3 GLC5        0.0000 
     47 CA         10.1430   12.3610   42.1930 C.3       9 GLL5        0.0000 
     48 CA          9.2305   12.2325   40.4655 C.3       3 GLC5        0.0000 
     49 CA          8.3180   12.1040   38.7380 C.3       6 GLP5        0.0000 
     50 CA          8.0310   11.2845   41.6300 C.3       3 GLC5        0.0000 
     51 CA          8.9070   12.1310   43.0360 C.3       9 GLL5        0.0000 
     52 CA          7.1550   10.4380   40.2240 C.3       6 GLP5        0.0000 
     53 CA         16.5855    7.1993   42.4070 C.3       3 GLC5        0.0000 
     54 CA         15.0760    7.7530   43.0560 C.3       9 GLL5        0.0000 
     55 CA         13.5473   10.5278   40.4767 C.3       3 GLC5        0.0000 
     56 CA         14.8150   10.8190   42.2170 C.3       9 GLL5        0.0000 
     57 CA         14.8137   11.1660   44.4635 C.3       3 GLC5        0.0000 
     58 CA         15.9588   12.8298   42.5093 C.3       3 GLC5        0.0000 
     59 CA         16.9630   14.4190   43.3400 C.3       6 GLP5        0.0000 
     60 CA         17.1692   13.7637   40.6485 C.3       3 GLC5        0.0000 
     61 CA         16.6160   12.4590   39.4280 C.3       9 GLL5        0.0000 
     62 CA         12.7913   11.1067   40.0415 C.3       3 GLC5        0.0000 
     63 CA         12.5683   10.4920   40.8430 C.3       3 GLC5        0.0000 
     64 CA         13.2324   13.7049   42.6448 C.3       3 GLC5        0.0000 
     65 CA         13.4980   15.4320   43.8250 C.3       6 GLP5        0.0000 
     66 CA         10.0520   10.3270   43.2873 C.3       3 GLC5        0.0000 
     67 CA         10.5790    8.4080   43.9600 C.3       6 GLP5        0.0000 
     68 CA         10.3430   12.5670   44.3307 C.3       3 GLC5        0.0000 
@<TRIPOS>BOND
@<TRIPOS>SUBSTRUCTURE
     1 ALC1        1 GROUP        1 X    ALC  0     ROOT ALC X 1
     2 SEC2       20 GROUP        1 X    SEC  0     **** SEC X 2
     3 GLC5        4 GROUP        1 X    GLC  0     **** GLC X 6
     4 ALP1        3 GROUP        1 Y    ALP  0     ROOT ALP Y 8
     5 SEP2       22 GROUP        1 Y    SEP  0     **** SEP Y 9
     6 GLP5        6 GROUP        1 Y    GLP  0     **** GLP Y 13
     7 ALL1        2 GROUP        1 Z    ALL  0     ROOT ALL Z 15
     8 SEL2       21 GROUP        1 Z    SEL  0     **** SEL Z 16
     9 GLL5        5 GROUP        1 Z    GLL  0     **** GLL Z 20
@<TRIPOS>SET

