#    Name: 2w3w_VG9_1_ligand
#    Modification time : Tue Mar 25 03:39:04 2014

@<TRIPOS>MOLECULE
2w3w_VG9_1_ligand
   51    53     1     0     0
SMALL
NO_CHARGES


@<TRIPOS>ATOM
      1 N2         12.3240    2.5150   40.9770 N.pl3     1 VG91168     0.0000 
      2 C2         12.8900    3.4990   41.7090 C.ar      1 VG91168     0.0000 
      3 N3         12.8500    3.4680   43.0660 N.ar      1 VG91168     0.0000 
      4 C4         13.4030    4.4360   43.8070 C.ar      1 VG91168     0.0000 
      5 N4         13.3680    4.2000   45.1270 N.pl3     1 VG91168     0.0000 
      6 N1         13.4900    4.5160   41.0550 N.ar      1 VG91168     0.0000 
      7 C8A        13.9870    5.5470   41.7640 C.ar      1 VG91168     0.0000 
      8 N8         14.5240    6.5620   41.0610 N.ar      1 VG91168     0.0000 
      9 C7         15.0520    7.6290   41.6840 C.ar      1 VG91168     0.0000 
     10 C6         15.0760    7.7530   43.0560 C.ar      1 VG91168     0.0000 
     11 C5         14.5300    6.6960   43.8180 C.ar      1 VG91168     0.0000 
     12 C5A        14.5260    6.8420   45.3120 C.3       1 VG91168     0.0000 
     13 C4A        13.9750    5.5680   43.1630 C.ar      1 VG91168     0.0000 
     14 C9         15.7110    8.9930   43.7120 C.3       1 VG91168     0.0000 
     15 N10        15.8430   10.0910   42.7350 N.pl3     1 VG91168     0.0000 
     16 C11        14.8150   10.8190   42.2170 C.ar      1 VG91168     0.0000 
     17 C12        15.0940   11.6620   41.1400 C.ar      1 VG91168     0.0000 
     18 O2         16.3690   11.7320   40.6170 O.3       1 VG91168     0.0000 
     19 C21        16.6160   12.4590   39.4280 C.3       1 VG91168     0.0000 
     20 C22        18.0750   12.2400   39.0660 C.3       1 VG91168     0.0000 
     21 C13        14.0880   12.4120   40.5580 C.ar      1 VG91168     0.0000 
     22 C14        12.7970   12.3850   41.0580 C.ar      1 VG91168     0.0000 
     23 C15        12.4910   11.5570   42.1210 C.ar      1 VG91168     0.0000 
     24 C16        13.5020   10.7810   42.7010 C.ar      1 VG91168     0.0000 
     25 O5         11.2120   11.4990   42.6170 O.3       1 VG91168     0.0000 
     26 C51        10.1430   12.3610   42.1930 C.3       1 VG91168     0.0000 
     27 C52         8.9070   12.1310   43.0360 C.3       1 VG91168     0.0000 
     28 H          11.8536    1.7984   41.4920 H         1 VG91168     0.0000 
     29 H          12.4256    2.5905   39.9850 H         1 VG91168     0.0000 
     30 H          14.1382    4.5536   45.6578 H         1 VG91168     0.0000 
     31 H          12.5748    3.6915   45.4622 H         1 VG91168     0.0000 
     32 H          15.4695    8.4128   41.1110 H         1 VG91168     0.0000 
     33 H          16.6895    8.7062   44.1059 H         1 VG91168     0.0000 
     34 H          15.0788    9.2957   44.5508 H         1 VG91168     0.0000 
     35 H          16.8402   10.2971   42.4386 H         1 VG91168     0.0000 
     36 H          16.4585   13.5275   39.5584 H         1 VG91168     0.0000 
     37 H          16.0071   12.1089   38.5973 H         1 VG91168     0.0000 
     38 H          14.3035   13.0044   39.7337 H         1 VG91168     0.0000 
     39 H          12.0695   12.9796   40.6388 H         1 VG91168     0.0000 
     40 H          13.2742   10.1682   43.5021 H         1 VG91168     0.0000 
     41 H           9.8788   12.1799   41.1408 H         1 VG91168     0.0000 
     42 H          10.4263   13.4201   42.2818 H         1 VG91168     0.0000 
     43 H          15.4513    6.9423   45.6778 H         1 VG91168     0.0000 
     44 H          14.0063    7.6444   45.6054 H         1 VG91168     0.0000 
     45 H          14.1175    6.0477   45.7617 H         1 VG91168     0.0000 
     46 H          18.6887   12.5587   39.7883 H         1 VG91168     0.0000 
     47 H          18.2788   11.2729   38.9138 H         1 VG91168     0.0000 
     48 H          18.3276   12.7278   38.2304 H         1 VG91168     0.0000 
     49 H           9.0794   12.3105   44.0045 H         1 VG91168     0.0000 
     50 H           8.1519   12.7246   42.7577 H         1 VG91168     0.0000 
     51 H           8.5800   11.1886   42.9662 H         1 VG91168     0.0000 
@<TRIPOS>BOND
     1    2    1 1    
     2   28    1 1    
     3   29    1 1    
     4    3    2 ar   
     5    6    2 ar   
     6    4    3 ar   
     7    5    4 1    
     8   13    4 ar   
     9   30    5 1    
    10   31    5 1    
    11    7    6 ar   
    12    8    7 ar   
    13   13    7 ar   
    14    9    8 ar   
    15   10    9 ar   
    16   32    9 1    
    17   11   10 ar   
    18   14   10 1    
    19   12   11 1    
    20   13   11 ar   
    21   43   12 1    
    22   44   12 1    
    23   45   12 1    
    24   15   14 1    
    25   33   14 1    
    26   34   14 1    
    27   16   15 1    
    28   35   15 1    
    29   17   16 ar   
    30   24   16 ar   
    31   18   17 1    
    32   21   17 ar   
    33   19   18 1    
    34   20   19 1    
    35   36   19 1    
    36   37   19 1    
    37   46   20 1    
    38   47   20 1    
    39   48   20 1    
    40   22   21 ar   
    41   38   21 1    
    42   23   22 ar   
    43   39   22 1    
    44   24   23 ar   
    45   25   23 1    
    46   40   24 1    
    47   26   25 1    
    48   27   26 1    
    49   41   26 1    
    50   42   26 1    
    51   49   27 1    
    52   50   27 1    
    53   51   27 1    
@<TRIPOS>SUBSTRUCTURE
     1 VG91168     1 GROUP   
@<TRIPOS>SET

