#    Name: 1qye_CDY_1_INTS_M
#    Modification time : Tue Mar 25 00:07:56 2014

@<TRIPOS>MOLECULE
1qye_CDY_1_INTS_M
   38     0     6     0     0
SMALL
NO_CHARGES


@<TRIPOS>ATOM
      1 CA         15.8985  -13.8935   55.4605 C.3       2 GLC5        0.0000 
      2 CA         17.6650  -13.4010   54.1850 C.3       6 GLL5        0.0000 
      3 CA         14.1320  -14.3860   56.7360 C.3       4 GLP5        0.0000 
      4 CA         16.6440  -11.6625   54.9275 C.3       2 GLC5        0.0000 
      5 CA         15.6230   -9.9240   55.6700 C.3       4 GLP5        0.0000 
      6 CA         20.5445  -14.5150   54.0965 C.3       2 GLC5        0.0000 
      7 CA         18.5420  -14.6000   53.8040 C.3       6 GLL5        0.0000 
      8 CA         22.5470  -14.4300   54.3890 C.3       4 GLP5        0.0000 
      9 CA         20.5850  -17.4255   55.5575 C.3       2 GLC5        0.0000 
     10 CA         19.1810  -16.8070   54.3520 C.3       6 GLL5        0.0000 
     11 CA         21.9890  -18.0440   56.7630 C.3       4 GLP5        0.0000 
     12 CA         20.8640  -15.6185   54.3705 C.3       2 GLC5        0.0000 
     13 CA         19.0305  -15.5560   56.1535 C.3       2 GLC5        0.0000 
     14 CA         18.8800  -14.3050   57.9550 C.3       4 GLP5        0.0000 
     15 CA         15.5560  -19.7600   54.9280 C.3       2 GLC5        0.0000 
     16 CA         17.5450  -19.7260   55.7390 C.3       6 GLL5        0.0000 
     17 CA         13.5670  -19.7940   54.1170 C.3       4 GLP5        0.0000 
     18 CA         20.1845  -20.0500   56.2525 C.3       2 GLC5        0.0000 
     19 CA         19.6640  -21.1780   54.8020 C.3       6 GLL5        0.0000 
     20 CA         20.7050  -18.9220   57.7030 C.3       4 GLP5        0.0000 
     21 CA         21.7175  -23.1620   53.2090 C.3       2 GLC5        0.0000 
     22 CA         21.0650  -22.0960   54.2190 C.3       6 GLL5        0.0000 
     23 CA         22.3700  -24.2280   52.1990 C.3       4 GLP5        0.0000 
     24 CA         22.0395  -23.1835   55.3295 C.3       2 GLC5        0.0000 
     25 CA         23.0140  -24.2710   56.4400 C.3       4 GLP5        0.0000 
     26 CA         22.0405  -20.7800   55.2235 C.3       2 GLC5        0.0000 
     27 CA         23.0160  -19.4640   56.2280 C.3       4 GLP5        0.0000 
     28 CA         17.8765  -22.7045   54.5475 C.3       2 GLC5        0.0000 
     29 CA         17.5910  -21.1050   55.9260 C.3       6 GLL5        0.0000 
     30 CA         18.1620  -24.3040   53.1690 C.3       4 GLP5        0.0000 
     31 CA         18.2635  -22.2520   57.5795 C.3       2 GLC5        0.0000 
     32 CA         18.9360  -23.3990   59.2330 C.3       4 GLP5        0.0000 
     33 O          16.4270  -23.2010   56.7365 O.2       1 ALC1        0.0000 
     34 O          16.5840  -21.7360   56.5340 O.2       5 ALL1        0.0000 
     35 O          16.2700  -24.6660   56.9390 O.2       3 ALP1        0.0000 
     36 CA         18.4917  -14.1528   55.9748 C.3       2 GLC5        0.0000 
     37 CA         19.2632  -22.9705   53.8398 C.3       2 GLC5        0.0000 
     38 CA         19.2669  -19.5922   56.6836 C.3       2 GLC5        0.0000 
@<TRIPOS>BOND
@<TRIPOS>SUBSTRUCTURE
     1 ALC1       33 GROUP        1 X    ALC  0     ROOT ALC X 1
     2 GLC5        1 GROUP        1 X    GLC  0     **** GLC X 6
     3 ALP1       35 GROUP        1 Y    ALP  0     ROOT ALP Y 8
     4 GLP5        3 GROUP        1 Y    GLP  0     **** GLP Y 13
     5 ALL1       34 GROUP        1 Z    ALL  0     ROOT ALL Z 15
     6 GLL5        2 GROUP        1 Z    GLL  0     **** GLL Z 20
@<TRIPOS>SET

