#    Name: 1qye_CDY_1_ligand
#    Modification time : Tue Mar 25 00:07:56 2014

@<TRIPOS>MOLECULE
1qye_CDY_1_ligand
   30    32     1     0     0
SMALL
NO_CHARGES


@<TRIPOS>ATOM
      1 O5'        16.3750  -13.8510   54.5640 O.3       1 CDY338      0.0000 
      2 C5'        17.6650  -13.4010   54.1850 C.3       1 CDY338      0.0000 
      3 C4'        18.5420  -14.6000   53.8040 C.3       1 CDY338      0.0000 
      4 O4'        18.8830  -15.4830   54.9160 O.3       1 CDY338      0.0000 
      5 C3'        17.9300  -15.5100   52.7720 C.3       1 CDY338      0.0000 
      6 C2'        18.8250  -16.7090   52.8570 C.3       1 CDY338      0.0000 
      7 C1'        19.1810  -16.8070   54.3520 C.3       1 CDY338      0.0000 
      8 N9         18.3230  -17.8200   55.0090 N.pl3     1 CDY338      0.0000 
      9 C8         17.1490  -17.6100   55.6330 C.2       1 CDY338      0.0000 
     10 N7         16.6770  -18.7830   56.0780 N.2       1 CDY338      0.0000 
     11 C5         17.5450  -19.7260   55.7390 C.ar      1 CDY338      0.0000 
     12 C4         18.5880  -19.1140   55.0660 C.ar      1 CDY338      0.0000 
     13 N3         19.6240  -19.8430   54.6100 N.ar      1 CDY338      0.0000 
     14 C2         19.6640  -21.1780   54.8020 C.ar      1 CDY338      0.0000 
     15 CL         21.0650  -22.0960   54.2190 Cl        1 CDY338      0.0000 
     16 N1         18.6550  -21.8050   55.4550 N.ar      1 CDY338      0.0000 
     17 C6         17.5910  -21.1050   55.9260 C.ar      1 CDY338      0.0000 
     18 N6         16.5840  -21.7360   56.5340 N.pl3     1 CDY338      0.0000 
     19 H          18.1721  -12.8681   54.9989 H         1 CDY338      0.0000 
     20 H          17.6300  -12.7303   53.3175 H         1 CDY338      0.0000 
     21 H          19.4835  -14.2188   53.3695 H         1 CDY338      0.0000 
     22 H          17.9972  -15.0680   51.8131 H         1 CDY338      0.0000 
     23 H          16.9432  -15.7668   53.0543 H         1 CDY338      0.0000 
     24 H          19.7163  -16.5538   52.2977 H         1 CDY338      0.0000 
     25 H          18.3036  -17.5893   52.5662 H         1 CDY338      0.0000 
     26 H          20.2016  -17.0363   54.4452 H         1 CDY338      0.0000 
     27 H          16.7166  -16.7470   55.7416 H         1 CDY338      0.0000 
     28 H          15.8059  -21.1675   56.8014 H         1 CDY338      0.0000 
     29 H          16.6982  -22.7205   56.6675 H         1 CDY338      0.0000 
     30 H          16.5259  -14.7473   54.9810 H         1 CDY338      0.0000 
@<TRIPOS>BOND
     1    2    1 1    
     2   30    1 1    
     3    3    2 1    
     4   19    2 1    
     5   20    2 1    
     6    4    3 1    
     7    5    3 1    
     8   21    3 1    
     9    7    4 1    
    10    6    5 1    
    11   22    5 1    
    12   23    5 1    
    13    7    6 1    
    14   24    6 1    
    15   25    6 1    
    16    8    7 1    
    17   26    7 1    
    18    9    8 1    
    19   12    8 1    
    20   10    9 2    
    21   27    9 1    
    22   11   10 1    
    23   12   11 ar   
    24   17   11 ar   
    25   13   12 ar   
    26   14   13 ar   
    27   15   14 1    
    28   16   14 ar   
    29   17   16 ar   
    30   18   17 1    
    31   28   18 1    
    32   29   18 1    
@<TRIPOS>SUBSTRUCTURE
     1 CDY338      1 GROUP   
@<TRIPOS>SET

