#    Name: 3rod_SAH_5_INTS_M
#    Modification time : Mon Apr  7 20:33:29 2014

@<TRIPOS>MOLECULE
3rod_SAH_5_INTS_M
   75     0     9     0     0
SMALL
NO_CHARGES


@<TRIPOS>ATOM
      1 O          10.6145  -27.3020  -31.4120 O.2       1 ALC1        0.0000 
      2 O           9.3010  -27.4320  -31.1420 O.2       7 ALL1        0.0000 
      3 O          11.9280  -27.1720  -31.6820 O.2       4 ALP1        0.0000 
      4 O           8.5695  -28.8015  -30.4220 O.2       1 ALC1        0.0000 
      5 O           7.8380  -30.1710  -29.7020 O.2       4 ALP1        0.0000 
      6 CA         11.0930  -27.2370  -29.7665 C.3       3 GLC5        0.0000 
      7 CA          9.0980  -26.3830  -30.1490 C.3       9 GLL5        0.0000 
      8 CA         13.0880  -28.0910  -29.3840 C.3       6 GLP5        0.0000 
      9 CA          8.5180  -23.5670  -29.8775 C.3       3 GLC5        0.0000 
     10 CA          9.3500  -25.0310  -30.8280 C.3       9 GLL5        0.0000 
     11 CA          7.6860  -22.1030  -28.9270 C.3       6 GLP5        0.0000 
     12 CA         11.2330  -24.6705  -30.0625 C.3       3 GLC5        0.0000 
     13 CA         13.1160  -24.3100  -29.2970 C.3       6 GLP5        0.0000 
     14 CA          7.1385  -26.0515  -32.7080 C.3       3 GLC5        0.0000 
     15 CA          8.9290  -25.0960  -32.2960 C.3       9 GLL5        0.0000 
     16 CA          5.3480  -27.0070  -33.1200 C.3       6 GLP5        0.0000 
     17 CA          9.1890  -26.3250  -34.0835 C.3       3 GLC5        0.0000 
     18 CA          9.4490  -27.5540  -35.8710 C.3       6 GLP5        0.0000 
     19 CA          9.4670  -21.5920  -32.3645 C.3       3 GLC5        0.0000 
     20 CA          8.7390  -23.4720  -33.1420 C.3       9 GLL5        0.0000 
     21 CA         10.1950  -19.7120  -31.5870 C.3       6 GLP5        0.0000 
     22 N           6.0270  -28.0935  -29.0655 N.am      2 SEC2        0.0000 
     23 N           6.9640  -27.4820  -29.5750 N.am      8 SEL2        0.0000 
     24 N           5.0900  -28.7050  -28.5560 N.am      5 SEP2        0.0000 
     25 N           7.4010  -28.8265  -29.6385 N.am      2 SEC2        0.0000 
     26 N           7.8380  -30.1710  -29.7020 N.am      5 SEP2        0.0000 
     27 N           6.7425  -24.3005  -29.9270 N.am      2 SEC2        0.0000 
     28 N           7.1230  -25.3830  -29.2860 N.am      8 SEL2        0.0000 
     29 N           6.3620  -23.2180  -30.5680 N.am      5 SEP2        0.0000 
     30 N           5.8675  -25.4460  -28.7200 N.am      2 SEC2        0.0000 
     31 N           4.6120  -25.5090  -28.1540 N.am      5 SEP2        0.0000 
     32 CA         10.4335  -21.7885  -35.6140 C.3       3 GLC5        0.0000 
     33 CA          9.9720  -23.6050  -34.5120 C.3       9 GLL5        0.0000 
     34 CA         10.8950  -19.9720  -36.7160 C.3       6 GLP5        0.0000 
     35 CA          9.7105  -25.5795  -35.1915 C.3       3 GLC5        0.0000 
     36 CA         11.2160  -21.1210  -32.6665 C.3       3 GLC5        0.0000 
     37 CA         12.2370  -22.5300  -33.7460 C.3       9 GLL5        0.0000 
     38 O          14.1675  -22.9840  -32.0480 O.2       1 ALC1        0.0000 
     39 O          12.7010  -22.7130  -32.4010 O.2       7 ALL1        0.0000 
     40 O          15.6340  -23.2550  -31.6950 O.2       4 ALP1        0.0000 
     41 O          15.1460  -22.6575  -32.8265 O.2       1 ALC1        0.0000 
     42 O          14.6580  -22.0600  -33.9580 O.2       7 ALL1        0.0000 
     43 CA         13.6350  -25.8675  -34.1515 C.3       3 GLC5        0.0000 
     44 CA         13.5510  -23.8910  -35.1830 C.3       9 GLL5        0.0000 
     45 CA         13.7190  -27.8440  -33.1200 C.3       6 GLP5        0.0000 
     46 CA         17.7345  -26.5695  -38.9795 C.3       3 GLC5        0.0000 
     47 CA         15.9290  -25.5560  -39.1910 C.3       9 GLL5        0.0000 
     48 CA         19.5400  -27.5830  -38.7680 C.3       6 GLP5        0.0000 
     49 CA         15.3850  -27.2830  -39.8970 C.3       3 GLC5        0.0000 
     50 CA         14.8410  -29.0100  -40.6030 C.3       6 GLP5        0.0000 
     51 O          17.4735  -25.7630  -40.8135 O.2       1 ALC1        0.0000 
     52 O          16.0240  -25.2830  -40.4970 O.2       7 ALL1        0.0000 
     53 O          18.9230  -26.2430  -41.1300 O.2       4 ALP1        0.0000 
     54 N          17.1655  -27.7540  -39.0840 N.am      2 SEC2        0.0000 
     55 N          16.6170  -26.5660  -38.6070 N.am      8 SEL2        0.0000 
     56 N          17.7140  -28.9420  -39.5610 N.am      5 SEP2        0.0000 
     57 CA         17.2990  -25.2210  -36.7960 C.3       3 GLC5        0.0000 
     58 CA         16.4660  -26.8040  -37.3180 C.3       9 GLL5        0.0000 
     59 CA         18.1320  -23.6380  -36.2740 C.3       6 GLP5        0.0000 
     60 CA         17.8450  -27.4195  -35.8320 C.3       3 GLC5        0.0000 
     61 CA         19.2240  -28.0350  -34.3460 C.3       6 GLP5        0.0000 
     62 CA         18.0030  -27.1935  -38.0430 C.3       3 GLC5        0.0000 
     63 CA         15.9130  -28.5075  -37.9030 C.3       3 GLC5        0.0000 
     64 CA         15.3600  -30.2110  -38.4880 C.3       6 GLP5        0.0000 
     65 CA         13.5415  -26.5880  -36.7385 C.3       3 GLC5        0.0000 
     66 CA         14.9400  -25.0210  -37.0380 C.3       9 GLL5        0.0000 
     67 CA         12.1430  -28.1550  -36.4390 C.3       6 GLP5        0.0000 
     68 CA          7.8160  -23.1700  -31.3525 C.3       3 GLC5        0.0000 
     69 CA          6.7980  -22.0560  -29.9860 C.3       6 GLP5        0.0000 
     70 CA         12.4917  -20.9860  -35.2610 C.3       3 GLC5        0.0000 
     71 CA         12.1370  -19.4810  -36.3010 C.3       6 GLP5        0.0000 
     72 CA         16.6781  -24.3649  -37.0968 C.3       3 GLC5        0.0000 
     73 CA         15.0880  -24.7690  -38.4110 C.3       9 GLL5        0.0000 
     74 CA         13.7966  -25.3554  -39.2332 C.3       3 GLC5        0.0000 
     75 CA         12.3690  -25.6190  -40.5470 C.3       6 GLP5        0.0000 
@<TRIPOS>BOND
@<TRIPOS>SUBSTRUCTURE
     1 ALC1        1 GROUP        1 X    ALC  0     ROOT ALC X 1
     2 SEC2       22 GROUP        1 X    SEC  0     **** SEC X 2
     3 GLC5        6 GROUP        1 X    GLC  0     **** GLC X 6
     4 ALP1        3 GROUP        1 Y    ALP  0     ROOT ALP Y 8
     5 SEP2       24 GROUP        1 Y    SEP  0     **** SEP Y 9
     6 GLP5        8 GROUP        1 Y    GLP  0     **** GLP Y 13
     7 ALL1        2 GROUP        1 Z    ALL  0     ROOT ALL Z 15
     8 SEL2       23 GROUP        1 Z    SEL  0     **** SEL Z 16
     9 GLL5        7 GROUP        1 Z    GLL  0     **** GLL Z 20
@<TRIPOS>SET

