#    Name: 3rod_SAH_5_ligand
#    Modification time : Mon Apr  7 20:33:29 2014

@<TRIPOS>MOLECULE
3rod_SAH_5_ligand
   46    48     1     0     0
SMALL
NO_CHARGES


@<TRIPOS>ATOM
      1 N           9.3010  -27.4320  -31.1420 N.4       1 SAH301      0.0000 
      2 CA          9.0980  -26.3830  -30.1490 C.3       1 SAH301      0.0000 
      3 CB          9.3500  -25.0310  -30.8280 C.3       1 SAH301      0.0000 
      4 CG          8.9290  -25.0960  -32.2960 C.3       1 SAH301      0.0000 
      5 SD          8.7390  -23.4720  -33.1420 S.3       1 SAH301      0.0000 
      6 C           7.6440  -26.4420  -29.6460 C.2       1 SAH301      0.0000 
      7 O           6.9640  -27.4820  -29.5750 O.co2     1 SAH301      0.0000 
      8 OXT         7.1230  -25.3830  -29.2860 O.co2     1 SAH301      0.0000 
      9 C5'         9.9720  -23.6050  -34.5120 C.3       1 SAH301      0.0000 
     10 C4'        11.4780  -23.8040  -34.1490 C.3       1 SAH301      0.0000 
     11 O4'        12.1470  -24.2120  -35.3650 O.3       1 SAH301      0.0000 
     12 C3'        12.2370  -22.5300  -33.7460 C.3       1 SAH301      0.0000 
     13 O3'        12.7010  -22.7130  -32.4010 O.3       1 SAH301      0.0000 
     14 C2'        13.4560  -22.4520  -34.6960 C.3       1 SAH301      0.0000 
     15 O2'        14.6580  -22.0600  -33.9580 O.3       1 SAH301      0.0000 
     16 C1'        13.5510  -23.8910  -35.1830 C.3       1 SAH301      0.0000 
     17 N9         14.0890  -24.0880  -36.5420 N.pl3     1 SAH301      0.0000 
     18 C8         13.7100  -23.3320  -37.5710 C.2       1 SAH301      0.0000 
     19 N7         14.3230  -23.7270  -38.7050 N.2       1 SAH301      0.0000 
     20 C5         15.0880  -24.7690  -38.4110 C.ar      1 SAH301      0.0000 
     21 C6         15.9290  -25.5560  -39.1910 C.ar      1 SAH301      0.0000 
     22 N6         16.0240  -25.2830  -40.4970 N.pl3     1 SAH301      0.0000 
     23 N1         16.6170  -26.5660  -38.6070 N.ar      1 SAH301      0.0000 
     24 C2         16.4660  -26.8040  -37.3180 C.ar      1 SAH301      0.0000 
     25 N3         15.6560  -26.0610  -36.5400 N.ar      1 SAH301      0.0000 
     26 C4         14.9400  -25.0210  -37.0380 C.ar      1 SAH301      0.0000 
     27 H           9.7572  -26.4897  -29.3287 H         1 SAH301      0.0000 
     28 H          10.4061  -24.7919  -30.7660 H         1 SAH301      0.0000 
     29 H           8.7740  -24.2643  -30.3213 H         1 SAH301      0.0000 
     30 H           7.9498  -25.5362  -32.4482 H         1 SAH301      0.0000 
     31 H           9.6530  -25.5902  -32.9343 H         1 SAH301      0.0000 
     32 H           9.7911  -22.6786  -35.0648 H         1 SAH301      0.0000 
     33 H           9.5665  -24.4360  -35.0963 H         1 SAH301      0.0000 
     34 H          11.5814  -24.5385  -33.4060 H         1 SAH301      0.0000 
     35 H          11.6308  -21.7029  -33.8821 H         1 SAH301      0.0000 
     36 H          13.2159  -21.8281  -35.4937 H         1 SAH301      0.0000 
     37 H          13.9680  -24.5074  -34.4753 H         1 SAH301      0.0000 
     38 H          13.0708  -22.5854  -37.5200 H         1 SAH301      0.0000 
     39 H          16.8783  -25.5520  -40.9418 H         1 SAH301      0.0000 
     40 H          15.2322  -24.8344  -40.9115 H         1 SAH301      0.0000 
     41 H          16.9967  -27.6069  -36.8673 H         1 SAH301      0.0000 
     42 H          10.2308  -27.4203  -31.5098 H         1 SAH301      0.0000 
     43 H           9.1495  -28.3423  -30.7568 H         1 SAH301      0.0000 
     44 H           8.6777  -27.3346  -31.9179 H         1 SAH301      0.0000 
     45 H          13.6854  -22.8672  -32.4857 H         1 SAH301      0.0000 
     46 H          14.7163  -22.7059  -33.1968 H         1 SAH301      0.0000 
@<TRIPOS>BOND
     1    2    1 1    
     2   42    1 1    
     3   43    1 1    
     4   44    1 1    
     5    3    2 1    
     6    6    2 1    
     7   27    2 1    
     8    4    3 1    
     9   28    3 1    
    10   29    3 1    
    11    5    4 1    
    12   30    4 1    
    13   31    4 1    
    14    9    5 1    
    15    7    6 ar   
    16    8    6 ar   
    17   10    9 1    
    18   32    9 1    
    19   33    9 1    
    20   11   10 1    
    21   12   10 1    
    22   34   10 1    
    23   16   11 1    
    24   13   12 1    
    25   14   12 1    
    26   35   12 1    
    27   45   13 1    
    28   15   14 1    
    29   16   14 1    
    30   36   14 1    
    31   46   15 1    
    32   17   16 1    
    33   37   16 1    
    34   18   17 1    
    35   26   17 1    
    36   19   18 2    
    37   38   18 1    
    38   20   19 1    
    39   21   20 ar   
    40   26   20 ar   
    41   22   21 1    
    42   23   21 ar   
    43   39   22 1    
    44   40   22 1    
    45   24   23 ar   
    46   25   24 ar   
    47   41   24 1    
    48   26   25 ar   
@<TRIPOS>SUBSTRUCTURE
     1 SAH301      1 GROUP   
@<TRIPOS>SET

