#    Name: 3CV6_2_CAVITY_N1_ALL.mol2
#    Modification time : Tue Mar 11 14:59:10 2014

@<TRIPOS>MOLECULE
3CV6_2_CAVITY_N1_ALL.mol2
   84     0     5     0     0
SMALL
NO_CHARGES


@<TRIPOS>ATOM
      1 CZ        -60.5982  -13.0694  -18.6621 C.ar      3 PHE5        0.0000 
      2 CZ        -61.5730  -13.1885  -17.5283 C.ar      3 PHE5        0.0000 
      3 CZ        -57.0408  -14.0095  -21.6557 C.ar      3 PHE5        0.0000 
      4 CA        -58.0156  -14.1286  -20.5219 C.3       4 GLY6        0.0000 
      5 DU        -58.9904  -14.2476  -19.3880 H         5 CUB7        0.0000 
      6 DU        -59.9653  -14.3667  -18.2542 H         5 CUB7        0.0000 
      7 CZ        -60.9401  -14.4858  -17.1204 C.ar      3 PHE5        0.0000 
      8 CA        -57.3827  -15.4259  -20.1140 C.3       4 GLY6        0.0000 
      9 DU        -58.3575  -15.5450  -18.9801 H         5 CUB7        0.0000 
     10 N         -59.3324  -15.6640  -17.8463 N.2       1 ALA2        0.0000 
     11 CA        -60.3072  -15.7831  -16.7125 C.3       4 GLY6        0.0000 
     12 N         -56.7498  -16.7232  -19.7061 N.2       1 ALA2        0.0000 
     13 CA        -57.7246  -16.8423  -18.5722 C.3       4 GLY6        0.0000 
     14 N         -56.1169  -18.0205  -19.2982 N.2       1 ALA2        0.0000 
     15 CZ        -58.3332  -10.7904  -20.4443 C.ar      3 PHE5        0.0000 
     16 CZ        -59.3080  -10.9095  -19.3105 C.ar      3 PHE5        0.0000 
     17 CZ        -60.2828  -11.0286  -18.1767 C.ar      3 PHE5        0.0000 
     18 CZ        -56.7255  -11.9687  -21.1702 C.ar      3 PHE5        0.0000 
     19 CZ        -57.7003  -12.0877  -20.0364 C.ar      3 PHE5        0.0000 
     20 DU        -58.6751  -12.2068  -18.9026 H         5 CUB7        0.0000 
     21 CZ        -59.6499  -12.3259  -17.7688 C.ar      3 PHE5        0.0000 
     22 CZ        -60.6247  -12.4450  -16.6350 C.ar      3 PHE5        0.0000 
     23 CZ        -56.0926  -13.2660  -20.7623 C.ar      3 PHE5        0.0000 
     24 DU        -57.0674  -13.3851  -19.6285 H         5 CUB7        0.0000 
     25 DU        -58.0422  -13.5041  -18.4947 H         5 CUB7        0.0000 
     26 CA        -59.0170  -13.6232  -17.3609 C.3       4 GLY6        0.0000 
     27 CA        -59.9918  -13.7423  -16.2271 C.3       4 GLY6        0.0000 
     28 CA        -56.4345  -14.6824  -19.2206 C.3       4 GLY6        0.0000 
     29 CZ        -57.4093  -14.8015  -18.0868 C.ar      3 PHE5        0.0000 
     30 CZ        -58.3841  -14.9206  -16.9530 C.ar      3 PHE5        0.0000 
     31 CA        -55.8016  -15.9797  -18.8127 C.3       4 GLY6        0.0000 
     32 CZ        -56.7764  -16.0988  -17.6789 C.ar      3 PHE5        0.0000 
     33 CZ        -58.9927   -8.8687  -18.8251 C.ar      3 PHE5        0.0000 
     34 CZ        -57.3849  -10.0469  -19.5510 C.ar      3 PHE5        0.0000 
     35 CZ        -58.3598  -10.1660  -18.4172 C.ar      3 PHE5        0.0000 
     36 CZ        -59.3346  -10.2851  -17.2833 C.ar      3 PHE5        0.0000 
     37 CZ        -60.3094  -10.4042  -16.1495 C.ar      3 PHE5        0.0000 
     38 CZ        -56.7520  -11.3443  -19.1431 C.ar      3 PHE5        0.0000 
     39 DU        -57.7269  -11.4633  -18.0093 H         5 CUB7        0.0000 
     40 DU        -58.7017  -11.5824  -16.8754 H         5 CUB7        0.0000 
     41 N         -59.6765  -11.7015  -15.7416 N.2       1 ALA2        0.0000 
     42 CZ        -55.1443  -12.5225  -19.8690 C.ar      3 PHE5        0.0000 
     43 CA        -56.1191  -12.6416  -18.7352 C.3       4 GLY6        0.0000 
     44 CZ        -57.0940  -12.7607  -17.6014 C.ar      3 PHE5        0.0000 
     45 CZ        -58.0688  -12.8797  -16.4675 C.ar      3 PHE5        0.0000 
     46 O         -59.5968  -13.5747  -21.8231 O.2       1 ALA2        0.0000 
     47 O         -60.5716  -13.6938  -20.6893 O.2       1 ALA2        0.0000 
     48 O         -61.5464  -13.8129  -19.5555 O.2       1 ALA2        0.0000 
     49 CA        -58.9639  -14.8720  -21.4152 C.3       4 GLY6        0.0000 
     50 CA        -59.9387  -14.9911  -20.2814 C.3       4 GLY6        0.0000 
     51 CZ        -60.9135  -15.1102  -19.1476 C.ar      3 PHE5        0.0000 
     52 CA        -58.3310  -16.1694  -21.0073 C.3       4 GLY6        0.0000 
     53 CA        -59.3058  -16.2884  -19.8735 C.3       4 GLY6        0.0000 
     54 N         -60.2806  -16.4075  -18.7397 N.2       1 ALA2        0.0000 
     55 CZ        -61.2554  -16.5266  -17.6059 C.ar      3 PHE5        0.0000 
     56 OD1       -57.6981  -17.4667  -20.5994 O.3       2 ASP3        0.0000 
     57 OD1       -58.6729  -17.5858  -19.4656 O.3       2 ASP3        0.0000 
     58 N         -59.6477  -17.7048  -18.3318 N.2       1 ALA2        0.0000 
     59 O         -58.6485  -12.8312  -20.9298 O.2       1 ALA2        0.0000 
     60 O         -59.6233  -12.9503  -19.7959 O.2       1 ALA2        0.0000 
     61 O         -63.1010  -13.8834  -22.8839 O.2       1 ALA2        0.0000 
     62 CA        -62.4681  -15.1808  -22.4760 C.3       4 GLY6        0.0000 
     63 CA        -61.8352  -16.4781  -22.0681 C.3       4 GLY6        0.0000 
     64 DU        -62.1771  -17.8945  -20.5264 H         5 CUB7        0.0000 
     65 CZ        -63.1519  -18.0136  -19.3926 C.ar      3 PHE5        0.0000 
     66 CA        -59.5945  -18.9537  -22.3861 C.3       4 GLY6        0.0000 
     67 DU        -61.5442  -19.1918  -20.1185 H         5 CUB7        0.0000 
     68 DU        -62.5190  -19.3109  -18.9847 H         5 CUB7        0.0000 
     69 OD1       -59.9364  -20.3701  -20.8444 O.3       2 ASP3        0.0000 
     70 O         -60.9113  -20.4891  -19.7106 O.2       1 ALA2        0.0000 
     71 CA        -60.5450  -14.3182  -22.7165 C.3       4 GLY6        0.0000 
     72 O         -61.5198  -14.4373  -21.5826 O.2       1 ALA2        0.0000 
     73 O         -62.4946  -14.5564  -20.4488 O.2       1 ALA2        0.0000 
     74 CA        -60.8869  -15.7346  -21.1747 C.3       4 GLY6        0.0000 
     75 CZ        -61.8617  -15.8537  -20.0409 C.ar      3 PHE5        0.0000 
     76 CA        -60.2540  -17.0319  -20.7668 C.3       4 GLY6        0.0000 
     77 CZ        -61.2288  -17.1510  -19.6330 C.ar      3 PHE5        0.0000 
     78 CZ        -62.2037  -17.2701  -18.4992 C.ar      3 PHE5        0.0000 
     79 CA        -58.6463  -18.2102  -21.4928 C.3       4 GLY6        0.0000 
     80 OD1       -59.6211  -18.3293  -20.3589 O.3       2 ASP3        0.0000 
     81 N         -60.5959  -18.4483  -19.2251 N.2       1 ALA2        0.0000 
     82 N         -61.5708  -18.5674  -18.0913 N.2       1 ALA2        0.0000 
     83 CZ        -58.3863   -9.5416  -16.3900 C.ar      3 PHE5        0.0000 
     84 CZ        -56.7786  -10.7199  -17.1159 C.ar      3 PHE5        0.0000 
@<TRIPOS>BOND
@<TRIPOS>SUBSTRUCTURE
     1 ALA2       10 GROUP   
     2 ASP3       56 GROUP   
     3 PHE5        1 GROUP   
     4 GLY6        4 GROUP   
     5 CUB7        5 GROUP   
@<TRIPOS>SET

