#    Name: 3cv6_HXS_2_INTS_M
#    Modification time : Mon Mar 24 22:21:31 2014

@<TRIPOS>MOLECULE
3cv6_HXS_2_INTS_M
   49     0     9     0     0
SMALL
NO_CHARGES


@<TRIPOS>ATOM
      1 N         -53.7895  -17.3345  -20.1135 N.am      2 SEC2        0.0000 
      2 N         -54.8670  -18.0700  -19.6060 N.am      8 SEL2        0.0000 
      3 N         -52.7120  -16.5990  -20.6210 N.am      5 SEP2        0.0000 
      4 O         -55.5560  -18.9795  -18.4095 O.2       1 ALC1        0.0000 
      5 O         -54.8670  -18.0700  -19.6060 O.2       7 ALL1        0.0000 
      6 O         -56.2450  -19.8890  -17.2130 O.2       4 ALP1        0.0000 
      7 CA        -62.0980  -14.5875  -18.1825 C.3       3 GLC5        0.0000 
      8 CA        -60.2950  -14.7940  -18.9500 C.3       9 GLL5        0.0000 
      9 CA        -63.9010  -14.3810  -17.4150 C.3       6 GLP5        0.0000 
     10 CA        -59.6820  -16.3720  -21.3820 C.3       3 GLC5        0.0000 
     11 CA        -60.3860  -16.2880  -19.2660 C.3       9 GLL5        0.0000 
     12 CA        -58.9780  -16.4560  -23.4980 C.3       6 GLP5        0.0000 
     13 CA        -62.2865  -16.0030  -18.4460 C.3       3 GLC5        0.0000 
     14 CA        -64.1870  -15.7180  -17.6260 C.3       6 GLP5        0.0000 
     15 CA        -60.5520  -11.7060  -19.7525 C.3       3 GLC5        0.0000 
     16 CA        -58.8830  -12.7130  -19.2510 C.3       9 GLL5        0.0000 
     17 CA        -62.2210  -10.6990  -20.2540 C.3       6 GLP5        0.0000 
     18 CA        -57.2490  -11.6285  -22.0180 C.3       3 GLC5        0.0000 
     19 CA        -57.9150  -12.2310  -20.3300 C.3       9 GLL5        0.0000 
     20 CA        -56.5830  -11.0260  -23.7060 C.3       6 GLP5        0.0000 
     21 CA        -59.6055  -11.5515  -21.3045 C.3       3 GLC5        0.0000 
     22 CA        -61.2960  -10.8720  -22.2790 C.3       6 GLP5        0.0000 
     23 CA        -57.1590  -10.3135  -21.7750 C.3       3 GLC5        0.0000 
     24 CA        -58.1350  -10.7400  -20.5290 C.3       9 GLL5        0.0000 
     25 CA        -56.1830   -9.8870  -23.0210 C.3       6 GLP5        0.0000 
     26 CA        -59.6715  -10.1445  -21.2420 C.3       3 GLC5        0.0000 
     27 CA        -61.2080   -9.5490  -21.9550 C.3       6 GLP5        0.0000 
     28 CA        -58.6465  -10.0985  -13.8390 C.3       3 GLC5        0.0000 
     29 CA        -58.6510  -10.0120  -15.9710 C.3       9 GLL5        0.0000 
     30 CA        -58.6420  -10.1850  -11.7070 C.3       6 GLP5        0.0000 
     31 N         -58.3640   -9.9745  -13.8625 N.am      2 SEC2        0.0000 
     32 N         -58.6570   -9.1250  -14.9440 N.am      8 SEL2        0.0000 
     33 N         -58.0710  -10.8240  -12.7810 N.am      5 SEP2        0.0000 
     34 O         -59.7070   -8.0040  -15.2465 O.2       1 ALC1        0.0000 
     35 O         -58.6570   -9.1250  -14.9440 O.2       7 ALL1        0.0000 
     36 O         -60.7570   -6.8830  -15.5490 O.2       4 ALP1        0.0000 
     37 CA        -54.8645  -14.8462  -19.3343 C.3       3 GLC5        0.0000 
     38 CA        -56.9120  -15.0340  -20.2500 C.3       9 GLL5        0.0000 
     39 CA        -53.3090  -14.1700  -18.3270 C.3       6 GLP5        0.0000 
     40 CA        -54.0970  -16.7622  -20.9780 C.3       3 GLC5        0.0000 
     41 CA        -55.9280  -16.0110  -20.4330 C.3       9 GLL5        0.0000 
     42 CA        -52.3330  -16.9850  -21.9770 C.3       6 GLP5        0.0000 
     43 CA        -57.6990  -15.9893  -21.9198 C.3       3 GLC5        0.0000 
     44 CA        -54.3753  -16.2773  -18.7312 C.3       3 GLC5        0.0000 
     45 CA        -55.7940  -17.0680  -19.5250 C.3       9 GLL5        0.0000 
     46 CA        -52.5220  -15.4570  -18.4720 C.3       6 GLP5        0.0000 
     47 CA        -56.7176  -17.3646  -17.1464 C.3       3 GLC5        0.0000 
     48 CA        -57.6340  -16.1630  -18.2610 C.3       9 GLL5        0.0000 
     49 CA        -56.5040  -18.0990  -15.6670 C.3       6 GLP5        0.0000 
@<TRIPOS>BOND
@<TRIPOS>SUBSTRUCTURE
     1 ALC1        4 GROUP        1 X    ALC  0     ROOT ALC X 1
     2 SEC2        1 GROUP        1 X    SEC  0     **** SEC X 2
     3 GLC5        7 GROUP        1 X    GLC  0     **** GLC X 6
     4 ALP1        6 GROUP        1 Y    ALP  0     ROOT ALP Y 8
     5 SEP2        3 GROUP        1 Y    SEP  0     **** SEP Y 9
     6 GLP5        9 GROUP        1 Y    GLP  0     **** GLP Y 13
     7 ALL1        5 GROUP        1 Z    ALL  0     ROOT ALL Z 15
     8 SEL2        2 GROUP        1 Z    SEL  0     **** SEL Z 16
     9 GLL5        8 GROUP        1 Z    GLL  0     **** GLL Z 20
@<TRIPOS>SET

