#    Name: 3cv6_HXS_2_ligand
#    Modification time : Mon Mar 24 22:21:31 2014

@<TRIPOS>MOLECULE
3cv6_HXS_2_ligand
   42    43     1     0     0
SMALL
NO_CHARGES


@<TRIPOS>ATOM
      1 C1        -55.9280  -16.0110  -20.4330 C.ar      1 HXS351      0.0000 
      2 C2        -55.7940  -17.0680  -19.5250 C.ar      1 HXS351      0.0000 
      3 C3        -56.6630  -17.1270  -18.4560 C.ar      1 HXS351      0.0000 
      4 C4        -57.6340  -16.1630  -18.2610 C.ar      1 HXS351      0.0000 
      5 C5        -57.7780  -15.1110  -19.1480 C.ar      1 HXS351      0.0000 
      6 O16       -54.8670  -18.0700  -19.6060 O.3       1 HXS351      0.0000 
      7 C         -56.9120  -15.0340  -20.2500 C.ar      1 HXS351      0.0000 
      8 C7        -58.8850  -14.1840  -18.7610 C.3       1 HXS351      0.0000 
      9 C17       -60.2950  -14.7940  -18.9500 C.3       1 HXS351      0.0000 
     10 C18       -60.3860  -16.2880  -19.2660 C.3       1 HXS351      0.0000 
     11 C8        -58.8830  -12.7130  -19.2510 C.3       1 HXS351      0.0000 
     12 C19       -57.9150  -12.2310  -20.3300 C.3       1 HXS351      0.0000 
     13 C20       -58.1350  -10.7400  -20.5290 C.3       1 HXS351      0.0000 
     14 C9        -58.7340  -11.7940  -18.0930 C.ar      1 HXS351      0.0000 
     15 C14       -57.5180  -11.5990  -17.4170 C.ar      1 HXS351      0.0000 
     16 C13       -57.4900  -10.7090  -16.3420 C.ar      1 HXS351      0.0000 
     17 C12       -58.6510  -10.0120  -15.9710 C.ar      1 HXS351      0.0000 
     18 O15       -58.6570   -9.1250  -14.9440 O.3       1 HXS351      0.0000 
     19 C11       -59.8410  -10.2090  -16.6500 C.ar      1 HXS351      0.0000 
     20 C10       -59.8780  -11.1010  -17.7110 C.ar      1 HXS351      0.0000 
     21 H         -55.2954  -15.9526  -21.2438 H         1 HXS351      0.0000 
     22 H         -56.5870  -17.9156  -17.7792 H         1 HXS351      0.0000 
     23 H         -58.2631  -16.2285  -17.4394 H         1 HXS351      0.0000 
     24 H         -57.0023  -14.2628  -20.9177 H         1 HXS351      0.0000 
     25 H         -58.8219  -14.0808  -17.5927 H         1 HXS351      0.0000 
     26 H         -60.8122  -14.2243  -19.7596 H         1 HXS351      0.0000 
     27 H         -60.8879  -14.5862  -18.0266 H         1 HXS351      0.0000 
     28 H         -59.9283  -12.5052  -19.6455 H         1 HXS351      0.0000 
     29 H         -58.1160  -12.7541  -21.2510 H         1 HXS351      0.0000 
     30 H         -56.9018  -12.4090  -20.0075 H         1 HXS351      0.0000 
     31 H         -56.6823  -12.0952  -17.7065 H         1 HXS351      0.0000 
     32 H         -56.6192  -10.5610  -15.8185 H         1 HXS351      0.0000 
     33 H         -60.6872   -9.7010  -16.3721 H         1 HXS351      0.0000 
     34 H         -60.7618  -11.2535  -18.2233 H         1 HXS351      0.0000 
     35 H         -59.9079  -16.5181  -20.1137 H         1 HXS351      0.0000 
     36 H         -59.9824  -16.8462  -18.5411 H         1 HXS351      0.0000 
     37 H         -61.3339  -16.5878  -19.3734 H         1 HXS351      0.0000 
     38 H         -57.9704  -10.2248  -19.6879 H         1 HXS351      0.0000 
     39 H         -57.5251  -10.3645  -21.2269 H         1 HXS351      0.0000 
     40 H         -59.0708  -10.5380  -20.8181 H         1 HXS351      0.0000 
     41 H         -55.1261  -18.7205  -18.8920 H         1 HXS351      0.0000 
     42 H         -59.3856   -8.4771  -15.1660 H         1 HXS351      0.0000 
@<TRIPOS>BOND
     1    2    1 ar   
     2    7    1 ar   
     3   21    1 1    
     4    3    2 ar   
     5    6    2 1    
     6    4    3 ar   
     7   22    3 1    
     8    5    4 ar   
     9   23    4 1    
    10    7    5 ar   
    11    8    5 1    
    12   41    6 1    
    13   24    7 1    
    14    9    8 1    
    15   11    8 1    
    16   25    8 1    
    17   10    9 1    
    18   26    9 1    
    19   27    9 1    
    20   35   10 1    
    21   36   10 1    
    22   37   10 1    
    23   12   11 1    
    24   14   11 1    
    25   28   11 1    
    26   13   12 1    
    27   29   12 1    
    28   30   12 1    
    29   38   13 1    
    30   39   13 1    
    31   40   13 1    
    32   15   14 ar   
    33   20   14 ar   
    34   16   15 ar   
    35   31   15 1    
    36   17   16 ar   
    37   32   16 1    
    38   18   17 1    
    39   19   17 ar   
    40   42   18 1    
    41   20   19 ar   
    42   33   19 1    
    43   34   20 1    
@<TRIPOS>SUBSTRUCTURE
     1 HXS351      1 GROUP   
@<TRIPOS>SET

