#    Name: 3slk_NDP_3_INTS_M
#    Modification time : Mon Mar 24 17:53:35 2014

@<TRIPOS>MOLECULE
3slk_NDP_3_INTS_M
   78     0    12     0     0
SMALL
NO_CHARGES


@<TRIPOS>ATOM
      1 N          12.3610   40.1130  -25.4815 N.am      2 SEC2        0.0000 
      2 N          12.1140   41.4430  -26.1210 N.am     10 SEL2        0.0000 
      3 N          12.6080   38.7830  -24.8420 N.am      6 SEP2        0.0000 
      4 N          12.8270   42.7220  -25.4725 N.am      2 SEC2        0.0000 
      5 N          13.5400   44.0010  -24.8240 N.am      6 SEP2        0.0000 
      6 N          13.5710   43.4870  -26.1640 N.am      2 SEC2        0.0000 
      7 N          13.6020   42.9730  -27.5040 N.am     10 SEL2        0.0000 
      8 CA         12.6820   44.8355  -29.3990 C.3       4 GLC5        0.0000 
      9 CA         14.0950   43.4870  -28.7390 C.3      12 GLL5        0.0000 
     10 CA         11.2690   46.1840  -30.0590 C.3       8 GLP5        0.0000 
     11 CA         16.1765   41.3050  -28.9665 C.3       4 GLC5        0.0000 
     12 CA         15.5750   43.1660  -28.8180 C.3      12 GLL5        0.0000 
     13 CA         16.7780   39.4440  -29.1150 C.3       8 GLP5        0.0000 
     14 CA         17.1565   41.4085  -29.5605 C.3       4 GLC5        0.0000 
     15 CA         17.5350   43.3730  -30.0060 C.3      12 GLL5        0.0000 
     16 CA         17.3755   47.4250  -29.0670 C.3       4 GLC5        0.0000 
     17 CA         17.1870   47.7170  -31.0830 C.3      12 GLL5        0.0000 
     18 CA         17.5640   47.1330  -27.0510 C.3       8 GLP5        0.0000 
     19 N           8.3715   42.7655  -28.6465 N.am      2 SEC2        0.0000 
     20 N           9.0680   41.3310  -28.6860 N.am     10 SEL2        0.0000 
     21 N           7.6750   44.2000  -28.6070 N.am      6 SEP2        0.0000 
     22 N          11.1125   38.3990  -27.1705 N.am      2 SEC2        0.0000 
     23 N          10.9580   39.8560  -27.6380 N.am     10 SEL2        0.0000 
     24 N          11.2670   36.9420  -26.7030 N.am      6 SEP2        0.0000 
     25 CA         10.5450   42.7650  -30.6565 C.3       4 GLC5        0.0000 
     26 CA         11.6290   41.0670  -31.0390 C.3      12 GLL5        0.0000 
     27 CA          9.4610   44.4630  -30.2740 C.3       8 GLP5        0.0000 
     28 CA         12.6450   39.9420  -33.3275 C.3       4 GLC5        0.0000 
     29 CA         11.0570   40.8280  -32.4250 C.3      12 GLL5        0.0000 
     30 CA         14.2330   39.0560  -34.2300 C.3       8 GLP5        0.0000 
     31 CA          9.6520   38.4785  -34.3790 C.3       4 GLC5        0.0000 
     32 CA          9.0670   39.9230  -33.2180 C.3      12 GLL5        0.0000 
     33 CA         10.2370   37.0340  -35.5400 C.3       8 GLP5        0.0000 
     34 N           3.2800   35.6965  -34.8565 N.am      2 SEC2        0.0000 
     35 N           4.2430   36.6610  -34.6600 N.am     10 SEL2        0.0000 
     36 N           2.3170   34.7320  -35.0530 N.am      6 SEP2        0.0000 
     37 O           5.5515   36.9910  -37.2900 O.2       1 ALC1        0.0000 
     38 O           5.5480   37.7260  -36.1270 O.2       9 ALL1        0.0000 
     39 O           5.5550   36.2560  -38.4530 O.2       5 ALP1        0.0000 
     40 CA          5.5360   37.8850  -29.6940 C.3       4 GLC5        0.0000 
     41 CA          6.5260   37.8760  -31.3970 C.3      12 GLL5        0.0000 
     42 CA          4.5460   37.8940  -27.9910 C.3       8 GLP5        0.0000 
     43 NZ         20.9765   44.0430  -29.5465 N.4       3 LYC4        0.0000 
     44 NZ         20.3810   43.0740  -29.2640 N.4      11 LYL4        0.0000 
     45 NZ         21.8270   46.1060  -29.1230 N.4       7 LYP4        0.0000 
     46 N          21.6150   42.1695  -29.4250 N.am      2 SEC2        0.0000 
     47 N          20.3810   43.0740  -29.2640 N.am     10 SEL2        0.0000 
     48 N          22.8490   41.2650  -29.5860 N.am      6 SEP2        0.0000 
     49 N          20.9765   44.0430  -29.5465 N.am      2 SEC2        0.0000 
     50 N          21.5720   45.0120  -29.8290 N.am      6 SEP2        0.0000 
     51 NZ         19.7435   42.9555  -25.7905 N.4       3 LYC4        0.0000 
     52 NZ         20.2550   41.6670  -27.1330 N.4      11 LYL4        0.0000 
     53 NZ         19.2320   44.2440  -24.4480 N.4       7 LYP4        0.0000 
     54 N          21.7755   41.5465  -26.9380 N.am      2 SEC2        0.0000 
     55 N          20.2550   41.6670  -27.1330 N.am     10 SEL2        0.0000 
     56 N          23.2960   41.4260  -26.7430 N.am      6 SEP2        0.0000 
     57 NZ         19.7565   44.2295  -25.7265 N.4       3 LYC4        0.0000 
     58 NZ         20.2810   44.2150  -27.0050 N.4      11 LYL4        0.0000 
     59 NZ         21.0540   45.1605  -28.0640 N.4       3 LYC4        0.0000 
     60 N          21.4885   44.1345  -26.3785 N.am      2 SEC2        0.0000 
     61 N          20.2810   44.2150  -27.0050 N.am     10 SEL2        0.0000 
     62 N          22.6960   44.0540  -25.7520 N.am      6 SEP2        0.0000 
     63 N          19.7565   44.2295  -25.7265 N.am      2 SEC2        0.0000 
     64 N          19.2320   44.2440  -24.4480 N.am      6 SEP2        0.0000 
     65 CA         17.3242   45.5998  -27.6908 C.3       4 GLC5        0.0000 
     66 CA         17.7660   43.9830  -28.6340 C.3      12 GLL5        0.0000 
     67 CA          9.4660   43.0782  -31.6055 C.3       4 GLC5        0.0000 
     68 CA         10.1690   41.9920  -32.8670 C.3      12 GLL5        0.0000 
     69 CA          7.7060   36.9030  -33.9778 C.3       4 GLC5        0.0000 
     70 CA          7.1510   38.6490  -33.9470 C.3      12 GLL5        0.0000 
     71 CA          8.8110   35.5680  -34.1150 C.3       8 GLP5        0.0000 
     72 CA          6.7628   35.7490  -31.8048 C.3       4 GLC5        0.0000 
     73 CA          5.7310   37.4360  -32.4440 C.3      12 GLL5        0.0000 
     74 CA          7.3970   33.8420  -31.6890 C.3       8 GLP5        0.0000 
     75 CA          8.2910   37.6450  -30.3930 C.3       4 GLC5        0.0000 
     76 CA          9.5090   37.0020  -29.2570 C.3       8 GLP5        0.0000 
     77 CA          7.8426   36.8730  -32.9529 C.3       4 GLC5        0.0000 
     78 CA          7.6200   38.7000  -31.6610 C.3      12 GLL5        0.0000 
@<TRIPOS>BOND
@<TRIPOS>SUBSTRUCTURE
     1 ALC1       37 GROUP        1 X    ALC  0     ROOT ALC X 1
     2 SEC2        1 GROUP        1 X    SEC  0     **** SEC X 2
     3 LYC4       43 GROUP        1 X    LYC  0     **** LYC X 4
     4 GLC5        8 GROUP        1 X    GLC  0     **** GLC X 6
     5 ALP1       39 GROUP        1 Y    ALP  0     ROOT ALP Y 8
     6 SEP2        3 GROUP        1 Y    SEP  0     **** SEP Y 9
     7 LYP4       45 GROUP        1 Y    LYP  0     **** LYP Y 11
     8 GLP5       10 GROUP        1 Y    GLP  0     **** GLP Y 13
     9 ALL1       38 GROUP        1 Z    ALL  0     ROOT ALL Z 15
    10 SEL2        2 GROUP        1 Z    SEL  0     **** SEL Z 16
    11 LYL4       44 GROUP        1 Z    LYL  0     **** LYL Z 18
    12 GLL5        9 GROUP        1 Z    GLL  0     **** GLL Z 20
@<TRIPOS>SET

