#    Name: 3slk_NDP_3_ligand
#    Modification time : Mon Mar 24 17:53:35 2014

@<TRIPOS>MOLECULE
3slk_NDP_3_ligand
   74    78     1     0     0
SMALL
NO_CHARGES


@<TRIPOS>ATOM
      1 PA         12.6970   41.6530  -27.4970 P.3       1 NDP801      0.0000 
      2 O1A        13.4330   40.5180  -28.1690 O.co2     1 NDP801      0.0000 
      3 O2A        12.1140   41.4430  -26.1210 O.co2     1 NDP801      0.0000 
      4 O5B        13.6020   42.9730  -27.5040 O.3       1 NDP801      0.0000 
      5 C5B        14.0950   43.4870  -28.7390 C.3       1 NDP801      0.0000 
      6 C4B        15.5750   43.1660  -28.8180 C.3       1 NDP801      0.0000 
      7 O4B        16.1120   43.2310  -30.1470 O.3       1 NDP801      0.0000 
      8 C3B        16.4030   44.1500  -28.0270 C.3       1 NDP801      0.0000 
      9 O3B        16.4470   43.7760  -26.6450 O.3       1 NDP801      0.0000 
     10 C2B        17.7660   43.9830  -28.6340 C.3       1 NDP801      0.0000 
     11 O2B        18.3980   42.9940  -27.8670 O.3       1 NDP801      0.0000 
     12 C1B        17.5350   43.3730  -30.0060 C.3       1 NDP801      0.0000 
     13 N9A        18.1720   44.2090  -31.0610 N.pl3     1 NDP801      0.0000 
     14 C8A        19.1180   43.7870  -31.9210 C.2       1 NDP801      0.0000 
     15 N7A        19.5100   44.8290  -32.6860 N.2       1 NDP801      0.0000 
     16 C5A        18.8270   45.9160  -32.2760 C.ar      1 NDP801      0.0000 
     17 C6A        18.8170   47.2400  -32.6800 C.ar      1 NDP801      0.0000 
     18 N6A        19.6170   47.6460  -33.6860 N.pl3     1 NDP801      0.0000 
     19 N1A        17.9990   48.1220  -32.0680 N.ar      1 NDP801      0.0000 
     20 C2A        17.1870   47.7170  -31.0830 C.ar      1 NDP801      0.0000 
     21 N3A        17.1860   46.4400  -30.6650 N.ar      1 NDP801      0.0000 
     22 C4A        18.0030   45.5250  -31.2420 C.ar      1 NDP801      0.0000 
     23 O3         11.4920   42.0520  -28.4670 O.3       1 NDP801      0.0000 
     24 PN         10.4920   40.8410  -28.6740 P.3       1 NDP801      0.0000 
     25 O1N         9.0680   41.3310  -28.6860 O.co2     1 NDP801      0.0000 
     26 O2N        10.9580   39.8560  -27.6380 O.co2     1 NDP801      0.0000 
     27 O5D        10.8920   40.2740  -30.1220 O.3       1 NDP801      0.0000 
     28 C5D        11.6290   41.0670  -31.0390 C.3       1 NDP801      0.0000 
     29 C4D        11.0570   40.8280  -32.4250 C.3       1 NDP801      0.0000 
     30 O4D        10.2270   39.6510  -32.4170 O.3       1 NDP801      0.0000 
     31 C3D        10.1690   41.9920  -32.8670 C.3       1 NDP801      0.0000 
     32 O3D        10.6390   42.4340  -34.1440 O.3       1 NDP801      0.0000 
     33 C2D         8.7730   41.3950  -33.0070 C.3       1 NDP801      0.0000 
     34 O2D         8.0390   41.9340  -34.1240 O.3       1 NDP801      0.0000 
     35 C1D         9.0670   39.9230  -33.2180 C.3       1 NDP801      0.0000 
     36 N1N         7.9090   39.0680  -32.9200 N.pl3     1 NDP801      0.0000 
     37 C2N         7.1510   38.6490  -33.9470 C.2       1 NDP801      0.0000 
     38 C3N         6.0510   37.8270  -33.7340 C.2       1 NDP801      0.0000 
     39 C7N         5.2150   37.3610  -34.8880 C.2       1 NDP801      0.0000 
     40 O7N         4.2430   36.6610  -34.6600 O.2       1 NDP801      0.0000 
     41 N7N         5.5480   37.7260  -36.1270 N.am      1 NDP801      0.0000 
     42 C4N         5.7310   37.4360  -32.4440 C.3       1 NDP801      0.0000 
     43 C5N         6.5260   37.8760  -31.3970 C.2       1 NDP801      0.0000 
     44 C6N         7.6200   38.7000  -31.6610 C.2       1 NDP801      0.0000 
     45 P2B        19.9760   42.9830  -27.8120 P.3       1 NDP801      0.0000 
     46 O1X        20.3810   43.0740  -29.2640 O.co2     1 NDP801      0.0000 
     47 O2X        20.2550   41.6670  -27.1330 O.co2     1 NDP801      0.0000 
     48 O3X        20.2810   44.2150  -27.0050 O.co2     1 NDP801      0.0000 
     49 H          13.9778   44.5685  -28.8043 H         1 NDP801      0.0000 
     50 H          13.6015   43.0283  -29.5955 H         1 NDP801      0.0000 
     51 H          15.7536   42.1828  -28.3929 H         1 NDP801      0.0000 
     52 H          16.0582   45.1189  -28.2027 H         1 NDP801      0.0000 
     53 H          18.2593   44.8696  -28.7019 H         1 NDP801      0.0000 
     54 H          18.0069   42.3881  -29.9895 H         1 NDP801      0.0000 
     55 H          19.4632   42.8836  -31.9831 H         1 NDP801      0.0000 
     56 H          20.1540   46.9327  -34.1364 H         1 NDP801      0.0000 
     57 H          19.6023   48.6244  -33.8924 H         1 NDP801      0.0000 
     58 H          16.5382   48.4089  -30.6276 H         1 NDP801      0.0000 
     59 H          12.6851   40.7958  -31.0586 H         1 NDP801      0.0000 
     60 H          11.5459   42.1318  -30.8188 H         1 NDP801      0.0000 
     61 H          11.8558   40.7264  -33.1299 H         1 NDP801      0.0000 
     62 H          10.1723   42.7271  -32.1319 H         1 NDP801      0.0000 
     63 H           8.2703   41.4995  -32.0767 H         1 NDP801      0.0000 
     64 H           9.3400   39.8193  -34.2820 H         1 NDP801      0.0000 
     65 H           7.3744   38.9333  -34.9252 H         1 NDP801      0.0000 
     66 H           6.3896   38.2585  -36.2177 H         1 NDP801      0.0000 
     67 H           4.9261   37.4343  -36.8538 H         1 NDP801      0.0000 
     68 H           5.6605   36.2842  -32.4053 H         1 NDP801      0.0000 
     69 H           4.6323   37.7162  -32.2263 H         1 NDP801      0.0000 
     70 H           6.3141   37.5993  -30.4323 H         1 NDP801      0.0000 
     71 H           8.2021   39.0196  -30.8614 H         1 NDP801      0.0000 
     72 H          15.5611   43.3488  -26.4643 H         1 NDP801      0.0000 
     73 H           9.8448   42.3697  -34.7483 H         1 NDP801      0.0000 
     74 H           7.6994   41.1350  -34.6201 H         1 NDP801      0.0000 
@<TRIPOS>BOND
     1    2    1 ar   
     2    3    1 ar   
     3    4    1 1    
     4   23    1 1    
     5    5    4 1    
     6    6    5 1    
     7   49    5 1    
     8   50    5 1    
     9    7    6 1    
    10    8    6 1    
    11   51    6 1    
    12   12    7 1    
    13    9    8 1    
    14   10    8 1    
    15   52    8 1    
    16   72    9 1    
    17   11   10 1    
    18   12   10 1    
    19   53   10 1    
    20   45   11 1    
    21   13   12 1    
    22   54   12 1    
    23   14   13 1    
    24   22   13 1    
    25   15   14 2    
    26   55   14 1    
    27   16   15 1    
    28   17   16 ar   
    29   22   16 ar   
    30   18   17 1    
    31   19   17 ar   
    32   56   18 1    
    33   57   18 1    
    34   20   19 ar   
    35   21   20 ar   
    36   58   20 1    
    37   22   21 ar   
    38   24   23 1    
    39   25   24 ar   
    40   26   24 ar   
    41   27   24 1    
    42   28   27 1    
    43   29   28 1    
    44   59   28 1    
    45   60   28 1    
    46   30   29 1    
    47   31   29 1    
    48   61   29 1    
    49   35   30 1    
    50   32   31 1    
    51   33   31 1    
    52   62   31 1    
    53   73   32 1    
    54   34   33 1    
    55   35   33 1    
    56   63   33 1    
    57   74   34 1    
    58   36   35 1    
    59   64   35 1    
    60   37   36 1    
    61   44   36 1    
    62   38   37 2    
    63   65   37 1    
    64   39   38 1    
    65   42   38 1    
    66   40   39 2    
    67   41   39 am   
    68   66   41 1    
    69   67   41 1    
    70   43   42 1    
    71   68   42 1    
    72   69   42 1    
    73   44   43 2    
    74   70   43 1    
    75   71   44 1    
    76   46   45 ar   
    77   47   45 ar   
    78   48   45 ar   
@<TRIPOS>SUBSTRUCTURE
     1 NDP801      1 GROUP   
@<TRIPOS>SET

