#    Name: 1MUE_1_CAVITY_N1_ALL.mol2
#    Modification time : Mon Mar 10 17:36:48 2014

@<TRIPOS>MOLECULE
1MUE_1_CAVITY_N1_ALL.mol2
   95     0     7     0     0
SMALL
NO_CHARGES


@<TRIPOS>ATOM
      1 OG         20.7649  -16.5231   22.3606 O.2       1 SER1        0.0000 
      2 OG         21.5637  -14.6117   22.8171 O.2       1 SER1        0.0000 
      3 DU         19.5240  -15.0328   23.2204 H         7 CUB7        0.0000 
      4 OG         20.4035  -15.1107   22.0077 O.2       1 SER1        0.0000 
      5 N          17.4844  -15.4538   23.6236 N.2       2 ALA2        0.0000 
      6 DU         18.3639  -15.5318   22.4110 H         7 CUB7        0.0000 
      7 CZ         19.2434  -15.6097   21.1984 C.ar      5 PHE5        0.0000 
      8 CZ         20.1229  -15.6876   19.9858 C.ar      5 PHE5        0.0000 
      9 N          16.3242  -15.9528   22.8142 N.2       2 ALA2        0.0000 
     10 DU         17.2037  -16.0307   21.6016 H         7 CUB7        0.0000 
     11 CZ         18.0832  -16.1086   20.3890 C.ar      5 PHE5        0.0000 
     12 N          15.1641  -16.4518   22.0048 N.2       2 ALA2        0.0000 
     13 O          13.1245  -16.8728   22.4080 O.2       2 ALA2        0.0000 
     14 CA         11.9643  -17.3718   21.5986 C.3       6 GLY6        0.0000 
     15 N          10.5235  -18.4476   18.7673 N.2       2 ALA2        0.0000 
     16 CA         19.1627  -13.6204   22.8675 C.3       6 GLY6        0.0000 
     17 CA         20.0422  -13.6983   21.6549 C.3       6 GLY6        0.0000 
     18 CZ         20.9217  -13.7762   20.4423 C.ar      5 PHE5        0.0000 
     19 CA         17.1231  -14.0414   23.2708 C.3       6 GLY6        0.0000 
     20 CA         18.0026  -14.1193   22.0581 C.3       6 GLY6        0.0000 
     21 CZ         18.8821  -14.1972   20.8455 C.ar      5 PHE5        0.0000 
     22 CZ         19.7616  -14.2751   19.6329 C.ar      5 PHE5        0.0000 
     23 CZ         20.6411  -14.3531   18.4203 C.ar      5 PHE5        0.0000 
     24 N          15.9629  -14.5404   22.4614 N.2       2 ALA2        0.0000 
     25 DU         16.8424  -14.6183   21.2488 H         7 CUB7        0.0000 
     26 CZ         17.7219  -14.6962   20.0362 C.ar      5 PHE5        0.0000 
     27 N          14.8028  -15.0393   21.6520 N.2       2 ALA2        0.0000 
     28 DU         15.6823  -15.1173   20.4394 H         7 CUB7        0.0000 
     29 CZ         16.5618  -15.1952   19.2268 C.ar      5 PHE5        0.0000 
     30 N          12.7631  -15.4604   22.0552 N.2       2 ALA2        0.0000 
     31 DU         13.6426  -15.5383   20.8426 H         7 CUB7        0.0000 
     32 DU         14.5221  -15.6162   19.6300 H         7 CUB7        0.0000 
     33 CA         11.6030  -15.9594   21.2458 C.3       6 GLY6        0.0000 
     34 DU         12.4825  -16.0373   20.0332 H         7 CUB7        0.0000 
     35 CA         10.4429  -16.4583   20.4364 C.3       6 GLY6        0.0000 
     36 CA         11.3224  -16.5362   19.2238 C.3       6 GLY6        0.0000 
     37 CA         12.2019  -16.6142   18.0112 C.3       6 GLY6        0.0000 
     38 CA         19.6809  -12.2858   21.3021 C.3       6 GLY6        0.0000 
     39 CA         20.5604  -12.3638   20.0895 C.3       6 GLY6        0.0000 
     40 CA         17.6412  -12.7069   21.7053 C.3       6 GLY6        0.0000 
     41 CA         18.5207  -12.7848   20.4927 C.3       6 GLY6        0.0000 
     42 CA         19.4002  -12.8627   19.2801 C.3       6 GLY6        0.0000 
     43 CZ         20.2797  -12.9406   18.0675 C.ar      5 PHE5        0.0000 
     44 O          15.6016  -13.1279   22.1085 O.2       2 ALA2        0.0000 
     45 DU         16.4811  -13.2059   20.8959 H         7 CUB7        0.0000 
     46 N          17.3606  -13.2838   19.6833 N.2       2 ALA2        0.0000 
     47 CZ         18.2401  -13.3617   18.4707 C.ar      5 PHE5        0.0000 
     48 CA         12.6825  -13.4711   23.7244 C.3       6 GLY6        0.0000 
     49 O          13.5620  -13.5490   22.5118 O.2       2 ALA2        0.0000 
     50 DU         14.4415  -13.6269   21.2992 H         7 CUB7        0.0000 
     51 DU         15.3210  -13.7048   20.0866 H         7 CUB7        0.0000 
     52 CZ         16.2005  -13.7827   18.8739 C.ar      5 PHE5        0.0000 
     53 CZ         17.0800  -13.8607   17.6613 C.ar      5 PHE5        0.0000 
     54 N          12.4018  -14.0480   21.7024 N.2       2 ALA2        0.0000 
     55 DU         13.2813  -14.1259   20.4898 H         7 CUB7        0.0000 
     56 CA         14.1608  -14.2038   19.2772 C.3       6 GLY6        0.0000 
     57 CA         15.0403  -14.2817   18.0646 C.3       6 GLY6        0.0000 
     58 NZ         15.9198  -14.3596   16.8520 N.2       4 LYS4        0.0000 
     59 CZ         17.6788  -14.5154   14.4267 C.ar      5 PHE5        0.0000 
     60 CA         11.2417  -14.5469   20.8930 C.3       6 GLY6        0.0000 
     61 O          12.1212  -14.6248   19.6804 O.2       2 ALA2        0.0000 
     62 CA         13.0007  -14.7028   18.4678 C.3       6 GLY6        0.0000 
     63 NZ         15.6392  -14.9365   14.8300 N.2       4 LYS4        0.0000 
     64 CA         15.2403  -11.7155   21.7557 C.3       6 GLY6        0.0000 
     65 OG         16.1198  -11.7934   20.5431 O.2       1 SER1        0.0000 
     66 N          16.9993  -11.8713   19.3305 N.2       2 ALA2        0.0000 
     67 CA         17.8788  -11.9493   18.1179 C.3       6 GLY6        0.0000 
     68 CA         18.7583  -12.0272   16.9053 C.3       6 GLY6        0.0000 
     69 CA         11.4416  -11.9807   24.5842 C.3       6 GLY6        0.0000 
     70 O          12.3211  -12.0587   23.3715 O.2       2 ALA2        0.0000 
     71 O          13.2006  -12.1366   22.1589 O.2       2 ALA2        0.0000 
     72 OG         14.0801  -12.2145   20.9463 O.2       1 SER1        0.0000 
     73 OG         14.9596  -12.2924   19.7337 O.2       1 SER1        0.0000 
     74 OG         15.8391  -12.3703   18.5211 O.2       1 SER1        0.0000 
     75 N          16.7186  -12.4482   17.3085 N.2       2 ALA2        0.0000 
     76 OD1        17.5981  -12.5261   16.0959 O.3       3 ASP3        0.0000 
     77 N          11.1610  -12.5576   22.5622 N.2       2 ALA2        0.0000 
     78 CA         12.0405  -12.6355   21.3496 C.3       6 GLY6        0.0000 
     79 O          12.9200  -12.7134   20.1370 O.2       2 ALA2        0.0000 
     80 CA         13.7995  -12.7914   18.9243 C.3       6 GLY6        0.0000 
     81 NZ         16.4380  -13.0251   15.2865 N.2       4 LYS4        0.0000 
     82 OD1        17.3175  -13.1030   14.0739 O.3       3 ASP3        0.0000 
     83 N          13.1199  -10.1473   23.8281 N.2       2 ALA2        0.0000 
     84 CA         13.9994  -10.2252   22.6155 C.3       6 GLY6        0.0000 
     85 NZ         11.0803  -10.5683   24.2313 N.2       4 LYS4        0.0000 
     86 CA         11.9598  -10.6462   23.0187 C.3       6 GLY6        0.0000 
     87 CA         12.8393  -10.7241   21.8061 C.3       6 GLY6        0.0000 
     88 OG         13.7188  -10.8020   20.5935 O.2       1 SER1        0.0000 
     89 OG         16.3573  -11.0358   16.9557 O.2       1 SER1        0.0000 
     90 OD1        17.2368  -11.1137   15.7431 O.3       3 ASP3        0.0000 
     91 O          10.7997  -11.1452   22.2093 O.2       2 ALA2        0.0000 
     92 N          11.6792  -11.2231   20.9967 N.2       2 ALA2        0.0000 
     93 N          12.5587  -11.3010   19.7841 N.2       2 ALA2        0.0000 
     94 NZ         16.0767  -11.6127   14.9337 N.2       4 LYS4        0.0000 
     95 CA         11.5985   -9.2338   22.6659 C.3       6 GLY6        0.0000 
@<TRIPOS>BOND
@<TRIPOS>SUBSTRUCTURE
     1 SER1        1 GROUP   
     2 ALA2        5 GROUP   
     3 ASP3       76 GROUP   
     4 LYS4       58 GROUP   
     5 PHE5        7 GROUP   
     6 GLY6       14 GROUP   
     7 CUB7        3 GROUP   
@<TRIPOS>SET

