#    Name: 1mue_CDD_1_INTS_M
#    Modification time : Tue Mar 25 12:02:58 2014

@<TRIPOS>MOLECULE
1mue_CDD_1_INTS_M
   73     0     9     0     0
SMALL
NO_CHARGES


@<TRIPOS>ATOM
      1 CA         18.9030  -16.1155   28.5070 C.3       3 GLC5        0.0000 
      2 CA         17.7360  -16.0050   26.7280 C.3       9 GLL5        0.0000 
      3 CA         20.0700  -16.2260   30.2860 C.3       6 GLP5        0.0000 
      4 O          15.9700  -15.5745   24.5620 O.2       1 ALC1        0.0000 
      5 O          17.1580  -15.9350   24.1360 O.2       7 ALL1        0.0000 
      6 O          14.7820  -15.2140   24.9880 O.2       4 ALP1        0.0000 
      7 CA         18.4310  -11.0745   19.6600 C.3       3 GLC5        0.0000 
      8 CA         17.5460  -12.2610   20.7780 C.3       9 GLL5        0.0000 
      9 CA         19.3160   -9.8880   18.5420 C.3       6 GLP5        0.0000 
     10 CA         19.1905  -11.6040   21.9430 C.3       3 GLC5        0.0000 
     11 CA         20.8350  -10.9470   23.1080 C.3       6 GLP5        0.0000 
     12 CA         17.5155  -11.8605   22.7795 C.3       3 GLC5        0.0000 
     13 CA         17.4850  -11.4600   24.7810 C.3       6 GLP5        0.0000 
     14 O          16.1785  -10.4040   21.7910 O.2       1 ALC1        0.0000 
     15 O          15.2870  -11.4840   21.1270 O.2       7 ALL1        0.0000 
     16 O          17.0700   -9.3240   22.4550 O.2       4 ALP1        0.0000 
     17 CA         14.5655   -9.7665   19.4315 C.3       3 GLC5        0.0000 
     18 CA         13.8690  -11.4110   20.7680 C.3       9 GLL5        0.0000 
     19 CA         15.2620   -8.1220   18.0950 C.3       6 GLP5        0.0000 
     20 CA          9.7930  -13.8345   22.2570 C.3       3 GLC5        0.0000 
     21 CA         11.1250  -12.5320   23.2100 C.3       9 GLL5        0.0000 
     22 CA          8.4610  -15.1370   21.3040 C.3       6 GLP5        0.0000 
     23 N          15.4470  -13.1725   24.0225 N.am      2 SEC2        0.0000 
     24 N          16.1420  -13.6640   22.8260 N.am      8 SEL2        0.0000 
     25 N          14.7520  -12.6810   25.2190 N.am      5 SEP2        0.0000 
     26 CA         19.7790  -11.5625   19.2175 C.3       3 GLC5        0.0000 
     27 CA         20.2420  -13.2370   19.8930 C.3       9 GLL5        0.0000 
     28 CA         21.8810  -14.1365   19.9640 C.3       3 GLC5        0.0000 
     29 CA         23.5200  -15.0360   20.0350 C.3       6 GLP5        0.0000 
     30 CA         19.5815  -14.8225   18.8965 C.3       3 GLC5        0.0000 
     31 CA         18.9210  -16.4080   17.9000 C.3       6 GLP5        0.0000 
     32 CA         20.5385  -12.0920   21.5005 C.3       3 GLC5        0.0000 
     33 CA         11.5425  -13.2345   19.1725 C.3       3 GLC5        0.0000 
     34 CA         12.1890  -13.5200   21.2880 C.3       9 GLL5        0.0000 
     35 CA         10.8960  -12.9490   17.0570 C.3       6 GLP5        0.0000 
     36 CA         10.3250  -14.3285   21.2960 C.3       3 GLC5        0.0000 
     37 CA         20.5207  -16.0930   27.7585 C.3       3 GLC5        0.0000 
     38 CA         19.8510  -15.8890   25.7250 C.3       9 GLL5        0.0000 
     39 CA         21.1980  -16.9600   29.5940 C.3       6 GLP5        0.0000 
     40 CA         18.9443  -12.8253   25.4150 C.3       3 GLC5        0.0000 
     41 CA         19.8360  -14.5630   26.1210 C.3       9 GLL5        0.0000 
     42 CA         22.9185  -13.2330   26.8667 C.3       3 GLC5        0.0000 
     43 CA         20.9710  -13.8180   25.9770 C.3       9 GLL5        0.0000 
     44 CA         24.2900  -12.3440   28.0050 C.3       6 GLP5        0.0000 
     45 CA         21.8935  -12.5655   24.7323 C.3       3 GLC5        0.0000 
     46 CA         22.1230  -14.4260   25.4800 C.3       9 GLL5        0.0000 
     47 CA         22.2400  -11.0090   23.7360 C.3       6 GLP5        0.0000 
     48 CA         19.9913  -17.1125   27.9337 C.3       3 GLC5        0.0000 
     49 CA         18.6030  -16.7060   25.9480 C.3       9 GLL5        0.0000 
     50 CA         17.6723  -14.7212   27.0075 C.3       3 GLC5        0.0000 
     51 CA         17.1750  -13.0870   27.6770 C.3       6 GLP5        0.0000 
     52 CA         16.6968  -16.9134   27.2640 C.3       3 GLC5        0.0000 
     53 CA         15.2190  -17.1460   28.1880 C.3       6 GLP5        0.0000 
     54 CA         20.2387  -12.7197   22.3315 C.3       3 GLC5        0.0000 
     55 CA         19.9300  -15.0380   21.9380 C.3       9 GLL5        0.0000 
     56 CA         14.7430  -11.1345   22.9210 C.3       3 GLC5        0.0000 
     57 CA         16.0940  -10.8510   24.4770 C.3       6 GLP5        0.0000 
     58 CA         12.4053   -8.6325   22.6797 C.3       3 GLC5        0.0000 
     59 CA         12.0190  -10.4350   24.0000 C.3       9 GLL5        0.0000 
     60 CA         12.3510   -6.8600   21.9120 C.3       6 GLP5        0.0000 
     61 CA         14.2767  -10.6280   23.9623 C.3       3 GLC5        0.0000 
     62 CA         12.9000  -10.3750   22.8950 C.3       9 GLL5        0.0000 
     63 CA         13.1313  -11.8740   24.7632 C.3       3 GLC5        0.0000 
     64 CA         13.8030  -13.3430   26.0790 C.3       6 GLP5        0.0000 
     65 CA         11.4217  -10.4045   26.1403 C.3       3 GLC5        0.0000 
     66 CA         11.2780   -9.8450   28.2120 C.3       6 GLP5        0.0000 
     67 CA         10.4054   -9.6465   23.0971 C.3       3 GLC5        0.0000 
     68 CA         11.1120  -11.4930   24.1370 C.3       9 GLL5        0.0000 
     69 CA          9.0250   -8.3440   22.4020 C.3       6 GLP5        0.0000 
     70 CA         12.6904  -12.7981   24.4934 C.3       3 GLC5        0.0000 
     71 CA         12.0370  -12.4940   22.1420 C.3       9 GLL5        0.0000 
     72 CA         10.3125  -12.5403   21.0180 C.3       3 GLC5        0.0000 
     73 CA          8.7400  -12.0640   20.0540 C.3       6 GLP5        0.0000 
@<TRIPOS>BOND
@<TRIPOS>SUBSTRUCTURE
     1 ALC1        4 GROUP        1 X    ALC  0     ROOT ALC X 1
     2 SEC2       23 GROUP        1 X    SEC  0     **** SEC X 2
     3 GLC5        1 GROUP        1 X    GLC  0     **** GLC X 6
     4 ALP1        6 GROUP        1 Y    ALP  0     ROOT ALP Y 8
     5 SEP2       25 GROUP        1 Y    SEP  0     **** SEP Y 9
     6 GLP5        3 GROUP        1 Y    GLP  0     **** GLP Y 13
     7 ALL1        5 GROUP        1 Z    ALL  0     ROOT ALL Z 15
     8 SEL2       24 GROUP        1 Z    SEL  0     **** SEL Z 16
     9 GLL5        2 GROUP        1 Z    GLL  0     **** GLL Z 20
@<TRIPOS>SET

