#    Name: 1mue_CDD_1_ligand
#    Modification time : Tue Mar 25 12:02:58 2014

@<TRIPOS>MOLECULE
1mue_CDD_1_ligand
   49    51     1     0     0
SMALL
NO_CHARGES


@<TRIPOS>ATOM
      1 C1         22.0800  -15.7580   25.0900 C.ar      1 CDD248      0.0000 
      2 N2         20.9530  -16.4530   25.2050 N.pl3     1 CDD248      0.0000 
      3 C3         19.8510  -15.8890   25.7250 C.ar      1 CDD248      0.0000 
      4 C4         19.8360  -14.5630   26.1210 C.ar      1 CDD248      0.0000 
      5 C5         20.9710  -13.8180   25.9770 C.ar      1 CDD248      0.0000 
      6 C6         22.1230  -14.4260   25.4800 C.ar      1 CDD248      0.0000 
      7 C11        18.6030  -16.7060   25.9480 C.3       1 CDD248      0.0000 
      8 C12        17.9180  -17.0720   24.6620 C.3       1 CDD248      0.0000 
      9 F13        18.9660  -17.8240   26.5990 F         1 CDD248      0.0000 
     10 F14        17.7360  -16.0050   26.7280 F         1 CDD248      0.0000 
     11 N15        17.1580  -15.9350   24.1360 N.pl3     1 CDD248      0.0000 
     12 C18        17.9180  -15.2540   23.1780 C.2       1 CDD248      0.0000 
     13 C19        17.2740  -14.0320   22.4940 C.2       1 CDD248      0.0000 
     14 N20        18.0090  -13.4450   21.5160 N.am      1 CDD248      0.0000 
     15 C21        19.3550  -13.9470   21.1720 C.2       1 CDD248      0.0000 
     16 C22        19.9300  -15.0380   21.9380 C.2       1 CDD248      0.0000 
     17 N23        19.1980  -15.6190   22.9100 N.2       1 CDD248      0.0000 
     18 C24        17.5460  -12.2610   20.7780 C.3       1 CDD248      0.0000 
     19 C25        16.0670  -12.3310   20.4100 C.2       1 CDD248      0.0000 
     20 N28        15.2870  -11.4840   21.1270 N.am      1 CDD248      0.0000 
     21 C29        13.8690  -11.4110   20.7680 C.3       1 CDD248      0.0000 
     22 C30        12.9150  -11.4250   21.9620 C.ar      1 CDD248      0.0000 
     23 C33        12.9000  -10.3750   22.8950 C.ar      1 CDD248      0.0000 
     24 C34        12.0190  -10.4350   24.0000 C.ar      1 CDD248      0.0000 
     25 C35        11.1120  -11.4930   24.1370 C.ar      1 CDD248      0.0000 
     26 C2         11.1250  -12.5320   23.2100 C.ar      1 CDD248      0.0000 
     27 C37        12.0370  -12.4940   22.1420 C.ar      1 CDD248      0.0000 
     28 O42        16.1420  -13.6640   22.8260 O.2       1 CDD248      0.0000 
     29 CL43       20.2420  -13.2370   19.8930 Cl        1 CDD248      0.0000 
     30 O44        15.6570  -13.1090   19.5420 O.2       1 CDD248      0.0000 
     31 F1         12.1890  -13.5200   21.2880 F         1 CDD248      0.0000 
     32 O1         20.9520  -17.7700   24.8070 O.2       1 CDD248      0.0000 
     33 H          22.9475  -16.1893   24.7096 H         1 CDD248      0.0000 
     34 H          18.9813  -14.1543   26.5155 H         1 CDD248      0.0000 
     35 H          20.9895  -12.8234   26.2274 H         1 CDD248      0.0000 
     36 H          22.9940  -13.8915   25.4041 H         1 CDD248      0.0000 
     37 H          17.2512  -17.9254   24.8451 H         1 CDD248      0.0000 
     38 H          18.6758  -17.3942   23.9350 H         1 CDD248      0.0000 
     39 H          16.2843  -15.7225   24.4248 H         1 CDD248      0.0000 
     40 H          20.8816  -15.3278   21.7074 H         1 CDD248      0.0000 
     41 H          18.1268  -12.1372   19.8466 H         1 CDD248      0.0000 
     42 H          17.7087  -11.3471   21.3766 H         1 CDD248      0.0000 
     43 H          15.6185  -10.9101   21.8807 H         1 CDD248      0.0000 
     44 H          13.5946  -12.2583   20.1034 H         1 CDD248      0.0000 
     45 H          13.6660  -10.4894   20.1812 H         1 CDD248      0.0000 
     46 H          13.5183   -9.5731   22.7804 H         1 CDD248      0.0000 
     47 H          12.0498   -9.6897   24.7079 H         1 CDD248      0.0000 
     48 H          10.4462  -11.4994   24.9135 H         1 CDD248      0.0000 
     49 H          10.4787  -13.3183   23.3009 H         1 CDD248      0.0000 
@<TRIPOS>BOND
     1    2    1 ar   
     2    6    1 ar   
     3   33    1 1    
     4    3    2 ar   
     5   32    2 1    
     6    4    3 ar   
     7    7    3 1    
     8    5    4 ar   
     9   34    4 1    
    10    6    5 ar   
    11   35    5 1    
    12   36    6 1    
    13    8    7 1    
    14    9    7 1    
    15   10    7 1    
    16   11    8 1    
    17   37    8 1    
    18   38    8 1    
    19   12   11 1    
    20   39   11 1    
    21   13   12 1    
    22   17   12 2    
    23   14   13 am   
    24   28   13 2    
    25   15   14 1    
    26   18   14 1    
    27   16   15 2    
    28   29   15 1    
    29   17   16 1    
    30   40   16 1    
    31   19   18 1    
    32   41   18 1    
    33   42   18 1    
    34   20   19 am   
    35   30   19 2    
    36   21   20 1    
    37   43   20 1    
    38   22   21 1    
    39   44   21 1    
    40   45   21 1    
    41   23   22 ar   
    42   27   22 ar   
    43   24   23 ar   
    44   46   23 1    
    45   25   24 ar   
    46   47   24 1    
    47   26   25 ar   
    48   48   25 1    
    49   27   26 ar   
    50   49   26 1    
    51   31   27 1    
@<TRIPOS>SUBSTRUCTURE
     1 CDD248      1 GROUP   
@<TRIPOS>SET

