#    Name: 1fnn_ADP_1_INTS_M
#    Modification time : Tue Mar 25 01:34:01 2014

@<TRIPOS>MOLECULE
1fnn_ADP_1_INTS_M
   78     0    15     0     0
SMALL
NO_CHARGES


@<TRIPOS>ATOM
      1 Zn         36.3175    2.7060   18.3835 Zn        4 ZIC7        0.0000 
      2 Zn         35.5320    2.8310   18.8850 Zn       14 ZIL7        0.0000 
      3 Zn         37.1030    2.5810   17.8820 Zn        9 ZIP7        0.0000 
      4 N          35.7405    4.3185   19.3090 N.am      2 SEC2        0.0000 
      5 N          35.5320    2.8310   18.8850 N.am     12 SEL2        0.0000 
      6 N          35.9490    5.8060   19.7330 N.am      7 SEP2        0.0000 
      7 NZ         34.3990    1.3965   21.2015 N.4       3 LYC4        0.0000 
      8 NZ         33.5780    2.3230   20.3030 N.4      13 LYL4        0.0000 
      9 NZ         35.2200    0.4700   22.1000 N.4       8 LYP4        0.0000 
     10 N          33.6345    3.6300   20.8290 N.am      2 SEC2        0.0000 
     11 N          33.5780    2.3230   20.3030 N.am     12 SEL2        0.0000 
     12 N          33.6910    4.9370   21.3550 N.am      7 SEP2        0.0000 
     13 N          34.3990    1.3965   21.2015 N.am      2 SEC2        0.0000 
     14 N          35.2200    0.4700   22.1000 N.am      7 SEP2        0.0000 
     15 NZ         34.7640    0.6890   20.3105 N.4       3 LYC4        0.0000 
     16 NZ         34.3080    0.9080   18.5210 N.4      13 LYL4        0.0000 
     17 N          33.1125    0.1435   18.8335 N.am      2 SEC2        0.0000 
     18 N          34.3080    0.9080   18.5210 N.am     12 SEL2        0.0000 
     19 N          31.9170   -0.6210   19.1460 N.am      7 SEP2        0.0000 
     20 N          33.9845    6.4915   17.9275 N.am      2 SEC2        0.0000 
     21 N          33.3180    5.3010   17.7450 N.am     12 SEL2        0.0000 
     22 N          34.6510    7.6820   18.1100 N.am      7 SEP2        0.0000 
     23 N          32.0325    3.3865   19.4225 N.am      2 SEC2        0.0000 
     24 N          32.9450    2.8990   18.1950 N.am     12 SEL2        0.0000 
     25 N          31.1200    3.8740   20.6500 N.am      7 SEP2        0.0000 
     26 CA         30.7390    1.6005   17.3110 C.3       5 GLC5        0.0000 
     27 CA         30.7450    3.1180   15.9350 C.3      15 GLL5        0.0000 
     28 CA         30.7330    0.0830   18.6870 C.3      10 GLP5        0.0000 
     29 CA         30.2730    1.4625   15.0950 C.3       5 GLC5        0.0000 
     30 CA         29.8010   -0.1930   14.2550 C.3      10 GLP5        0.0000 
     31 CA         28.1140    3.2410   16.2650 C.3       5 GLC5        0.0000 
     32 CA         29.8170    3.8200   14.9230 C.3      15 GLL5        0.0000 
     33 CA         26.4110    2.6620   17.6070 C.3      10 GLP5        0.0000 
     34 CA         29.0995    2.0980   14.5495 C.3       5 GLC5        0.0000 
     35 CA         28.3820    0.3760   14.1760 C.3      10 GLP5        0.0000 
     36 CA         27.8960    4.2105   14.2080 C.3       5 GLC5        0.0000 
     37 CA         25.9750    4.6010   13.4930 C.3      10 GLP5        0.0000 
     38 O          30.1020    6.1420   12.0260 O.2       1 ALC1        0.0000 
     39 O          29.8480    5.0500   12.8850 O.2      11 ALL1        0.0000 
     40 O          30.3560    7.2340   11.1670 O.2       6 ALP1        0.0000 
     41 CA         31.3100    7.3475   16.1340 C.3       5 GLC5        0.0000 
     42 CA         30.1420    6.1000   15.0790 C.3      15 GLL5        0.0000 
     43 CA         32.4780    8.5950   17.1890 C.3      10 GLP5        0.0000 
     44 N          28.8560    7.7475   13.9240 N.am      2 SEC2        0.0000 
     45 N          30.1650    7.3650   14.4160 N.am     12 SEL2        0.0000 
     46 N          27.5470    8.1300   13.4320 N.am      7 SEP2        0.0000 
     47 CA         27.5535    4.2125   16.5365 C.3       5 GLC5        0.0000 
     48 CA         28.6960    5.7630   15.4660 C.3      15 GLL5        0.0000 
     49 CA         27.3355    5.1820   14.4795 C.3       5 GLC5        0.0000 
     50 N          28.0055    6.0520   20.3405 N.am      2 SEC2        0.0000 
     51 N          28.2990    6.2580   18.9940 N.am     12 SEL2        0.0000 
     52 N          27.7120    5.8460   21.6870 N.am      7 SEP2        0.0000 
     53 CA         25.2230    9.9085   19.2775 C.3       5 GLC5        0.0000 
     54 CA         26.6580    8.2030   19.0560 C.3      15 GLL5        0.0000 
     55 CA         23.7880   11.6140   19.4990 C.3      10 GLP5        0.0000 
     56 O          25.4615    8.8190   21.3005 O.2       1 ALC1        0.0000 
     57 O          26.5390    8.2810   20.3720 O.2      11 ALL1        0.0000 
     58 O          24.3840    9.3570   22.2290 O.2       6 ALP1        0.0000 
     59 O          27.1255    7.0635   21.0295 O.2       1 ALC1        0.0000 
     60 O          27.7120    5.8460   21.6870 O.2       6 ALP1        0.0000 
     61 CA         26.9910   10.1995   15.8360 C.3       5 GLC5        0.0000 
     62 CA         26.1850    8.9890   16.9600 C.3      15 GLL5        0.0000 
     63 CA         27.7970   11.4100   14.7120 C.3      10 GLP5        0.0000 
     64 CA         27.5820   10.0905   17.5915 C.3       5 GLC5        0.0000 
     65 CA         28.9790   11.1920   18.2230 C.3      10 GLP5        0.0000 
     66 CA         24.9865   10.3015   18.2295 C.3       5 GLC5        0.0000 
     67 CA         24.9180    7.5925   16.6165 C.3       5 GLC5        0.0000 
     68 CA         23.6510    6.1960   16.2730 C.3      10 GLP5        0.0000 
     69 N          27.2440    8.1375   14.8460 N.am      2 SEC2        0.0000 
     70 N          26.9410    8.1450   16.2600 N.am     12 SEL2        0.0000 
     71 CA         25.6170    6.7405   16.6845 C.3       5 GLC5        0.0000 
     72 CA         27.5830    7.2850   17.0960 C.3      15 GLL5        0.0000 
     73 CA         29.4940    7.8345   18.0323 C.3       5 GLC5        0.0000 
     74 CA         27.4950    7.2490   18.4550 C.3      15 GLL5        0.0000 
     75 CA         31.4490    8.4020   18.2890 C.3      10 GLP5        0.0000 
     76 CA         25.5673    6.6920   19.0222 C.3       5 GLC5        0.0000 
     77 CA         24.0580    5.6580   19.2890 C.3      10 GLP5        0.0000 
     78 CA         28.1544    9.3487   18.0744 C.3       5 GLC5        0.0000 
@<TRIPOS>BOND
@<TRIPOS>SUBSTRUCTURE
     1 ALC1       38 GROUP        1 X    ALC  0     ROOT ALC X 1
     2 SEC2        4 GROUP        1 X    SEC  0     **** SEC X 2
     3 LYC4        7 GROUP        1 X    LYC  0     **** LYC X 4
     4 ZIC7        1 GROUP        1 X    ZIC  0     **** ZIC X 5
     5 GLC5       26 GROUP        1 X    GLC  0     **** GLC X 6
     6 ALP1       40 GROUP        1 Y    ALP  0     ROOT ALP Y 8
     7 SEP2        6 GROUP        1 Y    SEP  0     **** SEP Y 9
     8 LYP4        9 GROUP        1 Y    LYP  0     **** LYP Y 11
     9 ZIP7        3 GROUP        1 Y    ZIP  0     **** ZIP Y 12
    10 GLP5       28 GROUP        1 Y    GLP  0     **** GLP Y 13
    11 ALL1       39 GROUP        1 Z    ALL  0     ROOT ALL Z 15
    12 SEL2        5 GROUP        1 Z    SEL  0     **** SEL Z 16
    13 LYL4        8 GROUP        1 Z    LYL  0     **** LYL Z 18
    14 ZIL7        2 GROUP        1 Z    ZIL  0     **** ZIL Z 19
    15 GLL5       27 GROUP        1 Z    GLL  0     **** GLL Z 20
@<TRIPOS>SET

