#    Name: 1fnn_ADP_1_ligand
#    Modification time : Tue Mar 25 01:34:01 2014

@<TRIPOS>MOLECULE
1fnn_ADP_1_ligand
   39    41     1     0     0
SMALL
NO_CHARGES


@<TRIPOS>ATOM
      1 PB         34.1170    2.2770   18.9880 P.3       1 ADP398      0.0000 
      2 O1B        35.5320    2.8310   18.8850 O.co2     1 ADP398      0.0000 
      3 O2B        33.5780    2.3230   20.3030 O.co2     1 ADP398      0.0000 
      4 O3B        34.3080    0.9080   18.5210 O.co2     1 ADP398      0.0000 
      5 PA         32.8210    4.0370   17.1730 P.3       1 ADP398      0.0000 
      6 O1A        33.3180    5.3010   17.7450 O.co2     1 ADP398      0.0000 
      7 O2A        33.5080    3.7070   15.9190 O.co2     1 ADP398      0.0000 
      8 O3A        32.9450    2.8990   18.1950 O.3       1 ADP398      0.0000 
      9 O5'        31.2290    4.1330   16.7970 O.3       1 ADP398      0.0000 
     10 C5'        30.7450    3.1180   15.9350 C.3       1 ADP398      0.0000 
     11 C4'        29.8170    3.8200   14.9230 C.3       1 ADP398      0.0000 
     12 O4'        28.7480    4.3970   15.6380 O.3       1 ADP398      0.0000 
     13 C3'        30.4620    4.9700   14.1600 C.3       1 ADP398      0.0000 
     14 O3'        29.8480    5.0500   12.8850 O.3       1 ADP398      0.0000 
     15 C2'        30.1420    6.1000   15.0790 C.3       1 ADP398      0.0000 
     16 O2'        30.1650    7.3650   14.4160 O.3       1 ADP398      0.0000 
     17 C1'        28.6960    5.7630   15.4660 C.3       1 ADP398      0.0000 
     18 N9         28.4600    6.2960   16.7510 N.pl3     1 ADP398      0.0000 
     19 C8         28.8430    5.7300   17.9380 C.2       1 ADP398      0.0000 
     20 N7         28.2990    6.2580   18.9940 N.2       1 ADP398      0.0000 
     21 C5         27.4950    7.2490   18.4550 C.ar      1 ADP398      0.0000 
     22 C6         26.6580    8.2030   19.0560 C.ar      1 ADP398      0.0000 
     23 N6         26.5390    8.2810   20.3720 N.pl3     1 ADP398      0.0000 
     24 N1         26.0130    9.0650   18.2660 N.ar      1 ADP398      0.0000 
     25 C2         26.1850    8.9890   16.9600 C.ar      1 ADP398      0.0000 
     26 N3         26.9410    8.1450   16.2600 N.ar      1 ADP398      0.0000 
     27 C4         27.5830    7.2850   17.0960 C.ar      1 ADP398      0.0000 
     28 H          30.1563    2.3746   16.4560 H         1 ADP398      0.0000 
     29 H          31.5347    2.6365   15.3736 H         1 ADP398      0.0000 
     30 H          29.4556    3.0953   14.2194 H         1 ADP398      0.0000 
     31 H          31.4969    4.7966   14.1492 H         1 ADP398      0.0000 
     32 H          30.7286    6.0420   15.9415 H         1 ADP398      0.0000 
     33 H          28.0601    6.0812   14.7379 H         1 ADP398      0.0000 
     34 H          29.5015    4.9607   17.9540 H         1 ADP398      0.0000 
     35 H          25.8898    8.9596   20.7157 H         1 ADP398      0.0000 
     36 H          27.1091    7.6543   20.9033 H         1 ADP398      0.0000 
     37 H          25.6213    9.7323   16.3547 H         1 ADP398      0.0000 
     38 H          29.7203    6.0280   12.7203 H         1 ADP398      0.0000 
     39 H          31.1097    7.4788   14.1086 H         1 ADP398      0.0000 
@<TRIPOS>BOND
     1    2    1 ar   
     2    3    1 ar   
     3    4    1 ar   
     4    8    1 1    
     5    6    5 ar   
     6    7    5 ar   
     7    8    5 1    
     8    9    5 1    
     9   10    9 1    
    10   11   10 1    
    11   28   10 1    
    12   29   10 1    
    13   12   11 1    
    14   13   11 1    
    15   30   11 1    
    16   17   12 1    
    17   14   13 1    
    18   15   13 1    
    19   31   13 1    
    20   38   14 1    
    21   16   15 1    
    22   17   15 1    
    23   32   15 1    
    24   39   16 1    
    25   18   17 1    
    26   33   17 1    
    27   19   18 1    
    28   27   18 1    
    29   20   19 2    
    30   34   19 1    
    31   21   20 1    
    32   22   21 ar   
    33   27   21 ar   
    34   23   22 1    
    35   24   22 ar   
    36   35   23 1    
    37   36   23 1    
    38   25   24 ar   
    39   26   25 ar   
    40   37   25 1    
    41   27   26 ar   
@<TRIPOS>SUBSTRUCTURE
     1 ADP398      1 GROUP   
@<TRIPOS>SET

