#    Name: 1uzw_CDH_1_INTS_M
#    Modification time : Tue Mar 25 07:22:37 2014

@<TRIPOS>MOLECULE
1uzw_CDH_1_INTS_M
   61     0    12     0     0
SMALL
NO_CHARGES


@<TRIPOS>ATOM
      1 N           3.8510   36.6925    6.3535 N.am      2 SEC2        0.0000 
      2 N           4.3640   36.1690    5.2170 N.am     10 SEL2        0.0000 
      3 N           3.3380   37.2160    7.4900 N.am      6 SEP2        0.0000 
      4 N           4.3880   34.8690    4.5430 N.am      2 SEC2        0.0000 
      5 N           4.4120   33.5690    3.8690 N.am      6 SEP2        0.0000 
      6 N           2.9750   36.0555    4.9860 N.am      2 SEC2        0.0000 
      7 N           1.5860   35.9420    4.7550 N.am      6 SEP2        0.0000 
      8 CA          6.9455   35.7155    5.5280 C.3       4 GLC5        0.0000 
      9 CA          6.3800   37.1310    4.3910 C.3      12 GLL5        0.0000 
     10 CA          7.5110   34.3000    6.6650 C.3       8 GLP5        0.0000 
     11 CA          4.4995   35.3755    0.9635 C.3       4 GLC5        0.0000 
     12 CA          4.7920   36.4910    2.4930 C.3      12 GLL5        0.0000 
     13 CA          4.2070   34.2600   -0.5660 C.3       8 GLP5        0.0000 
     14 CA          3.1110   37.4990    1.9110 C.3       4 GLC5        0.0000 
     15 CA          1.4300   38.5070    1.3290 C.3       8 GLP5        0.0000 
     16 CA          6.3640   34.4550    1.3405 C.3       4 GLC5        0.0000 
     17 CA          7.0410   36.2650    1.9730 C.3      12 GLL5        0.0000 
     18 CA          5.6870   32.6450    0.7080 C.3       8 GLP5        0.0000 
     19 CA          8.2045   34.8500    1.7785 C.3       4 GLC5        0.0000 
     20 CA          9.3680   33.4350    1.5840 C.3       8 GLP5        0.0000 
     21 CA          9.1910   36.3935    2.0430 C.3       4 GLC5        0.0000 
     22 CA         11.3410   36.5220    2.1130 C.3       8 GLP5        0.0000 
     23 CA         10.0065   37.9050    2.2340 C.3       4 GLC5        0.0000 
     24 CA          8.6720   39.2880    2.3550 C.3      12 GLL5        0.0000 
     25 CA         12.6940   40.8150    4.6930 C.3       4 GLC5        0.0000 
     26 CA         12.8740   38.7200    5.0110 C.3      12 GLL5        0.0000 
     27 CA         12.5140   42.9100    4.3750 C.3       8 GLP5        0.0000 
     28 CA         13.2125   35.3750    5.7315 C.3       4 GLC5        0.0000 
     29 CA         13.5560   37.5420    5.7250 C.3      12 GLL5        0.0000 
     30 CA         12.8690   33.2080    5.7380 C.3       8 GLP5        0.0000 
     31 CA         16.2360   38.7920    4.7445 C.3       4 GLC5        0.0000 
     32 CA         14.9980   37.3030    5.1700 C.3      12 GLL5        0.0000 
     33 CA         17.4740   40.2810    4.3190 C.3       8 GLP5        0.0000 
     34 CA         16.1040   34.3095    6.6980 C.3       4 GLC5        0.0000 
     35 CA         15.5520   36.1190    5.9750 C.3      12 GLL5        0.0000 
     36 CA         16.6560   32.5000    7.4210 C.3       8 GLP5        0.0000 
     37 CA         14.2105   34.6635    5.8565 C.3       4 GLC5        0.0000 
     38 O          15.7920   36.0595    8.9800 O.2       1 ALC1        0.0000 
     39 O          15.1060   36.2990    7.5120 O.2       9 ALL1        0.0000 
     40 O          16.4780   35.8200   10.4480 O.2       5 ALP1        0.0000 
     41 NZ         19.3030   35.9880    5.9680 N.4       3 LYC4        0.0000 
     42 NZ         17.9090   36.1100    6.5600 N.4      11 LYL4        0.0000 
     43 NZ         20.9010   35.3590    4.1780 N.4       7 LYP4        0.0000 
     44 N          19.3030   35.9880    5.9680 N.am      2 SEC2        0.0000 
     45 N          17.9090   36.1100    6.5600 N.am     10 SEL2        0.0000 
     46 N          20.6970   35.8660    5.3760 N.am      6 SEP2        0.0000 
     47 NZ         18.5670   35.4090    3.9360 N.4       3 LYC4        0.0000 
     48 NZ         17.2520   35.6390    4.5000 N.4      11 LYL4        0.0000 
     49 N          18.5670   35.4090    3.9360 N.am      2 SEC2        0.0000 
     50 N          17.2520   35.6390    4.5000 N.am     10 SEL2        0.0000 
     51 N          19.8820   35.1790    3.3720 N.am      6 SEP2        0.0000 
     52 N          16.7895   34.6605    3.7060 N.am      2 SEC2        0.0000 
     53 N          16.3270   33.6820    2.9120 N.am      6 SEP2        0.0000 
     54 CA          8.2912   41.3790    5.1638 C.3       4 GLC5        0.0000 
     55 CA          9.1680   39.5460    5.1750 C.3      12 GLL5        0.0000 
     56 CA          7.5640   42.8310    5.8080 C.3       8 GLP5        0.0000 
     57 CA          8.5888   41.5205    2.3933 C.3       4 GLC5        0.0000 
     58 CA          8.8690   40.3080    3.8640 C.3      12 GLL5        0.0000 
     59 CA          8.4070   43.2430    1.6770 C.3       8 GLP5        0.0000 
     60 CA         13.1638   36.6840    3.9715 C.3       4 GLC5        0.0000 
     61 CA         12.2210   35.6510    2.6740 C.3       8 GLP5        0.0000 
@<TRIPOS>BOND
@<TRIPOS>SUBSTRUCTURE
     1 ALC1       38 GROUP        1 X    ALC  0     ROOT ALC X 1
     2 SEC2        1 GROUP        1 X    SEC  0     **** SEC X 2
     3 LYC4       41 GROUP        1 X    LYC  0     **** LYC X 4
     4 GLC5        8 GROUP        1 X    GLC  0     **** GLC X 6
     5 ALP1       40 GROUP        1 Y    ALP  0     ROOT ALP Y 8
     6 SEP2        3 GROUP        1 Y    SEP  0     **** SEP Y 9
     7 LYP4       43 GROUP        1 Y    LYP  0     **** LYP Y 11
     8 GLP5       10 GROUP        1 Y    GLP  0     **** GLP Y 13
     9 ALL1       39 GROUP        1 Z    ALL  0     ROOT ALL Z 15
    10 SEL2        2 GROUP        1 Z    SEL  0     **** SEL Z 16
    11 LYL4       42 GROUP        1 Z    LYL  0     **** LYL Z 18
    12 GLL5        9 GROUP        1 Z    GLL  0     **** GLL Z 20
@<TRIPOS>SET

