#    Name: 1uzw_CDH_1_ligand
#    Modification time : Tue Mar 25 07:22:37 2014

@<TRIPOS>MOLECULE
1uzw_CDH_1_ligand
   43    42     1     0     0
SMALL
NO_CHARGES


@<TRIPOS>ATOM
      1 O43         4.3640   36.1690    5.2170 O.co2     1 CDH1333     0.0000 
      2 C31         5.2040   37.0740    5.3790 C.2       1 CDH1333     0.0000 
      3 O42         5.1190   37.9120    6.3000 O.co2     1 CDH1333     0.0000 
      4 C30         6.3800   37.1310    4.3910 C.3       1 CDH1333     0.0000 
      5 C32         5.9150   36.6220    2.9320 C.2       1 CDH1333     0.0000 
      6 C37         4.7920   36.4910    2.4930 C.3       1 CDH1333     0.0000 
      7 C33         7.0410   36.2650    1.9730 C.2       1 CDH1333     0.0000 
      8 N29         7.0940   38.3830    4.6110 N.am      1 CDH1333     0.0000 
      9 C13         8.0390   38.5820    5.5600 C.2       1 CDH1333     0.0000 
     10 O18         7.9570   38.0450    6.6420 O.2       1 CDH1333     0.0000 
     11 C12         9.1680   39.5460    5.1750 C.3       1 CDH1333     0.0000 
     12 C16         8.8690   40.3080    3.8640 C.3       1 CDH1333     0.0000 
     13 S           8.6720   39.2880    2.3550 S.3       1 CDH1333     0.0000 
     14 N30        10.4070   38.7590    5.0650 N.am      1 CDH1333     0.0000 
     15 C25        11.5480   39.0310    5.6970 C.2       1 CDH1333     0.0000 
     16 O25        11.4330   39.5490    6.8010 O.2       1 CDH1333     0.0000 
     17 C24        12.8740   38.7200    5.0110 C.3       1 CDH1333     0.0000 
     18 C23        13.5560   37.5420    5.7250 C.3       1 CDH1333     0.0000 
     19 C22        14.9980   37.3030    5.1700 C.3       1 CDH1333     0.0000 
     20 C21        15.5520   36.1190    5.9750 C.3       1 CDH1333     0.0000 
     21 N31        15.1060   36.2990    7.5120 N.4       1 CDH1333     0.0000 
     22 C20        17.0370   35.9260    5.6680 C.2       1 CDH1333     0.0000 
     23 O20        17.9090   36.1100    6.5600 O.co2     1 CDH1333     0.0000 
     24 O21        17.2520   35.6390    4.5000 O.co2     1 CDH1333     0.0000 
     25 H           7.0610   36.2736    4.7757 H         1 CDH1333     0.0000 
     26 H           6.8236   39.1726    3.9575 H         1 CDH1333     0.0000 
     27 H           9.2721   40.2709    5.9763 H         1 CDH1333     0.0000 
     28 H           9.6669   40.9861    3.5754 H         1 CDH1333     0.0000 
     29 H           7.9289   40.8513    3.8934 H         1 CDH1333     0.0000 
     30 H          10.3297   37.9190    4.4178 H         1 CDH1333     0.0000 
     31 H          13.5204   39.5866    5.0601 H         1 CDH1333     0.0000 
     32 H          12.6945   38.4525    3.9778 H         1 CDH1333     0.0000 
     33 H          12.9740   36.6385    5.5732 H         1 CDH1333     0.0000 
     34 H          13.6259   37.7520    6.7876 H         1 CDH1333     0.0000 
     35 H          15.5836   38.1704    5.3476 H         1 CDH1333     0.0000 
     36 H          14.9333   37.0464    4.1420 H         1 CDH1333     0.0000 
     37 H          14.9974   35.2244    5.6064 H         1 CDH1333     0.0000 
     38 H           4.7982   36.1528    1.5519 H         1 CDH1333     0.0000 
     39 H           4.2551   35.8433    3.0336 H         1 CDH1333     0.0000 
     40 H           4.2910   37.3565    2.4902 H         1 CDH1333     0.0000 
     41 H          15.4387   35.5503    8.0854 H         1 CDH1333     0.0000 
     42 H          15.4597   37.1481    7.9043 H         1 CDH1333     0.0000 
     43 H          14.1111   36.3231    7.6096 H         1 CDH1333     0.0000 
@<TRIPOS>BOND
     1    2    1 ar   
     2    3    2 ar   
     3    4    2 1    
     4    5    4 1    
     5    8    4 1    
     6   25    4 1    
     7    6    5 1    
     8    7    5 2    
     9   38    6 1    
    10   39    6 1    
    11   40    6 1    
    12    9    8 am   
    13   26    8 1    
    14   10    9 2    
    15   11    9 1    
    16   12   11 1    
    17   14   11 1    
    18   27   11 1    
    19   13   12 1    
    20   28   12 1    
    21   29   12 1    
    22   15   14 am   
    23   30   14 1    
    24   16   15 2    
    25   17   15 1    
    26   18   17 1    
    27   31   17 1    
    28   32   17 1    
    29   19   18 1    
    30   33   18 1    
    31   34   18 1    
    32   20   19 1    
    33   35   19 1    
    34   36   19 1    
    35   21   20 1    
    36   22   20 1    
    37   37   20 1    
    38   41   21 1    
    39   42   21 1    
    40   43   21 1    
    41   23   22 ar   
    42   24   22 ar   
@<TRIPOS>SUBSTRUCTURE
     1 CDH1333     1 GROUP   
@<TRIPOS>SET

