#    Name: 3vry_B43_1_INTS_M
#    Modification time : Tue Mar 25 01:22:12 2014

@<TRIPOS>MOLECULE
3vry_B43_1_INTS_M
   84     0     9     0     0
SMALL
NO_CHARGES


@<TRIPOS>ATOM
      1 O           3.8690   -5.9015   12.3000 O.2       1 ALC1        0.0000 
      2 O           3.6810   -7.4130   12.3810 O.2       7 ALL1        0.0000 
      3 O           4.0570   -4.3900   12.2190 O.2       4 ALP1        0.0000 
      4 CA          6.2925   -7.6600   12.7830 C.3       3 GLC5        0.0000 
      5 CA          4.4150   -8.4770   11.9780 C.3       9 GLL5        0.0000 
      6 CA          8.1700   -6.8430   13.5880 C.3       6 GLP5        0.0000 
      7 N           6.5360   -7.1025   11.3845 N.am      2 SEC2        0.0000 
      8 N           5.5920   -8.2980   11.3290 N.am      8 SEL2        0.0000 
      9 N           7.4800   -5.9070   11.4400 N.am      5 SEP2        0.0000 
     10 CA          5.7505  -10.1020    9.0800 C.3       3 GLC5        0.0000 
     11 CA          6.3330   -9.3380   10.9240 C.3       9 GLL5        0.0000 
     12 CA          5.1680  -10.8660    7.2360 C.3       6 GLP5        0.0000 
     13 CA          7.2515   -8.0905   12.2560 C.3       3 GLC5        0.0000 
     14 CA          7.9475  -10.5360   11.7315 C.3       3 GLC5        0.0000 
     15 CA          9.5620  -11.7340   12.5390 C.3       6 GLP5        0.0000 
     16 CA          5.4095  -10.8445   13.5740 C.3       3 GLC5        0.0000 
     17 CA          4.7490  -10.8450   11.8180 C.3       9 GLL5        0.0000 
     18 CA          6.0700  -10.8440   15.3300 C.3       6 GLP5        0.0000 
     19 CA          4.5325  -11.2545   14.0750 C.3       3 GLC5        0.0000 
     20 CA          2.9950  -11.6650   12.8200 C.3       9 GLL5        0.0000 
     21 CA         -1.8590   -9.4665   12.5045 C.3       3 GLC5        0.0000 
     22 CA         -0.3890   -8.4640   13.3200 C.3       9 GLL5        0.0000 
     23 CA         -3.3290  -10.4690   11.6890 C.3       6 GLP5        0.0000 
     24 CA          1.6435   -7.9300   11.1535 C.3       3 GLC5        0.0000 
     25 CA          0.8310   -8.8790   12.7960 C.3       9 GLL5        0.0000 
     26 CA          2.4560   -6.9810    9.5110 C.3       6 GLP5        0.0000 
     27 CA         -3.5410   -7.0180   15.0165 C.3       3 GLC5        0.0000 
     28 CA         -2.2930   -8.1540   16.3270 C.3       9 GLL5        0.0000 
     29 CA         -4.7890   -5.8820   13.7060 C.3       6 GLP5        0.0000 
     30 CA         -4.9700   -8.6190   15.5605 C.3       3 GLC5        0.0000 
     31 CA         -3.4400   -8.5870   17.0050 C.3       9 GLL5        0.0000 
     32 CA         -6.5000   -8.6510   14.1160 C.3       6 GLP5        0.0000 
     33 CA         -4.2755  -10.5310   17.2715 C.3       3 GLC5        0.0000 
     34 CA         -5.1110  -12.4750   17.5380 C.3       6 GLP5        0.0000 
     35 CA         -5.3535   -9.5870   18.1955 C.3       3 GLC5        0.0000 
     36 CA         -3.6570   -8.2160   18.3380 C.3       9 GLL5        0.0000 
     37 CA         -7.0500  -10.9580   18.0530 C.3       6 GLP5        0.0000 
     38 CA         -2.6455   -8.2340   21.0630 C.3       3 GLC5        0.0000 
     39 CA         -2.7250   -7.3950   18.9880 C.3       9 GLL5        0.0000 
     40 CA         -2.5660   -9.0730   23.1380 C.3       6 GLP5        0.0000 
     41 CA          0.0840   -7.9965   18.9845 C.3       3 GLC5        0.0000 
     42 CA         -1.5860   -6.9530   18.3080 C.3       9 GLL5        0.0000 
     43 CA          1.7540   -9.0400   19.6610 C.3       6 GLP5        0.0000 
     44 CA          0.4410   -8.4370   17.6445 C.3       3 GLC5        0.0000 
     45 CA         -1.3780   -7.3300   16.9820 C.3       9 GLL5        0.0000 
     46 CA          2.2600   -9.5440   18.3070 C.3       6 GLP5        0.0000 
     47 CA          3.3237   -8.0500   10.8107 C.3       3 GLC5        0.0000 
     48 CA          3.9680   -9.7610   12.2430 C.3       9 GLL5        0.0000 
     49 CA          4.4748   -8.9155   13.8618 C.3       3 GLC5        0.0000 
     50 CA          4.7580   -8.7120   15.6130 C.3       6 GLP5        0.0000 
     51 CA          3.1277  -12.6792   10.4760 C.3       3 GLC5        0.0000 
     52 CA          4.4160  -13.4330   12.0600 C.3       9 GLL5        0.0000 
     53 CA          1.7150  -11.6690    9.5920 C.3       6 GLP5        0.0000 
     54 CA          5.5393  -12.2675   13.9013 C.3       3 GLC5        0.0000 
     55 CA          4.8293  -13.9932    8.9868 C.3       3 GLC5        0.0000 
     56 CA          4.6650  -13.9460   10.6600 C.3       9 GLL5        0.0000 
     57 CA          4.7520  -13.3300    7.1730 C.3       6 GLP5        0.0000 
     58 CA          3.7402  -15.8707    9.6378 C.3       3 GLC5        0.0000 
     59 CA          2.5740  -17.0850    8.4750 C.3       6 GLP5        0.0000 
     60 CA          6.8438  -14.8165   14.1672 C.3       3 GLC5        0.0000 
     61 CA          5.8400  -15.3390   12.3100 C.3       9 GLL5        0.0000 
     62 CA          7.9670  -14.9890   15.7370 C.3       6 GLP5        0.0000 
     63 CA          1.4670  -10.5000   11.3742 C.3       3 GLC5        0.0000 
     64 CA          1.6070   -9.7830   13.5170 C.3       9 GLL5        0.0000 
     65 CA          3.2186   -9.4473   14.7877 C.3       3 GLC5        0.0000 
     66 CA          1.1270  -10.3220   14.7160 C.3       9 GLL5        0.0000 
     67 CA          1.3855   -9.8253   16.6410 C.3       3 GLC5        0.0000 
     68 CA         -1.1310  -11.0069   14.3485 C.3       3 GLC5        0.0000 
     69 CA         -2.0860  -12.4860   13.9400 C.3       6 GLP5        0.0000 
     70 CA         -0.3377   -6.9544   13.4879 C.3       3 GLC5        0.0000 
     71 CA         -0.8630   -8.9490   14.5390 C.3       9 GLL5        0.0000 
     72 CA         -0.7780   -5.1160   13.6130 C.3       6 GLP5        0.0000 
     73 CA         -1.3068   -6.4290   15.1337 C.3       3 GLC5        0.0000 
     74 CA         -2.2818   -9.5243   18.2390 C.3       3 GLC5        0.0000 
     75 CA         -1.6970  -10.6780   19.8120 C.3       6 GLP5        0.0000 
     76 CA         -5.1195   -7.1297   19.1655 C.3       3 GLC5        0.0000 
     77 CA         -7.0480   -6.4540   19.6680 C.3       6 GLP5        0.0000 
     78 CA         -2.4440   -9.2417   19.2375 C.3       3 GLC5        0.0000 
     79 CA         -2.4002   -5.1525   18.4590 C.3       3 GLC5        0.0000 
     80 CA         -2.6450   -3.1310   18.2700 C.3       6 GLP5        0.0000 
     81 CA          0.0910   -6.4438   17.7370 C.3       3 GLC5        0.0000 
     82 CA          1.6640   -5.7460   17.8290 C.3       6 GLP5        0.0000 
     83 CA         -1.5895   -8.9098   18.7285 C.3       3 GLC5        0.0000 
     84 CA          2.6785  -11.1562   11.0188 C.3       3 GLC5        0.0000 
@<TRIPOS>BOND
@<TRIPOS>SUBSTRUCTURE
     1 ALC1        1 GROUP        1 X    ALC  0     ROOT ALC X 1
     2 SEC2        7 GROUP        1 X    SEC  0     **** SEC X 2
     3 GLC5        4 GROUP        1 X    GLC  0     **** GLC X 6
     4 ALP1        3 GROUP        1 Y    ALP  0     ROOT ALP Y 8
     5 SEP2        9 GROUP        1 Y    SEP  0     **** SEP Y 9
     6 GLP5        6 GROUP        1 Y    GLP  0     **** GLP Y 13
     7 ALL1        2 GROUP        1 Z    ALL  0     ROOT ALL Z 15
     8 SEL2        8 GROUP        1 Z    SEL  0     **** SEL Z 16
     9 GLL5        5 GROUP        1 Z    GLL  0     **** GLL Z 20
@<TRIPOS>SET

