#    Name: 3vry_B43_1_ligand
#    Modification time : Tue Mar 25 01:22:12 2014

@<TRIPOS>MOLECULE
3vry_B43_1_ligand
   50    54     1     0     0
SMALL
NO_CHARGES


@<TRIPOS>ATOM
      1 N1          3.6810   -7.4130   12.3810 N.pl3     1 B43601      0.0000 
      2 C1          4.4150   -8.4770   11.9780 C.ar      1 B43601      0.0000 
      3 N4          5.5920   -8.2980   11.3290 N.ar      1 B43601      0.0000 
      4 C23         6.3330   -9.3380   10.9240 C.ar      1 B43601      0.0000 
      5 N3          5.9230  -10.5960   11.1660 N.ar      1 B43601      0.0000 
      6 C22         4.7490  -10.8450   11.8180 C.ar      1 B43601      0.0000 
      7 C2          3.9680   -9.7610   12.2430 C.ar      1 B43601      0.0000 
      8 N2          4.1200  -11.9810   12.2030 N.pl3     1 B43601      0.0000 
      9 C17         4.4160  -13.4330   12.0600 C.3       1 B43601      0.0000 
     10 C21         4.6650  -13.9460   10.6600 C.3       1 B43601      0.0000 
     11 C20         5.1480  -15.3670   10.9410 C.3       1 B43601      0.0000 
     12 C19         5.8400  -15.3390   12.3100 C.3       1 B43601      0.0000 
     13 C18         5.6010  -13.9490   12.8850 C.3       1 B43601      0.0000 
     14 C16         2.9950  -11.6650   12.8200 C.2       1 B43601      0.0000 
     15 C3          2.8560  -10.3030   12.9010 C.2       1 B43601      0.0000 
     16 C4          1.6070   -9.7830   13.5170 C.ar      1 B43601      0.0000 
     17 C15         1.1270  -10.3220   14.7160 C.ar      1 B43601      0.0000 
     18 C14        -0.1050   -9.8910   15.2340 C.ar      1 B43601      0.0000 
     19 C7         -0.8630   -8.9490   14.5390 C.ar      1 B43601      0.0000 
     20 C6         -0.3890   -8.4640   13.3200 C.ar      1 B43601      0.0000 
     21 C5          0.8310   -8.8790   12.7960 C.ar      1 B43601      0.0000 
     22 O          -2.0790   -8.4950   15.0140 O.3       1 B43601      0.0000 
     23 C8         -2.2930   -8.1540   16.3270 C.ar      1 B43601      0.0000 
     24 C13        -3.4400   -8.5870   17.0050 C.ar      1 B43601      0.0000 
     25 C12        -3.6570   -8.2160   18.3380 C.ar      1 B43601      0.0000 
     26 C11        -2.7250   -7.3950   18.9880 C.ar      1 B43601      0.0000 
     27 C10        -1.5860   -6.9530   18.3080 C.ar      1 B43601      0.0000 
     28 C9         -1.3780   -7.3300   16.9820 C.ar      1 B43601      0.0000 
     29 H           2.8553   -7.6212   12.9053 H         1 B43601      0.0000 
     30 H           4.0296   -6.5132   12.1187 H         1 B43601      0.0000 
     31 H           7.2333   -9.1739   10.4180 H         1 B43601      0.0000 
     32 H           3.5310  -14.0241   12.4406 H         1 B43601      0.0000 
     33 H           5.4345  -13.3939   10.1993 H         1 B43601      0.0000 
     34 H           3.7636  -13.9782   10.1162 H         1 B43601      0.0000 
     35 H           5.8533  -15.6644   10.1909 H         1 B43601      0.0000 
     36 H           4.3095  -16.0334   10.9788 H         1 B43601      0.0000 
     37 H           6.8898  -15.5037   12.1814 H         1 B43601      0.0000 
     38 H           5.3981  -16.0770   12.9471 H         1 B43601      0.0000 
     39 H           5.3216  -14.0204   13.9021 H         1 B43601      0.0000 
     40 H           6.4457  -13.3363   12.7154 H         1 B43601      0.0000 
     41 H           2.3343  -12.2946   13.1794 H         1 B43601      0.0000 
     42 H           1.6718  -11.0298   15.2165 H         1 B43601      0.0000 
     43 H          -0.4437  -10.2716   16.1240 H         1 B43601      0.0000 
     44 H          -0.9617   -7.7769   12.7924 H         1 B43601      0.0000 
     45 H           1.1543   -8.5253   11.8933 H         1 B43601      0.0000 
     46 H          -4.1257   -9.1800   16.5215 H         1 B43601      0.0000 
     47 H          -4.4889   -8.5413   18.8339 H         1 B43601      0.0000 
     48 H          -2.8802   -7.1191   19.9636 H         1 B43601      0.0000 
     49 H          -0.9055   -6.3523   18.7857 H         1 B43601      0.0000 
     50 H          -0.5407   -6.9969   16.4811 H         1 B43601      0.0000 
@<TRIPOS>BOND
     1    2    1 1    
     2   29    1 1    
     3   30    1 1    
     4    3    2 ar   
     5    7    2 ar   
     6    4    3 ar   
     7    5    4 ar   
     8   31    4 1    
     9    6    5 ar   
    10    7    6 ar   
    11    8    6 1    
    12   15    7 1    
    13    9    8 1    
    14   14    8 1    
    15   10    9 1    
    16   13    9 1    
    17   32    9 1    
    18   11   10 1    
    19   33   10 1    
    20   34   10 1    
    21   12   11 1    
    22   35   11 1    
    23   36   11 1    
    24   13   12 1    
    25   37   12 1    
    26   38   12 1    
    27   39   13 1    
    28   40   13 1    
    29   15   14 2    
    30   41   14 1    
    31   16   15 1    
    32   17   16 ar   
    33   21   16 ar   
    34   18   17 ar   
    35   42   17 1    
    36   19   18 ar   
    37   43   18 1    
    38   20   19 ar   
    39   22   19 1    
    40   21   20 ar   
    41   44   20 1    
    42   45   21 1    
    43   23   22 1    
    44   24   23 ar   
    45   28   23 ar   
    46   25   24 ar   
    47   46   24 1    
    48   26   25 ar   
    49   47   25 1    
    50   27   26 ar   
    51   48   26 1    
    52   28   27 ar   
    53   49   27 1    
    54   50   28 1    
@<TRIPOS>SUBSTRUCTURE
     1 B43601      1 GROUP   
@<TRIPOS>SET

