#    Name: 3que_3FF_1_INTS_M
#    Modification time : Tue Mar 25 10:09:41 2014

@<TRIPOS>MOLECULE
3que_3FF_1_INTS_M
   80     0     9     0     0
SMALL
NO_CHARGES


@<TRIPOS>ATOM
      1 N           2.0240    5.0020   24.1635 N.am      2 SEC2        0.0000 
      2 N           2.3180    3.9460   23.0190 N.am      8 SEL2        0.0000 
      3 N           1.7300    6.0580   25.3080 N.am      5 SEP2        0.0000 
      4 O           2.0700    5.2535   29.6005 O.2       1 ALC1        0.0000 
      5 O           3.3050    5.6500   30.5640 O.2       7 ALL1        0.0000 
      6 O           0.8350    4.8570   28.6370 O.2       4 ALP1        0.0000 
      7 CA          4.9490   -0.6470   13.4255 C.3       3 GLC5        0.0000 
      8 CA          6.0590    0.6140   14.8610 C.3       9 GLL5        0.0000 
      9 CA          3.8390   -1.9080   11.9900 C.3       6 GLP5        0.0000 
     10 CA          6.5665    0.9705   13.1280 C.3       3 GLC5        0.0000 
     11 CA          7.0740    1.3270   11.3950 C.3       6 GLP5        0.0000 
     12 CA          7.7820    1.6750   15.2970 C.3       3 GLC5        0.0000 
     13 CA          9.5050    2.7360   15.7330 C.3       6 GLP5        0.0000 
     14 CA          6.1725   -0.4325   21.2755 C.3       3 GLC5        0.0000 
     15 CA          5.9520    0.0610   19.5230 C.3       9 GLL5        0.0000 
     16 CA          6.3930   -0.9260   23.0280 C.3       6 GLP5        0.0000 
     17 CA          8.0945    0.4000   19.5575 C.3       3 GLC5        0.0000 
     18 CA         10.2370    0.7390   19.5920 C.3       6 GLP5        0.0000 
     19 CA          3.9665   -1.1300   13.9105 C.3       3 GLC5        0.0000 
     20 CA          4.0940   -0.3520   15.8310 C.3       9 GLL5        0.0000 
     21 CA          4.3170    1.6800   16.7300 C.3       3 GLC5        0.0000 
     22 CA          4.5400    3.7120   17.6290 C.3       6 GLP5        0.0000 
     23 CA          4.1355    3.9595   24.9445 C.3       3 GLC5        0.0000 
     24 CA          2.5350    2.9430   25.6320 C.3       9 GLL5        0.0000 
     25 CA          5.7360    4.9760   24.2570 C.3       6 GLP5        0.0000 
     26 CA          3.0340    5.6020   28.2030 C.3       3 GLC5        0.0000 
     27 CA          4.3330    5.2260   29.6510 C.3       9 GLL5        0.0000 
     28 CA          1.7350    5.9780   26.7550 C.3       6 GLP5        0.0000 
     29 CA         -1.9610    0.5225   24.7555 C.3       3 GLC5        0.0000 
     30 CA         -0.0140    0.5610   24.1130 C.3       9 GLL5        0.0000 
     31 CA         -3.9080    0.4840   25.3980 C.3       6 GLP5        0.0000 
     32 CA          2.5975    4.3935   27.9655 C.3       3 GLC5        0.0000 
     33 CA          3.4600    2.8090   29.1760 C.3       9 GLL5        0.0000 
     34 CA          4.4775    2.0075   27.3925 C.3       3 GLC5        0.0000 
     35 CA          2.3780    2.6240   26.9720 C.3       9 GLL5        0.0000 
     36 CA          6.5770    1.3910   27.8130 C.3       6 GLP5        0.0000 
     37 CA         -0.3275    2.6750   26.2155 C.3       3 GLC5        0.0000 
     38 CA          0.8410    1.3450   25.0640 C.3       9 GLL5        0.0000 
     39 CA         -1.4960    4.0050   27.3670 C.3       6 GLP5        0.0000 
     40 CA          2.8435    0.7690   17.4955 C.3       3 GLC5        0.0000 
     41 CA          3.9970   -0.6450   18.2300 C.3       9 GLL5        0.0000 
     42 CA          1.6900    2.1830   16.7610 C.3       6 GLP5        0.0000 
     43 CA          5.4175    2.2447   15.8160 C.3       3 GLC5        0.0000 
     44 CA          5.1190    4.0880   16.2270 C.3       6 GLP5        0.0000 
     45 CA          6.0040    1.4538   20.0122 C.3       3 GLC5        0.0000 
     46 CA          5.2960   -0.1060   18.3420 C.3       9 GLL5        0.0000 
     47 CA          6.3840    2.9300   21.0920 C.3       6 GLP5        0.0000 
     48 CA          2.4355    1.3438   18.4778 C.3       3 GLC5        0.0000 
     49 CA          3.3890    1.1640   20.1500 C.3       9 GLL5        0.0000 
     50 CA          3.8860    2.6658   19.1365 C.3       3 GLC5        0.0000 
     51 CA          1.3310    1.0773   19.8805 C.3       3 GLC5        0.0000 
     52 CA         -0.5700    0.5350   19.1170 C.3       6 GLP5        0.0000 
     53 CA          1.8230    4.0615   26.9627 C.3       3 GLC5        0.0000 
     54 CA          1.2445   -0.7500   25.9342 C.3       3 GLC5        0.0000 
     55 CA          0.6650    0.9990   26.4070 C.3       9 GLL5        0.0000 
     56 CA          1.7360   -2.6720   26.1330 C.3       6 GLP5        0.0000 
     57 CA          4.6370   -2.5145   17.6620 C.3       3 GLC5        0.0000 
     58 CA          5.5690   -4.3290   17.7160 C.3       6 GLP5        0.0000 
     59 CA          6.7060   -1.4266   18.1474 C.3       3 GLC5        0.0000 
     60 CA          5.9680    0.3020   17.2050 C.3       9 GLL5        0.0000 
     61 CA          7.6160   -2.9930   18.2260 C.3       6 GLP5        0.0000 
     62 CA          7.1300   -0.5581   15.1270 C.3       3 GLC5        0.0000 
     63 CA          8.4180   -1.4680   13.9490 C.3       6 GLP5        0.0000 
     64 CA          4.2250   -1.6618   21.2823 C.3       3 GLC5        0.0000 
     65 CA          2.9730   -0.1550   20.2390 C.3       9 GLL5        0.0000 
     66 CA          5.8590   -2.9680   21.7820 C.3       6 GLP5        0.0000 
     67 CA          1.0105    0.0897   19.9498 C.3       3 GLC5        0.0000 
     68 CA          1.9415    4.3025   25.9563 C.3       3 GLC5        0.0000 
     69 CA          1.7610    2.3110   24.6830 C.3       9 GLL5        0.0000 
     70 CA         -0.8315   -0.2047   22.2685 C.3       3 GLC5        0.0000 
     71 CA         -2.1600   -0.5230   20.7740 C.3       6 GLP5        0.0000 
     72 CA          1.1165   -1.2793   24.9480 C.3       3 GLC5        0.0000 
     73 CA          5.2945    2.3245   28.6535 C.3       3 GLC5        0.0000 
     74 CA          3.1266    1.0004   16.4699 C.3       3 GLC5        0.0000 
     75 CA          3.4130   -0.7550   16.9860 C.3       9 GLL5        0.0000 
     76 CA          0.1101    2.9916   27.1485 C.3       3 GLC5        0.0000 
     77 CA          0.7600    0.7708   20.6953 C.3       3 GLC5        0.0000 
     78 CA          2.3070    1.6670   22.2200 C.3       9 GLL5        0.0000 
     79 CA          4.7182    1.7297   17.8892 C.3       3 GLC5        0.0000 
     80 CA          4.5768    2.2866   21.2620 C.3       3 GLC5        0.0000 
@<TRIPOS>BOND
@<TRIPOS>SUBSTRUCTURE
     1 ALC1        4 GROUP        1 X    ALC  0     ROOT ALC X 1
     2 SEC2        1 GROUP        1 X    SEC  0     **** SEC X 2
     3 GLC5        7 GROUP        1 X    GLC  0     **** GLC X 6
     4 ALP1        6 GROUP        1 Y    ALP  0     ROOT ALP Y 8
     5 SEP2        3 GROUP        1 Y    SEP  0     **** SEP Y 9
     6 GLP5        9 GROUP        1 Y    GLP  0     **** GLP Y 13
     7 ALL1        5 GROUP        1 Z    ALL  0     ROOT ALL Z 15
     8 SEL2        2 GROUP        1 Z    SEL  0     **** SEL Z 16
     9 GLL5        8 GROUP        1 Z    GLL  0     **** GLL Z 20
@<TRIPOS>SET

