#    Name: 3que_3FF_1_ligand
#    Modification time : Tue Mar 25 10:09:42 2014

@<TRIPOS>MOLECULE
3que_3FF_1_ligand
   52    55     1     0     0
SMALL
NO_CHARGES


@<TRIPOS>ATOM
      1 OAA         2.3180    3.9460   23.0190 O.2       1 3FF362      0.0000 
      2 OAB         3.3050    5.6500   30.5640 O.3       1 3FF362      0.0000 
      3 OAC         4.6640    3.4050   31.2010 O.3       1 3FF362      0.0000 
      4 FAD         6.0590    0.6140   14.8610 F         1 3FF362      0.0000 
      5 FAE         5.9520    0.0610   19.5230 F         1 3FF362      0.0000 
      6 CAF         4.0940   -0.3520   15.8310 C.ar      1 3FF362      0.0000 
      7 CAG         3.3890    1.1640   20.1500 C.ar      1 3FF362      0.0000 
      8 CAH         1.4440    1.6660   27.3690 C.ar      1 3FF362      0.0000 
      9 CAI         0.6650    0.9990   26.4070 C.ar      1 3FF362      0.0000 
     10 CAJ         3.4130   -0.7550   16.9860 C.ar      1 3FF362      0.0000 
     11 CAK         3.0750    2.0750   21.1380 C.ar      1 3FF362      0.0000 
     12 CAL         5.9680    0.3020   17.2050 C.ar      1 3FF362      0.0000 
     13 CAM         2.2090   -0.5560   21.3260 C.ar      1 3FF362      0.0000 
     14 CAN         2.5350    2.9430   25.6320 C.ar      1 3FF362      0.0000 
     15 CAO         4.3330    5.2260   29.6510 C.3       1 3FF362      0.0000 
     16 CAP        -0.0140    0.5610   24.1130 C.3       1 3FF362      0.0000 
     17 CAQ         1.0080   -0.3340   23.4130 C.3       1 3FF362      0.0000 
     18 CAR         3.4600    2.8090   29.1760 C.3       1 3FF362      0.0000 
     19 NAS         3.2840   -1.0430   19.2800 N.pl3     1 3FF362      0.0000 
     20 OAT         3.1610    3.3180   27.8470 O.3       1 3FF362      0.0000 
     21 CAU         2.0720    2.7620   23.2550 C.2       1 3FF362      0.0000 
     22 CAV         5.3730    0.1890   15.9490 C.ar      1 3FF362      0.0000 
     23 CAW         2.9730   -0.1550   20.2390 C.ar      1 3FF362      0.0000 
     24 CAX         5.2960   -0.1060   18.3420 C.ar      1 3FF362      0.0000 
     25 CAY         2.3780    2.6240   26.9720 C.ar      1 3FF362      0.0000 
     26 CAZ         0.8410    1.3450   25.0640 C.ar      1 3FF362      0.0000 
     27 CBA         1.8730    0.3460   22.3270 C.ar      1 3FF362      0.0000 
     28 CBB         3.9970   -0.6450   18.2300 C.ar      1 3FF362      0.0000 
     29 CBC         2.3070    1.6670   22.2200 C.ar      1 3FF362      0.0000 
     30 CBD         1.7610    2.3110   24.6830 C.ar      1 3FF362      0.0000 
     31 CBE         4.5640    3.7070   29.8120 C.3       1 3FF362      0.0000 
     32 H           3.6564   -0.4544   14.9145 H         1 3FF362      0.0000 
     33 H           3.9441    1.4682   19.3282 H         1 3FF362      0.0000 
     34 H           1.3221    1.4448   28.3631 H         1 3FF362      0.0000 
     35 H          -0.0015    0.2908   26.6822 H         1 3FF362      0.0000 
     36 H           2.4559   -1.1406   16.8946 H         1 3FF362      0.0000 
     37 H           3.4040    3.0446   21.0768 H         1 3FF362      0.0000 
     38 H           6.9207    0.6952   17.2810 H         1 3FF362      0.0000 
     39 H           1.8866   -1.5360   21.3916 H         1 3FF362      0.0000 
     40 H           3.2283    3.6500   25.3507 H         1 3FF362      0.0000 
     41 H           5.2826    5.7262   29.8482 H         1 3FF362      0.0000 
     42 H           4.0536    5.4082   28.6120 H         1 3FF362      0.0000 
     43 H          -0.7050   -0.0406   24.6427 H         1 3FF362      0.0000 
     44 H          -0.4657    1.2025   23.4027 H         1 3FF362      0.0000 
     45 H           0.4781   -1.1913   22.9489 H         1 3FF362      0.0000 
     46 H           1.6864   -0.7704   24.1749 H         1 3FF362      0.0000 
     47 H           3.8431    1.7949   29.1415 H         1 3FF362      0.0000 
     48 H           2.5926    2.8475   29.8260 H         1 3FF362      0.0000 
     49 H           2.9671   -2.0318   19.3635 H         1 3FF362      0.0000 
     50 H           5.5077    3.4620   29.3135 H         1 3FF362      0.0000 
     51 H           2.4444    5.4464   30.0972 H         1 3FF362      0.0000 
     52 H           4.0070    4.0135   31.6459 H         1 3FF362      0.0000 
@<TRIPOS>BOND
     1   21    1 2    
     2   15    2 1    
     3   51    2 1    
     4   31    3 1    
     5   52    3 1    
     6   22    4 1    
     7   24    5 1    
     8   10    6 ar   
     9   22    6 ar   
    10   32    6 1    
    11   11    7 ar   
    12   23    7 ar   
    13   33    7 1    
    14    9    8 ar   
    15   25    8 ar   
    16   34    8 1    
    17   26    9 ar   
    18   35    9 1    
    19   28   10 ar   
    20   36   10 1    
    21   29   11 ar   
    22   37   11 1    
    23   22   12 ar   
    24   24   12 ar   
    25   38   12 1    
    26   23   13 ar   
    27   27   13 ar   
    28   39   13 1    
    29   25   14 ar   
    30   30   14 ar   
    31   40   14 1    
    32   31   15 1    
    33   41   15 1    
    34   42   15 1    
    35   17   16 1    
    36   26   16 1    
    37   43   16 1    
    38   44   16 1    
    39   27   17 1    
    40   45   17 1    
    41   46   17 1    
    42   20   18 1    
    43   31   18 1    
    44   47   18 1    
    45   48   18 1    
    46   23   19 1    
    47   28   19 1    
    48   49   19 1    
    49   25   20 1    
    50   29   21 1    
    51   30   21 1    
    52   28   24 ar   
    53   30   26 ar   
    54   29   27 ar   
    55   50   31 1    
@<TRIPOS>SUBSTRUCTURE
     1 3FF362      1 GROUP   
@<TRIPOS>SET

