#    Name: 4bfm_ANP_1_INTS_M
#    Modification time : Tue Mar 25 07:36:04 2014

@<TRIPOS>MOLECULE
4bfm_ANP_1_INTS_M
   67     0    12     0     0
SMALL
NO_CHARGES


@<TRIPOS>ATOM
      1 N          -3.2965  -16.8800  -33.8270 N.am      2 SEC2        0.0000 
      2 N          -4.2640  -17.8030  -34.1850 N.am     10 SEL2        0.0000 
      3 N          -2.3290  -15.9570  -33.4690 N.am      6 SEP2        0.0000 
      4 N          -7.7845  -18.4245  -32.9835 N.am      2 SEC2        0.0000 
      5 N          -6.5490  -18.2570  -33.2390 N.am     10 SEL2        0.0000 
      6 N          -9.0200  -18.5920  -32.7280 N.am      6 SEP2        0.0000 
      7 N          -7.7595  -18.7100  -30.4575 N.am      2 SEC2        0.0000 
      8 N          -6.9910  -17.5610  -30.5740 N.am     10 SEL2        0.0000 
      9 N          -8.5280  -19.8590  -30.3410 N.am      6 SEP2        0.0000 
     10 N          -7.9175  -17.8625  -29.3865 N.am      2 SEC2        0.0000 
     11 N          -8.8440  -18.1640  -28.1990 N.am      6 SEP2        0.0000 
     12 NZ         -4.2455  -16.1525  -28.4475 N.4       3 LYC4        0.0000 
     13 NZ         -5.0950  -16.9160  -29.1350 N.4      11 LYL4        0.0000 
     14 NZ         -3.3960  -15.3890  -27.7600 N.4       7 LYP4        0.0000 
     15 N          -4.2455  -16.1525  -28.4475 N.am      2 SEC2        0.0000 
     16 N          -5.0950  -16.9160  -29.1350 N.am     10 SEL2        0.0000 
     17 N          -3.3960  -15.3890  -27.7600 N.am      6 SEP2        0.0000 
     18 NZ         -3.8285  -14.5770  -28.8560 N.4       3 LYC4        0.0000 
     19 NZ         -4.2610  -13.7650  -29.9520 N.4      11 LYL4        0.0000 
     20 N          -3.8285  -14.5770  -28.8560 N.am      2 SEC2        0.0000 
     21 N          -4.2610  -13.7650  -29.9520 N.am     10 SEL2        0.0000 
     22 CA         -9.6530  -13.0685  -31.1250 C.3       4 GLC5        0.0000 
     23 CA         -7.6100  -12.5410  -31.3830 C.3      12 GLL5        0.0000 
     24 CA        -11.6960  -13.5960  -30.8670 C.3       8 GLP5        0.0000 
     25 CA         -8.5755  -14.3985  -31.8975 C.3       4 GLC5        0.0000 
     26 CA         -9.5410  -16.2560  -32.4120 C.3       8 GLP5        0.0000 
     27 CA         -9.7960  -10.4710  -31.0250 C.3       4 GLC5        0.0000 
     28 CA         -7.9540  -11.0990  -31.6900 C.3      12 GLL5        0.0000 
     29 CA        -11.6380   -9.8430  -30.3600 C.3       8 GLP5        0.0000 
     30 CA         -4.7405  -10.4190  -32.2620 C.3       4 GLC5        0.0000 
     31 CA         -6.8900  -10.3030  -32.4310 C.3      12 GLL5        0.0000 
     32 CA         -2.5910  -10.5350  -32.0930 C.3       8 GLP5        0.0000 
     33 O          -6.9630   -9.9545  -34.9415 O.2       1 ALC1        0.0000 
     34 O          -6.8940  -10.5430  -33.8310 O.2       9 ALL1        0.0000 
     35 O          -7.0320   -9.3660  -36.0520 O.2       5 ALP1        0.0000 
     36 CA         -5.5290   -7.7320  -32.7975 C.3       4 GLC5        0.0000 
     37 CA         -7.2950   -8.8710  -32.0840 C.3      12 GLL5        0.0000 
     38 CA         -3.7630   -6.5930  -33.5110 C.3       8 GLP5        0.0000 
     39 CA         -9.6595   -9.4370  -30.4875 C.3       4 GLC5        0.0000 
     40 CA         -7.6810   -9.0310  -30.6150 C.3      12 GLL5        0.0000 
     41 CA         -8.3775   -9.9695  -28.7010 C.3       4 GLC5        0.0000 
     42 CA         -9.0740  -10.9080  -26.7870 C.3       8 GLP5        0.0000 
     43 O          -2.7035   -6.0780  -26.1020 O.2       1 ALC1        0.0000 
     44 O          -3.3800   -7.0130  -26.8720 O.2       9 ALL1        0.0000 
     45 O          -2.0270   -5.1430  -25.3320 O.2       5 ALP1        0.0000 
     46 N          -4.3790   -4.2270  -27.4765 N.am      2 SEC2        0.0000 
     47 N          -5.0140   -5.6460  -27.7750 N.am     10 SEL2        0.0000 
     48 N          -3.7440   -2.8080  -27.1780 N.am      6 SEP2        0.0000 
     49 CA         -7.7585   -5.7250  -27.6965 C.3       4 GLC5        0.0000 
     50 CA         -6.0810   -5.5030  -28.5620 C.3      12 GLL5        0.0000 
     51 CA         -9.4360   -5.9470  -26.8310 C.3       8 GLP5        0.0000 
     52 CA         -6.0380   -6.1755  -26.4880 C.3       4 GLC5        0.0000 
     53 CA         -5.9950   -6.8480  -24.4140 C.3       8 GLP5        0.0000 
     54 CA         -4.7515   -3.8060  -28.4895 C.3       4 GLC5        0.0000 
     55 CA         -3.4220   -2.1090  -28.4170 C.3       8 GLP5        0.0000 
     56 CA         -4.7335   -6.1010  -29.7910 C.3       4 GLC5        0.0000 
     57 CA         -3.3860   -6.6990  -31.0200 C.3       8 GLP5        0.0000 
     58 CA         -7.7980   -6.7910  -27.9750 C.3       4 GLC5        0.0000 
     59 CA         -6.1600   -7.6350  -29.1190 C.3      12 GLL5        0.0000 
     60 CA         -8.0480  -11.9740  -29.4343 C.3       4 GLC5        0.0000 
     61 CA         -8.3140  -12.1280  -27.3320 C.3       8 GLP5        0.0000 
     62 CA         -6.8650   -8.8410  -27.4175 C.3       4 GLC5        0.0000 
     63 CA         -8.1220   -9.8930  -26.1010 C.3       8 GLP5        0.0000 
     64 CA         -5.3752   -7.1282  -26.2050 C.3       4 GLC5        0.0000 
     65 CA         -5.0560   -7.9430  -28.3490 C.3      12 GLL5        0.0000 
     66 CA         -4.4219   -7.1104  -29.7888 C.3       4 GLC5        0.0000 
     67 CA         -4.4550   -6.8740  -27.6430 C.3      12 GLL5        0.0000 
@<TRIPOS>BOND
@<TRIPOS>SUBSTRUCTURE
     1 ALC1       33 GROUP        1 X    ALC  0     ROOT ALC X 1
     2 SEC2        1 GROUP        1 X    SEC  0     **** SEC X 2
     3 LYC4       12 GROUP        1 X    LYC  0     **** LYC X 4
     4 GLC5       22 GROUP        1 X    GLC  0     **** GLC X 6
     5 ALP1       35 GROUP        1 Y    ALP  0     ROOT ALP Y 8
     6 SEP2        3 GROUP        1 Y    SEP  0     **** SEP Y 9
     7 LYP4       14 GROUP        1 Y    LYP  0     **** LYP Y 11
     8 GLP5       24 GROUP        1 Y    GLP  0     **** GLP Y 13
     9 ALL1       34 GROUP        1 Z    ALL  0     ROOT ALL Z 15
    10 SEL2        2 GROUP        1 Z    SEL  0     **** SEL Z 16
    11 LYL4       13 GROUP        1 Z    LYL  0     **** LYL Z 18
    12 GLL5       23 GROUP        1 Z    GLL  0     **** GLL Z 20
@<TRIPOS>SET

