#    Name: 4bfm_ANP_1_ligand
#    Modification time : Tue Mar 25 07:36:04 2014

@<TRIPOS>MOLECULE
4bfm_ANP_1_ligand
   43    45     1     0     0
SMALL
NO_CHARGES


@<TRIPOS>ATOM
      1 PG         -5.3410  -17.2440  -33.3070 P.3       1 ANP1000     0.0000 
      2 O1G        -4.2640  -17.8030  -34.1850 O.co2     1 ANP1000     0.0000 
      3 O2G        -6.5490  -18.2570  -33.2390 O.co2     1 ANP1000     0.0000 
      4 O3G        -5.8620  -15.8800  -33.9300 O.co2     1 ANP1000     0.0000 
      5 PB         -5.8030  -16.6450  -30.4980 P.3       1 ANP1000     0.0000 
      6 O1B        -6.9910  -17.5610  -30.5740 O.co2     1 ANP1000     0.0000 
      7 O2B        -5.0950  -16.9160  -29.1350 O.co2     1 ANP1000     0.0000 
      8 N3B        -4.7020  -16.9640  -31.7460 N.4       1 ANP1000     0.0000 
      9 PA         -5.3930  -13.8940  -30.9040 P.3       1 ANP1000     0.0000 
     10 O1A        -4.2610  -13.7650  -29.9520 O.co2     1 ANP1000     0.0000 
     11 O2A        -4.9840  -14.0560  -32.3720 O.co2     1 ANP1000     0.0000 
     12 O3A        -6.3170  -15.1480  -30.5240 O.3       1 ANP1000     0.0000 
     13 O5'        -6.3150  -12.6180  -30.7460 O.3       1 ANP1000     0.0000 
     14 C5'        -7.6100  -12.5410  -31.3830 C.3       1 ANP1000     0.0000 
     15 C4'        -7.9540  -11.0990  -31.6900 C.3       1 ANP1000     0.0000 
     16 O4'        -8.1580  -10.3590  -30.4630 O.3       1 ANP1000     0.0000 
     17 C3'        -6.8900  -10.3030  -32.4310 C.3       1 ANP1000     0.0000 
     18 O3'        -6.8940  -10.5430  -33.8310 O.3       1 ANP1000     0.0000 
     19 C2'        -7.2950   -8.8710  -32.0840 C.3       1 ANP1000     0.0000 
     20 O2'        -8.4340   -8.4700  -32.8370 O.3       1 ANP1000     0.0000 
     21 C1'        -7.6810   -9.0310  -30.6150 C.3       1 ANP1000     0.0000 
     22 N9         -6.5580   -8.8260  -29.6970 N.pl3     1 ANP1000     0.0000 
     23 C8         -5.6580   -9.7620  -29.2490 C.2       1 ANP1000     0.0000 
     24 N7         -4.7460   -9.2880  -28.4440 N.2       1 ANP1000     0.0000 
     25 C5         -5.0560   -7.9430  -28.3490 C.ar      1 ANP1000     0.0000 
     26 C6         -4.4550   -6.8740  -27.6430 C.ar      1 ANP1000     0.0000 
     27 N6         -3.3800   -7.0130  -26.8720 N.pl3     1 ANP1000     0.0000 
     28 N1         -5.0140   -5.6460  -27.7750 N.ar      1 ANP1000     0.0000 
     29 C2         -6.0810   -5.5030  -28.5620 C.ar      1 ANP1000     0.0000 
     30 N3         -6.7280   -6.4300  -29.2710 N.ar      1 ANP1000     0.0000 
     31 C4         -6.1600   -7.6350  -29.1190 C.ar      1 ANP1000     0.0000 
     32 H          -8.3938  -12.9523  -30.7353 H         1 ANP1000     0.0000 
     33 H          -7.6220  -13.1062  -32.3229 H         1 ANP1000     0.0000 
     34 H          -8.8685  -11.0567  -32.2754 H         1 ANP1000     0.0000 
     35 H          -5.9541  -10.4924  -31.9540 H         1 ANP1000     0.0000 
     36 H          -6.4664   -8.2535  -32.1512 H         1 ANP1000     0.0000 
     37 H          -8.4731   -8.3270  -30.4034 H         1 ANP1000     0.0000 
     38 H          -5.7259  -10.7251  -29.5379 H         1 ANP1000     0.0000 
     39 H          -3.0244   -7.9427  -26.7763 H         1 ANP1000     0.0000 
     40 H          -3.0244   -6.1752  -26.4576 H         1 ANP1000     0.0000 
     41 H          -6.4857   -4.4746  -28.6377 H         1 ANP1000     0.0000 
     42 H          -7.1531   -9.6692  -34.2425 H         1 ANP1000     0.0000 
     43 H          -9.1911   -9.0089  -32.4676 H         1 ANP1000     0.0000 
@<TRIPOS>BOND
     1    2    1 ar   
     2    3    1 ar   
     3    4    1 ar   
     4    8    1 1    
     5    6    5 ar   
     6    7    5 ar   
     7    8    5 1    
     8   12    5 1    
     9   10    9 ar   
    10   11    9 ar   
    11   12    9 1    
    12   13    9 1    
    13   14   13 1    
    14   15   14 1    
    15   32   14 1    
    16   33   14 1    
    17   16   15 1    
    18   17   15 1    
    19   34   15 1    
    20   21   16 1    
    21   18   17 1    
    22   19   17 1    
    23   35   17 1    
    24   42   18 1    
    25   20   19 1    
    26   21   19 1    
    27   36   19 1    
    28   43   20 1    
    29   22   21 1    
    30   37   21 1    
    31   23   22 1    
    32   31   22 1    
    33   24   23 2    
    34   38   23 1    
    35   25   24 1    
    36   26   25 ar   
    37   31   25 ar   
    38   27   26 1    
    39   28   26 ar   
    40   39   27 1    
    41   40   27 1    
    42   29   28 ar   
    43   30   29 ar   
    44   41   29 1    
    45   31   30 ar   
@<TRIPOS>SUBSTRUCTURE
     1 ANP1000     1 GROUP   
@<TRIPOS>SET

