#    Name: 4bqp_VMY_3_INTS_M
#    Modification time : Tue Mar 25 08:06:40 2014

@<TRIPOS>MOLECULE
4bqp_VMY_3_INTS_M
   68     0     9     0     0
SMALL
NO_CHARGES


@<TRIPOS>ATOM
      1 CA          2.7465    1.0440    8.5395 C.3       3 GLC5        0.0000 
      2 CA          1.7330    1.0920   10.1060 C.3       9 GLL5        0.0000 
      3 CA          3.7600    0.9960    6.9730 C.3       6 GLP5        0.0000 
      4 CA          1.0850    2.5610    8.7900 C.3       3 GLC5        0.0000 
      5 CA          0.4370    4.0300    7.4740 C.3       6 GLP5        0.0000 
      6 CA          0.7085    3.4960   11.3475 C.3       3 GLC5        0.0000 
      7 CA          0.7730    1.7040   12.1560 C.3       9 GLL5        0.0000 
      8 CA          0.6440    5.2880   10.5390 C.3       6 GLP5        0.0000 
      9 CA         -1.9765   -0.3235   14.8025 C.3       3 GLC5        0.0000 
     10 CA         -0.5900    0.1100   13.3320 C.3       9 GLL5        0.0000 
     11 CA         -3.3630   -0.7570   16.2730 C.3       6 GLP5        0.0000 
     12 CA          0.5975   -2.8345   13.5370 C.3       3 GLC5        0.0000 
     13 CA         -0.9540   -2.0000   12.3780 C.3       9 GLL5        0.0000 
     14 CA          2.1490   -3.6690   14.6960 C.3       6 GLP5        0.0000 
     15 CA         -2.4360   -3.0810   11.2545 C.3       3 GLC5        0.0000 
     16 CA         -3.9180   -4.1620   10.1310 C.3       6 GLP5        0.0000 
     17 CA          2.9615   -6.1340   11.4380 C.3       3 GLC5        0.0000 
     18 CA          2.9290   -4.1570   11.0060 C.3       9 GLL5        0.0000 
     19 CA          2.9940   -8.1110   11.8700 C.3       6 GLP5        0.0000 
     20 O           5.7750   -3.8565   11.7360 O.2       1 ALC1        0.0000 
     21 O           5.1730   -2.8630   11.0170 O.2       7 ALL1        0.0000 
     22 O           6.3770   -4.8500   12.4550 O.2       4 ALP1        0.0000 
     23 N           7.9535   -2.5300   12.0200 N.am      2 SEC2        0.0000 
     24 N           7.1520   -1.6240   11.0660 N.am      8 SEL2        0.0000 
     25 N           8.7550   -3.4360   12.9740 N.am      5 SEP2        0.0000 
     26 CA          4.5805   -0.9615   12.1995 C.3       3 GLC5        0.0000 
     27 CA          5.1310   -0.1620   10.4300 C.3       9 GLL5        0.0000 
     28 CA          4.0300   -1.7610   13.9690 C.3       6 GLP5        0.0000 
     29 CA          4.4455    0.4170    8.7015 C.3       3 GLC5        0.0000 
     30 CA          7.7200    1.2930   12.2350 C.3       3 GLC5        0.0000 
     31 CA          7.0050    2.0020   10.2230 C.3       9 GLL5        0.0000 
     32 CA          8.4350    0.5840   14.2470 C.3       6 GLP5        0.0000 
     33 CA         10.3580    1.7965   11.1275 C.3       3 GLC5        0.0000 
     34 CA          8.4820    2.3830   10.1200 C.3       9 GLL5        0.0000 
     35 CA         12.2340    1.2100   12.1350 C.3       6 GLP5        0.0000 
     36 CA          9.0285    3.7885   11.1610 C.3       3 GLC5        0.0000 
     37 CA          9.5750    5.1940   12.2020 C.3       6 GLP5        0.0000 
     38 CA          2.6110    4.2790   10.7645 C.3       3 GLC5        0.0000 
     39 CA          4.5780    3.2700   10.9900 C.3       9 GLL5        0.0000 
     40 CA          7.6980    4.6510   12.6205 C.3       3 GLC5        0.0000 
     41 CA          5.8210    4.1080   13.0390 C.3       9 GLL5        0.0000 
     42 CA          6.2300    5.9630   15.7610 C.3       3 GLC5        0.0000 
     43 CA          6.2130    4.7620   14.3260 C.3       9 GLL5        0.0000 
     44 CA          6.2470    7.1640   17.1960 C.3       6 GLP5        0.0000 
     45 CA          8.0635    4.5210   15.3705 C.3       3 GLC5        0.0000 
     46 CA          9.9140    4.2800   16.4150 C.3       6 GLP5        0.0000 
     47 CA          6.7685    6.0390   13.0170 C.3       3 GLC5        0.0000 
     48 CA          7.3240    7.3160   11.7080 C.3       6 GLP5        0.0000 
     49 CA          1.9455    0.4420   12.9367 C.3       3 GLC5        0.0000 
     50 CA          0.9530    0.7660   11.1650 C.3       9 GLL5        0.0000 
     51 CA          3.0280   -0.3510   14.2130 C.3       6 GLP5        0.0000 
     52 CA         -0.7650    0.9503   10.4079 C.3       3 GLC5        0.0000 
     53 CA         -2.5880    0.5840    9.4200 C.3       6 GLP5        0.0000 
     54 CA          1.3628    0.1943   13.7510 C.3       3 GLC5        0.0000 
     55 CA         -0.0150    1.3690   13.2460 C.3       9 GLL5        0.0000 
     56 CA         -1.8237    1.5107   13.8220 C.3       3 GLC5        0.0000 
     57 CA         -3.3450    2.2820   14.3550 C.3       6 GLP5        0.0000 
     58 CA          1.5112   -0.4925   12.9750 C.3       3 GLC5        0.0000 
     59 CA         -0.3870   -0.7740   12.2980 C.3       9 GLL5        0.0000 
     60 CA         -1.4341   -2.5645   13.4548 C.3       3 GLC5        0.0000 
     61 CA         -2.1470   -3.9630   14.3130 C.3       6 GLP5        0.0000 
     62 CA         -1.6546   -0.2910   11.0083 C.3       3 GLC5        0.0000 
     63 CA         -1.0415   -0.2112   10.0272 C.3       3 GLC5        0.0000 
     64 CA          0.3760   -0.4940   11.1760 C.3       9 GLL5        0.0000 
     65 CA          2.2207   -3.8070   12.7882 C.3       3 GLC5        0.0000 
     66 CA          1.6560   -3.7330   10.7550 C.3       9 GLL5        0.0000 
     67 CA          6.2865    2.7685   14.9668 C.3       3 GLC5        0.0000 
     68 CA          6.5560    1.1020   16.2510 C.3       6 GLP5        0.0000 
@<TRIPOS>BOND
@<TRIPOS>SUBSTRUCTURE
     1 ALC1       20 GROUP        1 X    ALC  0     ROOT ALC X 1
     2 SEC2       23 GROUP        1 X    SEC  0     **** SEC X 2
     3 GLC5        1 GROUP        1 X    GLC  0     **** GLC X 6
     4 ALP1       22 GROUP        1 Y    ALP  0     ROOT ALP Y 8
     5 SEP2       25 GROUP        1 Y    SEP  0     **** SEP Y 9
     6 GLP5        3 GROUP        1 Y    GLP  0     **** GLP Y 13
     7 ALL1       21 GROUP        1 Z    ALL  0     ROOT ALL Z 15
     8 SEL2       24 GROUP        1 Z    SEL  0     **** SEL Z 16
     9 GLL5        2 GROUP        1 Z    GLL  0     **** GLL Z 20
@<TRIPOS>SET

