#    Name: 4bqp_VMY_3_ligand
#    Modification time : Tue Mar 25 08:06:40 2014

@<TRIPOS>MOLECULE
4bqp_VMY_3_ligand
   45    48     1     0     0
SMALL
NO_CHARGES


@<TRIPOS>ATOM
      1 F1          1.7330    1.0920   10.1060 F         1 VMY1271     0.0000 
      2 C13         0.9530    0.7660   11.1650 C.ar      1 VMY1271     0.0000 
      3 C14         0.7730    1.7040   12.1560 C.ar      1 VMY1271     0.0000 
      4 C15        -0.0150    1.3690   13.2460 C.ar      1 VMY1271     0.0000 
      5 C16        -0.5900    0.1100   13.3320 C.ar      1 VMY1271     0.0000 
      6 C17        -0.3870   -0.7740   12.2980 C.ar      1 VMY1271     0.0000 
      7 F          -0.9540   -2.0000   12.3780 F         1 VMY1271     0.0000 
      8 C12         0.3760   -0.4940   11.1760 C.ar      1 VMY1271     0.0000 
      9 C11         0.6340   -1.5190   10.0930 C.3       1 VMY1271     0.0000 
     10 N4          1.7240   -2.4290   10.4450 N.pl3     1 VMY1271     0.0000 
     11 C10         1.6560   -3.7330   10.7550 C.2       1 VMY1271     0.0000 
     12 C9          2.9290   -4.1570   11.0060 C.2       1 VMY1271     0.0000 
     13 N5          2.9900   -1.9510   10.5260 N.2       1 VMY1271     0.0000 
     14 C8          3.7960   -3.0370   10.8510 C.2       1 VMY1271     0.0000 
     15 N3          5.1730   -2.8630   11.0170 N.pl3     1 VMY1271     0.0000 
     16 C7          5.8660   -1.6780   10.8580 C.2       1 VMY1271     0.0000 
     17 N2          7.1520   -1.6240   11.0660 N.2       1 VMY1271     0.0000 
     18 N1          7.6510   -0.3290   10.9260 N.2       1 VMY1271     0.0000 
     19 S1          5.1310   -0.1620   10.4300 S.3       1 VMY1271     0.0000 
     20 C6          6.7500    0.5260   10.5550 C.2       1 VMY1271     0.0000 
     21 C4          7.0050    2.0020   10.2230 C.3       1 VMY1271     0.0000 
     22 C5          8.4820    2.3830   10.1200 C.3       1 VMY1271     0.0000 
     23 O           6.4120    2.1760    8.9380 O.3       1 VMY1271     0.0000 
     24 C3          6.2280    2.8590   11.2130 C.2       1 VMY1271     0.0000 
     25 S           4.5780    3.2700   10.9900 S.3       1 VMY1271     0.0000 
     26 C2          4.5980    4.1460   12.4680 C.2       1 VMY1271     0.0000 
     27 N           6.7580    3.3630   12.3400 N.2       1 VMY1271     0.0000 
     28 C1          5.8210    4.1080   13.0390 C.2       1 VMY1271     0.0000 
     29 C           6.2130    4.7620   14.3260 C.3       1 VMY1271     0.0000 
     30 H           1.2073    2.6253   12.0940 H         1 VMY1271     0.0000 
     31 H          -0.1745    2.0586   13.9963 H         1 VMY1271     0.0000 
     32 H          -1.1494   -0.1493   14.1450 H         1 VMY1271     0.0000 
     33 H           0.8655   -0.9852    9.1558 H         1 VMY1271     0.0000 
     34 H          -0.2975   -2.0834    9.9182 H         1 VMY1271     0.0000 
     35 H           0.8693   -4.2761   10.7962 H         1 VMY1271     0.0000 
     36 H           3.2176   -5.0238   11.2412 H         1 VMY1271     0.0000 
     37 H           5.7369   -3.7306   11.2925 H         1 VMY1271     0.0000 
     38 H           3.7784    4.5270   12.6809 H         1 VMY1271     0.0000 
     39 H           8.9701    2.2123   10.9759 H         1 VMY1271     0.0000 
     40 H           8.9509    1.8626    9.4063 H         1 VMY1271     0.0000 
     41 H           8.6014    3.3518    9.9027 H         1 VMY1271     0.0000 
     42 H           7.1737    4.5967   14.5490 H         1 VMY1271     0.0000 
     43 H           6.0862    5.7534   14.2925 H         1 VMY1271     0.0000 
     44 H           5.6711    4.4230   15.0950 H         1 VMY1271     0.0000 
     45 H           7.0436    2.7701    8.4399 H         1 VMY1271     0.0000 
@<TRIPOS>BOND
     1    2    1 1    
     2    3    2 ar   
     3    8    2 ar   
     4    4    3 ar   
     5   30    3 1    
     6    5    4 ar   
     7   31    4 1    
     8    6    5 ar   
     9   32    5 1    
    10    7    6 1    
    11    8    6 ar   
    12    9    8 1    
    13   10    9 1    
    14   33    9 1    
    15   34    9 1    
    16   11   10 1    
    17   13   10 1    
    18   12   11 2    
    19   35   11 1    
    20   14   12 1    
    21   36   12 1    
    22   14   13 2    
    23   15   14 1    
    24   16   15 1    
    25   37   15 1    
    26   17   16 2    
    27   19   16 1    
    28   18   17 1    
    29   20   18 2    
    30   20   19 1    
    31   21   20 1    
    32   22   21 1    
    33   23   21 1    
    34   24   21 1    
    35   39   22 1    
    36   40   22 1    
    37   41   22 1    
    38   45   23 1    
    39   25   24 1    
    40   27   24 2    
    41   26   25 1    
    42   28   26 2    
    43   38   26 1    
    44   28   27 1    
    45   29   28 1    
    46   42   29 1    
    47   43   29 1    
    48   44   29 1    
@<TRIPOS>SUBSTRUCTURE
     1 VMY1271     1 GROUP   
@<TRIPOS>SET

