#    Name: 3V8S_3_CAVITY_N1_6.mol2
#    Modification time : Tue Mar 11 10:22:12 2014

@<TRIPOS>MOLECULE
3V8S_3_CAVITY_N1_6.mol2
   86     0     7     0     0
SMALL
NO_CHARGES


@<TRIPOS>ATOM
      1 CA        -73.9668  -45.1974   -8.6262 C.3       6 GLY6        0.0000 
      2 N         -75.2348  -45.7419   -8.0382 N.2       2 ALA2        0.0000 
      3 N         -77.7708  -46.8308   -6.8623 N.2       2 ALA2        0.0000 
      4 N         -79.0388  -47.3753   -6.2744 N.2       2 ALA2        0.0000 
      5 CA        -74.3784  -45.6990   -9.9785 C.3       6 GLY6        0.0000 
      6 CA        -75.6464  -46.2435   -9.3906 C.3       6 GLY6        0.0000 
      7 CA        -76.9145  -46.7880   -8.8026 C.3       6 GLY6        0.0000 
      8 CA        -78.1825  -47.3325   -8.2147 C.3       6 GLY6        0.0000 
      9 DU        -79.4505  -47.8769   -7.6268 H         7 CUB7        0.0000 
     10 OD1       -80.7185  -48.4214   -7.0388 O.3       3 ASP3        0.0000 
     11 CA        -74.7901  -46.2007  -11.3309 C.3       6 GLY6        0.0000 
     12 OD1       -76.0581  -46.7452  -10.7430 O.3       3 ASP3        0.0000 
     13 NZ        -77.3261  -47.2896  -10.1550 N.2       4 LYS4        0.0000 
     14 NZ        -78.5941  -47.8341   -9.5671 N.2       4 LYS4        0.0000 
     15 NZ        -79.8622  -48.3786   -8.9791 N.2       4 LYS4        0.0000 
     16 OD1       -81.1302  -48.9230   -8.3912 O.3       3 ASP3        0.0000 
     17 N         -75.4036  -47.0893   -5.8233 N.2       2 ALA2        0.0000 
     18 N         -76.6717  -47.6337   -5.2353 N.2       2 ALA2        0.0000 
     19 CA        -73.2793  -46.5020   -8.3515 C.3       6 GLY6        0.0000 
     20 CA        -74.5473  -47.0464   -7.7636 C.3       6 GLY6        0.0000 
     21 N         -75.8153  -47.5909   -7.1756 N.2       2 ALA2        0.0000 
     22 N         -77.0833  -48.1354   -6.5877 N.2       2 ALA2        0.0000 
     23 DU        -78.3513  -48.6799   -5.9997 H         7 CUB7        0.0000 
     24 CA        -73.6909  -47.0036   -9.7039 C.3       6 GLY6        0.0000 
     25 DU        -74.9589  -47.5481   -9.1160 H         7 CUB7        0.0000 
     26 DU        -76.2270  -48.0926   -8.5280 H         7 CUB7        0.0000 
     27 DU        -77.4950  -48.6370   -7.9401 H         7 CUB7        0.0000 
     28 DU        -78.7630  -49.1815   -7.3521 H         7 CUB7        0.0000 
     29 OD1       -80.0310  -49.7260   -6.7642 O.3       3 ASP3        0.0000 
     30 OD1       -74.1026  -47.5053  -11.0563 O.3       3 ASP3        0.0000 
     31 OD1       -75.3706  -48.0497  -10.4683 O.3       3 ASP3        0.0000 
     32 NZ        -76.6386  -48.5942   -9.8804 N.2       4 LYS4        0.0000 
     33 NZ        -77.9066  -49.1387   -9.2924 N.2       4 LYS4        0.0000 
     34 NZ        -79.1746  -49.6831   -8.7045 N.2       4 LYS4        0.0000 
     35 OD1       -80.4427  -50.2276   -8.1165 O.3       3 ASP3        0.0000 
     36 NZ        -77.0503  -49.0958  -11.2327 N.2       4 LYS4        0.0000 
     37 NZ        -78.3183  -49.6403  -10.6448 N.2       4 LYS4        0.0000 
     38 N         -79.5863  -50.1848  -10.0568 N.2       2 ALA2        0.0000 
     39 CZ        -74.7161  -48.3938   -5.5486 C.ar      5 PHE5        0.0000 
     40 DU        -75.9841  -48.9383   -4.9607 H         7 CUB7        0.0000 
     41 CZ        -73.8598  -48.3510   -7.4890 C.ar      5 PHE5        0.0000 
     42 DU        -75.1278  -48.8955   -6.9010 H         7 CUB7        0.0000 
     43 DU        -76.3958  -49.4400   -6.3131 H         7 CUB7        0.0000 
     44 DU        -77.6638  -49.9844   -5.7251 H         7 CUB7        0.0000 
     45 CZ        -73.0034  -48.3082   -9.4293 C.ar      5 PHE5        0.0000 
     46 CZ        -74.2714  -48.8527   -8.8413 C.ar      5 PHE5        0.0000 
     47 DU        -75.5394  -49.3971   -8.2534 H         7 CUB7        0.0000 
     48 DU        -76.8075  -49.9416   -7.6654 H         7 CUB7        0.0000 
     49 NZ        -78.0755  -50.4861   -7.0775 N.2       4 LYS4        0.0000 
     50 NZ        -73.4151  -48.8098  -10.7816 N.2       4 LYS4        0.0000 
     51 CA        -74.6831  -49.3543  -10.1937 C.3       6 GLY6        0.0000 
     52 CA        -75.9511  -49.8988   -9.6057 C.3       6 GLY6        0.0000 
     53 NZ        -77.2191  -50.4432   -9.0178 N.2       4 LYS4        0.0000 
     54 OD1       -75.0947  -49.8559  -11.5461 O.3       3 ASP3        0.0000 
     55 CA        -76.3628  -50.4004  -10.9581 C.3       6 GLY6        0.0000 
     56 CA        -77.6308  -50.9449  -10.3702 C.3       6 GLY6        0.0000 
     57 N         -75.7534  -43.0899  -10.5278 N.2       2 ALA2        0.0000 
     58 CA        -76.1651  -43.5915  -11.8802 C.3       6 GLY6        0.0000 
     59 O         -77.4331  -44.1360  -11.2922 O.2       2 ALA2        0.0000 
     60 O         -78.7011  -44.6805  -10.7043 O.2       2 ALA2        0.0000 
     61 N         -79.9692  -45.2250  -10.1163 N.2       2 ALA2        0.0000 
     62 N         -81.2372  -45.7694   -9.5284 N.2       2 ALA2        0.0000 
     63 CA        -77.8448  -44.6377  -12.6446 C.3       6 GLY6        0.0000 
     64 NZ        -79.1128  -45.1821  -12.0567 N.2       4 LYS4        0.0000 
     65 NZ        -80.2738  -48.8802  -10.3315 N.2       4 LYS4        0.0000 
     66 OD1       -81.5418  -49.4247   -9.7435 O.3       3 ASP3        0.0000 
     67 CZ        -73.1723  -49.6556   -7.2143 C.ar      5 PHE5        0.0000 
     68 DU        -74.4403  -50.2001   -6.6264 H         7 CUB7        0.0000 
     69 CA        -73.5839  -50.1572   -8.5667 C.3       6 GLY6        0.0000 
     70 CA        -74.8519  -50.7017   -7.9787 C.3       6 GLY6        0.0000 
     71 OG        -76.1199  -51.2462   -7.3908 O.2       1 SER1        0.0000 
     72 CA        -75.2636  -51.2033   -9.3311 C.3       6 GLY6        0.0000 
     73 OG        -76.5316  -51.7478   -8.7432 O.2       1 SER1        0.0000 
     74 CA        -75.0659  -44.3945  -10.2532 C.3       6 GLY6        0.0000 
     75 CA        -76.3340  -44.9389   -9.6652 C.3       6 GLY6        0.0000 
     76 CA        -80.1380  -46.5724   -7.9014 C.3       6 GLY6        0.0000 
     77 CA        -75.4776  -44.8961  -11.6055 C.3       6 GLY6        0.0000 
     78 CA        -76.7456  -45.4406  -11.0176 C.3       6 GLY6        0.0000 
     79 CA        -78.0136  -45.9851  -10.4297 C.3       6 GLY6        0.0000 
     80 CA        -79.2816  -46.5295   -9.8417 C.3       6 GLY6        0.0000 
     81 DU        -80.5497  -47.0740   -9.2538 H         7 CUB7        0.0000 
     82 OD1       -81.8177  -47.6185   -8.6658 O.3       3 ASP3        0.0000 
     83 CA        -77.1573  -45.9422  -12.3700 C.3       6 GLY6        0.0000 
     84 NZ        -78.4253  -46.4867  -11.7820 N.2       4 LYS4        0.0000 
     85 NZ        -80.9613  -47.5756  -10.6061 N.2       4 LYS4        0.0000 
     86 OD1       -82.2293  -48.1201  -10.0182 O.3       3 ASP3        0.0000 
@<TRIPOS>BOND
@<TRIPOS>SUBSTRUCTURE
     1 SER1       71 GROUP   
     2 ALA2        2 GROUP   
     3 ASP3       10 GROUP   
     4 LYS4       13 GROUP   
     5 PHE5       39 GROUP   
     6 GLY6        1 GROUP   
     7 CUB7        9 GROUP   
@<TRIPOS>SET

