#    Name: 3v8s_0HD_3_INTS_M
#    Modification time : Tue Mar 25 00:09:02 2014

@<TRIPOS>MOLECULE
3v8s_0HD_3_INTS_M
   58     0     9     0     0
SMALL
NO_CHARGES


@<TRIPOS>ATOM
      1 CA        -75.1075  -42.2895   -9.8695 C.3       3 GLC5        0.0000 
      2 CA        -76.1260  -43.8430  -10.9600 C.3       9 GLL5        0.0000 
      3 CA        -74.0890  -40.7360   -8.7790 C.3       6 GLP5        0.0000 
      4 O         -78.3195  -47.6000  -15.0910 O.2       1 ALC1        0.0000 
      5 O         -79.0300  -46.4720  -15.8110 O.2       7 ALL1        0.0000 
      6 O         -77.6090  -48.7280  -14.3710 O.2       4 ALP1        0.0000 
      7 CA        -80.3420  -43.4715  -19.3575 C.3       3 GLC5        0.0000 
      8 CA        -79.8930  -45.6100  -19.3830 C.3       9 GLL5        0.0000 
      9 CA        -80.7910  -41.3330  -19.3320 C.3       6 GLP5        0.0000 
     10 CA        -77.0840  -48.4630  -20.7100 C.3       3 GLC5        0.0000 
     11 CA        -77.9750  -47.1430  -19.3220 C.3       9 GLL5        0.0000 
     12 CA        -76.1930  -49.7830  -22.0980 C.3       6 GLP5        0.0000 
     13 O         -79.3475  -47.3080  -13.1785 O.2       1 ALC1        0.0000 
     14 O         -79.5040  -45.9490  -13.5130 O.2       7 ALL1        0.0000 
     15 O         -79.1910  -48.6670  -12.8440 O.2       4 ALP1        0.0000 
     16 O         -78.5565  -47.3385  -13.9420 O.2       1 ALC1        0.0000 
     17 CA        -80.7245  -43.1785  -12.8480 C.3       3 GLC5        0.0000 
     18 CA        -80.0700  -45.1620  -12.4670 C.3       9 GLL5        0.0000 
     19 CA        -81.3790  -41.1950  -13.2290 C.3       6 GLP5        0.0000 
     20 CA        -78.5845  -44.2950  -13.7405 C.3       3 GLC5        0.0000 
     21 CA        -77.0990  -43.4280  -15.0140 C.3       6 GLP5        0.0000 
     22 CA        -73.4205  -44.9555  -10.3255 C.3       3 GLC5        0.0000 
     23 CA        -75.3460  -44.8740  -10.4610 C.3       9 GLL5        0.0000 
     24 CA        -71.4950  -45.0370  -10.1900 C.3       6 GLP5        0.0000 
     25 CA        -78.6760  -42.5070  -10.4445 C.3       3 GLC5        0.0000 
     26 CA        -77.4850  -44.0340  -11.1730 C.3       9 GLL5        0.0000 
     27 CA        -79.8670  -40.9800   -9.7160 C.3       6 GLP5        0.0000 
     28 O         -78.2465  -46.3120  -22.5405 O.2       1 ALC1        0.0000 
     29 O         -79.1080  -46.1860  -21.3890 O.2       7 ALL1        0.0000 
     30 O         -77.3850  -46.4380  -23.6920 O.2       4 ALP1        0.0000 
     31 N         -80.6080  -45.5315  -22.9305 N.am      2 SEC2        0.0000 
     32 N         -80.1270  -45.3650  -21.6060 N.am      8 SEL2        0.0000 
     33 N         -81.0890  -45.6980  -24.2550 N.am      5 SEP2        0.0000 
     34 CA        -76.6128  -41.9978  -11.3727 C.3       3 GLC5        0.0000 
     35 CA        -76.4200  -40.0570  -11.6790 C.3       6 GLP5        0.0000 
     36 CA        -76.9523  -43.6833  -13.0403 C.3       3 GLC5        0.0000 
     37 CA        -79.9733  -47.7840  -18.4705 C.3       3 GLC5        0.0000 
     38 CA        -79.0300  -46.3870  -17.2430 C.3       9 GLL5        0.0000 
     39 CA        -81.4090  -48.8030  -19.3580 C.3       6 GLP5        0.0000 
     40 CA        -78.7569  -44.1039  -17.8355 C.3       3 GLC5        0.0000 
     41 CA        -77.8170  -42.4000  -17.1760 C.3       6 GLP5        0.0000 
     42 CA        -80.6705  -47.2100  -19.0175 C.3       3 GLC5        0.0000 
     43 CA        -77.9895  -44.9874  -20.3580 C.3       3 GLC5        0.0000 
     44 CA        -77.2910  -43.4080  -21.1960 C.3       6 GLP5        0.0000 
     45 CA        -79.9255  -47.7800  -19.5228 C.3       3 GLC5        0.0000 
     46 CA        -78.5871  -48.9045  -18.1088 C.3       3 GLC5        0.0000 
     47 CA        -78.9180  -50.8550  -17.7650 C.3       6 GLP5        0.0000 
     48 CA        -78.4848  -44.5705   -9.3687 C.3       3 GLC5        0.0000 
     49 CA        -79.5280  -45.4680  -11.1150 C.3       9 GLL5        0.0000 
     50 CA        -78.1730  -43.7760   -7.7360 C.3       6 GLP5        0.0000 
     51 CA        -77.3872  -44.9888   -9.0087 C.3       3 GLC5        0.0000 
     52 CA        -77.2820  -46.2970  -10.3890 C.3       9 GLL5        0.0000 
     53 CA        -75.7392  -46.2182  -12.1303 C.3       3 GLC5        0.0000 
     54 CA        -74.8770  -46.2350  -13.9790 C.3       6 GLP5        0.0000 
     55 CA        -77.3918  -43.9861   -9.3389 C.3       3 GLC5        0.0000 
     56 CA        -75.7438  -45.2156  -12.4604 C.3       3 GLC5        0.0000 
     57 CA        -76.6243  -46.1220  -18.9959 C.3       3 GLC5        0.0000 
     58 CA        -74.7890  -45.4870  -18.6540 C.3       6 GLP5        0.0000 
@<TRIPOS>BOND
@<TRIPOS>SUBSTRUCTURE
     1 ALC1        4 GROUP        1 X    ALC  0     ROOT ALC X 1
     2 SEC2       31 GROUP        1 X    SEC  0     **** SEC X 2
     3 GLC5        1 GROUP        1 X    GLC  0     **** GLC X 6
     4 ALP1        6 GROUP        1 Y    ALP  0     ROOT ALP Y 8
     5 SEP2       33 GROUP        1 Y    SEP  0     **** SEP Y 9
     6 GLP5        3 GROUP        1 Y    GLP  0     **** GLP Y 13
     7 ALL1        5 GROUP        1 Z    ALL  0     ROOT ALL Z 15
     8 SEL2       32 GROUP        1 Z    SEL  0     **** SEL Z 16
     9 GLL5        2 GROUP        1 Z    GLL  0     **** GLL Z 20
@<TRIPOS>SET

