#    Name: 3v8s_0HD_3_ligand
#    Modification time : Tue Mar 25 00:09:03 2014

@<TRIPOS>MOLECULE
3v8s_0HD_3_ligand
   37    39     1     0     0
SMALL
NO_CHARGES


@<TRIPOS>ATOM
      1 C10       -76.1260  -43.8430  -10.9600 C.ar      1 0HD501      0.0000 
      2 N12       -79.0300  -46.4720  -15.8110 N.am      1 0HD501      0.0000 
      3 C13       -79.0300  -46.3870  -17.2430 C.ar      1 0HD501      0.0000 
      4 C15       -79.8930  -45.6100  -19.3830 C.ar      1 0HD501      0.0000 
      5 C20       -77.9750  -47.1430  -19.3220 C.ar      1 0HD501      0.0000 
      6 C21       -78.0450  -47.1430  -17.9230 C.ar      1 0HD501      0.0000 
      7 O01       -80.2900  -44.5980  -15.1690 O.2       1 0HD501      0.0000 
      8 C02       -79.6640  -45.6050  -14.8730 C.2       1 0HD501      0.0000 
      9 N03       -79.5040  -45.9490  -13.5130 N.am      1 0HD501      0.0000 
     10 C04       -80.0700  -45.1620  -12.4670 C.3       1 0HD501      0.0000 
     11 C05       -79.5280  -45.4680  -11.1150 C.3       1 0HD501      0.0000 
     12 C06       -78.0650  -45.2620  -10.8880 C.ar      1 0HD501      0.0000 
     13 C07       -77.2820  -46.2970  -10.3890 C.ar      1 0HD501      0.0000 
     14 C08       -75.9210  -46.1060  -10.1740 C.ar      1 0HD501      0.0000 
     15 C09       -75.3460  -44.8740  -10.4610 C.ar      1 0HD501      0.0000 
     16 C11       -77.4850  -44.0340  -11.1730 C.ar      1 0HD501      0.0000 
     17 C14       -79.9710  -45.6240  -17.9710 C.ar      1 0HD501      0.0000 
     18 C16       -78.9090  -46.3710  -20.0530 C.ar      1 0HD501      0.0000 
     19 N17       -79.1080  -46.1860  -21.3890 N.pl3     1 0HD501      0.0000 
     20 N18       -80.1270  -45.3650  -21.6060 N.2       1 0HD501      0.0000 
     21 C19       -80.6610  -44.9610  -20.4530 C.2       1 0HD501      0.0000 
     22 H         -75.6971  -42.9302  -11.1744 H         1 0HD501      0.0000 
     23 H         -78.4796  -47.2977  -15.3937 H         1 0HD501      0.0000 
     24 H         -77.2692  -47.6850  -19.8091 H         1 0HD501      0.0000 
     25 H         -77.3734  -47.6986  -17.3756 H         1 0HD501      0.0000 
     26 H         -78.9638  -46.7917  -13.2628 H         1 0HD501      0.0000 
     27 H         -81.1808  -45.2904  -12.4344 H         1 0HD501      0.0000 
     28 H         -79.9151  -44.0721  -12.6661 H         1 0HD501      0.0000 
     29 H         -79.7838  -46.5347  -10.8548 H         1 0HD501      0.0000 
     30 H         -80.0971  -44.8648  -10.3513 H         1 0HD501      0.0000 
     31 H         -77.7113  -47.2093  -10.1775 H         1 0HD501      0.0000 
     32 H         -75.3454  -46.8711   -9.8055 H         1 0HD501      0.0000 
     33 H         -74.3390  -44.7287  -10.3021 H         1 0HD501      0.0000 
     34 H         -78.0608  -43.2654  -11.5418 H         1 0HD501      0.0000 
     35 H         -80.6889  -45.0962  -17.4901 H         1 0HD501      0.0000 
     36 H         -78.5582  -46.6135  -22.0832 H         1 0HD501      0.0000 
     37 H         -81.3776  -44.3847  -20.2764 H         1 0HD501      0.0000 
@<TRIPOS>BOND
     1   15    1 ar   
     2   16    1 ar   
     3   22    1 1    
     4    3    2 1    
     5    8    2 am   
     6   23    2 1    
     7    6    3 ar   
     8   17    3 ar   
     9   17    4 ar   
    10   18    4 ar   
    11   21    4 1    
    12    6    5 ar   
    13   18    5 ar   
    14   24    5 1    
    15   25    6 1    
    16    8    7 2    
    17    9    8 am   
    18   10    9 1    
    19   26    9 1    
    20   11   10 1    
    21   27   10 1    
    22   28   10 1    
    23   12   11 1    
    24   29   11 1    
    25   30   11 1    
    26   13   12 ar   
    27   16   12 ar   
    28   14   13 ar   
    29   31   13 1    
    30   15   14 ar   
    31   32   14 1    
    32   33   15 1    
    33   34   16 1    
    34   35   17 1    
    35   19   18 1    
    36   20   19 1    
    37   36   19 1    
    38   21   20 2    
    39   37   21 1    
@<TRIPOS>SUBSTRUCTURE
     1 0HD501      1 GROUP   
@<TRIPOS>SET

