#    Name: 2adm_SAM_1_INTS_M
#    Modification time : Mon Mar 24 19:04:06 2014

@<TRIPOS>MOLECULE
2adm_SAM_1_INTS_M
   48     0    12     0     0
SMALL
NO_CHARGES


@<TRIPOS>ATOM
      1 OD1        39.4100   42.6450   21.1765 O.co2     3 ASC3        0.0000 
      2 OD1        39.0800   42.5200   19.7040 O.co2    11 ASL3        0.0000 
      3 OD1        39.7400   42.7700   22.6490 O.co2     7 ASP3        0.0000 
      4 O          40.2750   41.4620   19.3015 O.2       1 ALC1        0.0000 
      5 O          39.0800   42.5200   19.7040 O.2       9 ALL1        0.0000 
      6 O          41.4700   40.4040   18.8990 O.2       5 ALP1        0.0000 
      7 CA         38.1680   44.5550   19.5185 C.3       4 GLC5        0.0000 
      8 CA         38.4810   42.9130   18.4320 C.3      12 GLL5        0.0000 
      9 CA         37.8550   46.1970   20.6050 C.3       8 GLP5        0.0000 
     10 CA         36.2960   38.8960   14.9705 C.3       4 GLC5        0.0000 
     11 CA         37.4570   38.1920   16.5220 C.3      12 GLL5        0.0000 
     12 CA         35.1350   39.6000   13.4190 C.3       8 GLP5        0.0000 
     13 CA         37.6050   36.3145   16.2290 C.3       4 GLC5        0.0000 
     14 CA         37.7530   34.4370   15.9360 C.3       8 GLP5        0.0000 
     15 O          44.8740   40.1900   14.6360 O.2       1 ALC1        0.0000 
     16 O          43.8480   40.2070   13.8320 O.2       9 ALL1        0.0000 
     17 O          45.9000   40.1730   15.4400 O.2       5 ALP1        0.0000 
     18 CA         42.7945   38.0635   17.2470 C.3       4 GLC5        0.0000 
     19 CA         43.5990   38.4850   15.5280 C.3      12 GLL5        0.0000 
     20 CA         41.9900   37.6420   18.9660 C.3       8 GLP5        0.0000 
     21 CA         45.5250   37.7985   14.8350 C.3       4 GLC5        0.0000 
     22 CA         47.4510   37.1120   14.1420 C.3       8 GLP5        0.0000 
     23 CA         42.2410   34.9815   15.9635 C.3       4 GLC5        0.0000 
     24 CA         44.4540   34.9150   15.6670 C.3      12 GLL5        0.0000 
     25 CA         40.0280   35.0480   16.2600 C.3       8 GLP5        0.0000 
     26 O          46.5735   32.1255   16.4995 O.2       1 ALC1        0.0000 
     27 O          45.2300   32.6330   15.8450 O.2       9 ALL1        0.0000 
     28 O          47.9170   31.6180   17.1540 O.2       5 ALP1        0.0000 
     29 N          47.1330   33.9925   18.5105 N.am      2 SEC2        0.0000 
     30 N          46.1010   34.2780   17.2420 N.am     10 SEL2        0.0000 
     31 N          48.1650   33.7070   19.7790 N.am      6 SEP2        0.0000 
     32 CA         47.3690   36.2545   16.3820 C.3       4 GLC5        0.0000 
     33 CA         46.1300   35.5540   17.6310 C.3      12 GLL5        0.0000 
     34 CA         48.6080   36.9550   15.1330 C.3       8 GLP5        0.0000 
     35 CA         47.9130   34.5910   17.7685 C.3       4 GLC5        0.0000 
     36 CA         49.6960   33.6280   17.9060 C.3       8 GLP5        0.0000 
     37 CA         46.1900   34.7385   19.4610 C.3       4 GLC5        0.0000 
     38 CA         46.2500   33.9230   21.2910 C.3       8 GLP5        0.0000 
     39 CA         43.2920   36.9185   17.5700 C.3       4 GLC5        0.0000 
     40 CA         44.5940   36.1950   16.1740 C.3      12 GLL5        0.0000 
     41 CA         40.3812   43.4108   17.3880 C.3       4 GLC5        0.0000 
     42 CA         38.8460   41.9040   17.3300 C.3      12 GLL5        0.0000 
     43 CA         42.0990   44.4130   16.8950 C.3       8 GLP5        0.0000 
     44 CA         39.7680   36.9793   16.2877 C.3       4 GLC5        0.0000 
     45 CA         38.7270   39.3440   16.2340 C.3      12 GLL5        0.0000 
     46 CA         41.4395   38.2830   17.6103 C.3       4 GLC5        0.0000 
     47 CA         40.2890   38.4770   16.3970 C.3      12 GLL5        0.0000 
     48 CA         46.0881   36.2078   15.1037 C.3       4 GLC5        0.0000 
@<TRIPOS>BOND
@<TRIPOS>SUBSTRUCTURE
     1 ALC1        4 GROUP        1 X    ALC  0     ROOT ALC X 1
     2 SEC2       29 GROUP        1 X    SEC  0     **** SEC X 2
     3 ASC3        1 GROUP        1 X    ASC  0     **** ASC X 3
     4 GLC5        7 GROUP        1 X    GLC  0     **** GLC X 6
     5 ALP1        6 GROUP        1 Y    ALP  0     ROOT ALP Y 8
     6 SEP2       31 GROUP        1 Y    SEP  0     **** SEP Y 9
     7 ASP3        3 GROUP        1 Y    ASP  0     **** ASP Y 10
     8 GLP5        9 GROUP        1 Y    GLP  0     **** GLP Y 13
     9 ALL1        5 GROUP        1 Z    ALL  0     ROOT ALL Z 15
    10 SEL2       30 GROUP        1 Z    SEL  0     **** SEL Z 16
    11 ASL3        2 GROUP        1 Z    ASL  0     **** ASL Z 17
    12 GLL5        8 GROUP        1 Z    GLL  0     **** GLL Z 20
@<TRIPOS>SET

