#    Name: 2adm_SAM_1_ligand
#    Modification time : Mon Mar 24 19:04:06 2014

@<TRIPOS>MOLECULE
2adm_SAM_1_ligand
   50    52     1     0     0
SMALL
NO_CHARGES


@<TRIPOS>ATOM
      1 N          39.0800   42.5200   19.7040 N.4       1 SAM500      0.0000 
      2 CA         38.4810   42.9130   18.4320 C.3       1 SAM500      0.0000 
      3 C          36.9490   43.0680   18.5340 C.2       1 SAM500      0.0000 
      4 O          36.3800   42.6690   19.5780 O.co2     1 SAM500      0.0000 
      5 OXT        36.3320   43.5840   17.5720 O.co2     1 SAM500      0.0000 
      6 CB         38.8460   41.9040   17.3300 C.3       1 SAM500      0.0000 
      7 CG         38.5560   40.4340   17.6720 C.3       1 SAM500      0.0000 
      8 SD         38.7270   39.3440   16.2340 S.3       1 SAM500      0.0000 
      9 CE         37.4570   38.1920   16.5220 C.3       1 SAM500      0.0000 
     10 C5'        40.2890   38.4770   16.3970 C.3       1 SAM500      0.0000 
     11 C4'        41.4890   39.3710   16.1120 C.3       1 SAM500      0.0000 
     12 O4'        42.6970   38.7740   16.6040 O.3       1 SAM500      0.0000 
     13 C3'        41.6430   39.6030   14.6270 C.3       1 SAM500      0.0000 
     14 O3'        41.5100   41.0000   14.3390 O.3       1 SAM500      0.0000 
     15 C2'        43.0260   39.1070   14.2590 C.3       1 SAM500      0.0000 
     16 O2'        43.8480   40.2070   13.8320 O.3       1 SAM500      0.0000 
     17 C1'        43.5990   38.4850   15.5280 C.3       1 SAM500      0.0000 
     18 N9         43.7770   37.0120   15.3910 N.pl3     1 SAM500      0.0000 
     19 C8         43.2180   36.1530   14.4990 C.2       1 SAM500      0.0000 
     20 N7         43.5570   34.9080   14.5870 N.2       1 SAM500      0.0000 
     21 C5         44.4540   34.9150   15.6670 C.ar      1 SAM500      0.0000 
     22 C6         45.2590   33.9090   16.2470 C.ar      1 SAM500      0.0000 
     23 N6         45.2300   32.6330   15.8450 N.pl3     1 SAM500      0.0000 
     24 N1         46.1010   34.2780   17.2420 N.ar      1 SAM500      0.0000 
     25 C2         46.1300   35.5540   17.6310 C.ar      1 SAM500      0.0000 
     26 N3         45.4330   36.5910   17.1720 N.ar      1 SAM500      0.0000 
     27 C4         44.5940   36.1950   16.1740 C.ar      1 SAM500      0.0000 
     28 H          38.8838   43.8857   18.1185 H         1 SAM500      0.0000 
     29 H          39.9209   42.0087   17.0957 H         1 SAM500      0.0000 
     30 H          38.2950   42.1698   16.4097 H         1 SAM500      0.0000 
     31 H          37.5442   40.2613   17.9750 H         1 SAM500      0.0000 
     32 H          39.2550   40.0146   18.3654 H         1 SAM500      0.0000 
     33 H          40.1851   37.6683   15.6971 H         1 SAM500      0.0000 
     34 H          40.2564   38.1186   17.4095 H         1 SAM500      0.0000 
     35 H          41.3192   40.3304   16.5863 H         1 SAM500      0.0000 
     36 H          40.9191   39.0105   14.1139 H         1 SAM500      0.0000 
     37 H          42.9359   38.3502   13.5209 H         1 SAM500      0.0000 
     38 H          44.5615   38.9474   15.7152 H         1 SAM500      0.0000 
     39 H          42.5552   36.5098   13.7941 H         1 SAM500      0.0000 
     40 H          44.3538   32.3017   15.4950 H         1 SAM500      0.0000 
     41 H          46.0872   32.1251   15.9307 H         1 SAM500      0.0000 
     42 H          46.8379   35.7826   18.4566 H         1 SAM500      0.0000 
     43 H          39.3344   43.3142   20.2558 H         1 SAM500      0.0000 
     44 H          38.4535   41.9689   20.2550 H         1 SAM500      0.0000 
     45 H          39.9093   41.9770   19.5719 H         1 SAM500      0.0000 
     46 H          37.2992   37.6066   15.7268 H         1 SAM500      0.0000 
     47 H          37.6692   37.5899   17.2917 H         1 SAM500      0.0000 
     48 H          36.5887   38.6413   16.7321 H         1 SAM500      0.0000 
     49 H          42.3805   41.2622   13.9224 H         1 SAM500      0.0000 
     50 H          44.7799   39.9470   14.0850 H         1 SAM500      0.0000 
@<TRIPOS>BOND
     1    2    1 1    
     2   43    1 1    
     3   44    1 1    
     4   45    1 1    
     5    3    2 1    
     6    6    2 1    
     7   28    2 1    
     8    4    3 ar   
     9    5    3 ar   
    10    7    6 1    
    11   29    6 1    
    12   30    6 1    
    13    8    7 1    
    14   31    7 1    
    15   32    7 1    
    16    9    8 1    
    17   10    8 1    
    18   46    9 1    
    19   47    9 1    
    20   48    9 1    
    21   11   10 1    
    22   33   10 1    
    23   34   10 1    
    24   12   11 1    
    25   13   11 1    
    26   35   11 1    
    27   17   12 1    
    28   14   13 1    
    29   15   13 1    
    30   36   13 1    
    31   49   14 1    
    32   16   15 1    
    33   17   15 1    
    34   37   15 1    
    35   50   16 1    
    36   18   17 1    
    37   38   17 1    
    38   19   18 1    
    39   27   18 1    
    40   20   19 2    
    41   39   19 1    
    42   21   20 1    
    43   22   21 ar   
    44   27   21 ar   
    45   23   22 1    
    46   24   22 ar   
    47   40   23 1    
    48   41   23 1    
    49   25   24 ar   
    50   26   25 ar   
    51   42   25 1    
    52   27   26 ar   
@<TRIPOS>SUBSTRUCTURE
     1 SAM500      1 GROUP   
@<TRIPOS>SET

