#    Name: 4m0e_1YL_1_INTS_M
#    Modification time : Tue Mar 25 11:39:57 2014

@<TRIPOS>MOLECULE
4m0e_1YL_1_INTS_M
   44     0     6     0     0
SMALL
NO_CHARGES


@<TRIPOS>ATOM
      1 CA        -21.4345  -40.3500   28.4595 C.3       2 GLC5        0.0000 
      2 CA        -21.9220  -40.4310   26.4360 C.3       6 GLL5        0.0000 
      3 CA        -20.9470  -40.2690   30.4830 C.3       4 GLP5        0.0000 
      4 CA        -21.0010  -38.7840   26.3065 C.3       2 GLC5        0.0000 
      5 CA        -20.0800  -37.1370   26.1770 C.3       4 GLP5        0.0000 
      6 N         -16.1885  -41.3375   22.0250 N.am      1 SEC2        0.0000 
      7 N         -16.2790  -42.3790   22.9000 N.am      5 SEL2        0.0000 
      8 N         -16.0980  -40.2960   21.1500 N.am      3 SEP2        0.0000 
      9 N         -13.5520  -43.2060   22.5605 N.am      1 SEC2        0.0000 
     10 N         -14.0660  -43.5380   23.7340 N.am      5 SEL2        0.0000 
     11 N         -13.0380  -42.8740   21.3870 N.am      3 SEP2        0.0000 
     12 CA        -16.0000  -45.0645   26.0240 C.3       2 GLC5        0.0000 
     13 CA        -14.8330  -43.6020   26.0950 C.3       6 GLL5        0.0000 
     14 CA        -17.1670  -46.5270   25.9530 C.3       4 GLP5        0.0000 
     15 CA        -16.1140  -41.2025   26.6010 C.3       2 GLC5        0.0000 
     16 CA        -15.8520  -43.2890   26.9740 C.3       6 GLL5        0.0000 
     17 CA        -16.3760  -39.1160   26.2280 C.3       4 GLP5        0.0000 
     18 CA        -16.9265  -44.5630   26.9110 C.3       2 GLC5        0.0000 
     19 CA        -18.0010  -45.8370   26.8480 C.3       4 GLP5        0.0000 
     20 CA        -13.3000  -45.9120   28.8895 C.3       2 GLC5        0.0000 
     21 CA        -14.3550  -44.6420   28.2610 C.3       6 GLL5        0.0000 
     22 CA        -12.2450  -47.1820   29.5180 C.3       4 GLP5        0.0000 
     23 CA        -15.6805  -45.8000   28.4880 C.3       2 GLC5        0.0000 
     24 CA        -17.0060  -46.9580   28.7150 C.3       4 GLP5        0.0000 
     25 CA        -12.3275  -44.8785   25.5675 C.3       2 GLC5        0.0000 
     26 CA        -13.6170  -44.2840   26.9010 C.3       6 GLL5        0.0000 
     27 CA        -11.0380  -45.4730   24.2340 C.3       4 GLP5        0.0000 
     28 CA        -14.9435  -45.8755   26.6830 C.3       2 GLC5        0.0000 
     29 CA        -16.2700  -47.4670   26.4650 C.3       4 GLP5        0.0000 
     30 CA        -12.8865  -41.2365   27.8455 C.3       2 GLC5        0.0000 
     31 CA        -12.4200  -43.2130   27.0780 C.3       6 GLL5        0.0000 
     32 CA        -13.3530  -39.2600   28.6130 C.3       4 GLP5        0.0000 
     33 CA        -12.2870  -41.5795   26.1245 C.3       2 GLC5        0.0000 
     34 CA        -12.1540  -39.9460   25.1710 C.3       4 GLP5        0.0000 
     35 CA        -11.2370  -44.0600   26.0690 C.3       2 GLC5        0.0000 
     36 CA        -10.0540  -44.9070   25.0600 C.3       4 GLP5        0.0000 
     37 CA        -20.9760  -38.5487   24.8612 C.3       2 GLC5        0.0000 
     38 CA        -20.8500  -40.7160   25.2850 C.3       6 GLL5        0.0000 
     39 CA        -20.9790  -36.5570   25.1360 C.3       4 GLP5        0.0000 
     40 CA        -17.2763  -44.3902   25.1310 C.3       2 GLC5        0.0000 
     41 CA        -17.3260  -42.2970   25.0800 C.3       6 GLL5        0.0000 
     42 CA        -17.3200  -46.3320   24.4740 C.3       4 GLP5        0.0000 
     43 CA        -12.2497  -45.3062   27.6983 C.3       2 GLC5        0.0000 
     44 CA        -11.4810  -46.8640   28.4070 C.3       4 GLP5        0.0000 
@<TRIPOS>BOND
@<TRIPOS>SUBSTRUCTURE
     1 SEC2        6 GROUP        1 X    SEC  0     ROOT SEC X 2
     2 GLC5        1 GROUP        1 X    GLC  0     **** GLC X 6
     3 SEP2        8 GROUP        1 Y    SEP  0     ROOT SEP Y 9
     4 GLP5        3 GROUP        1 Y    GLP  0     **** GLP Y 13
     5 SEL2        7 GROUP        1 Z    SEL  0     ROOT SEL Z 16
     6 GLL5        2 GROUP        1 Z    GLL  0     **** GLL Z 20
@<TRIPOS>SET

