#    Name: 4m0e_1YL_1_ligand
#    Modification time : Tue Mar 25 11:39:57 2014

@<TRIPOS>MOLECULE
4m0e_1YL_1_ligand
   35    38     1     0     0
SMALL
NO_CHARGES


@<TRIPOS>ATOM
      1 C18       -21.9220  -40.4310   26.4360 C.3       1 1YL604      0.0000 
      2 C4        -20.8500  -40.7160   25.2850 C.ar      1 1YL604      0.0000 
      3 C3        -21.0960  -40.3650   23.8880 C.ar      1 1YL604      0.0000 
      4 C2        -20.0970  -40.6540   22.8700 C.ar      1 1YL604      0.0000 
      5 C1        -18.8400  -41.3020   23.2570 C.ar      1 1YL604      0.0000 
      6 C10       -18.5870  -41.6580   24.6620 C.ar      1 1YL604      0.0000 
      7 C5        -19.6030  -41.3510   25.6650 C.ar      1 1YL604      0.0000 
      8 C6        -19.4110  -41.6760   27.0780 C.ar      1 1YL604      0.0000 
      9 C7        -18.1650  -42.3210   27.4940 C.ar      1 1YL604      0.0000 
     10 C8        -17.1390  -42.6000   26.4960 C.ar      1 1YL604      0.0000 
     11 C9        -17.3260  -42.2970   25.0800 C.ar      1 1YL604      0.0000 
     12 C11       -16.2130  -42.6280   24.1350 C.2       1 1YL604      0.0000 
     13 O21       -16.2790  -42.3790   22.9000 O.2       1 1YL604      0.0000 
     14 C12       -14.9840  -43.2650   24.5860 C.2       1 1YL604      0.0000 
     15 O20       -14.0660  -43.5380   23.7340 O.2       1 1YL604      0.0000 
     16 C13       -14.8330  -43.6020   26.0950 C.2       1 1YL604      0.0000 
     17 C14       -15.8520  -43.2890   26.9740 C.2       1 1YL604      0.0000 
     18 O19       -15.5000  -43.6870   28.3540 O.3       1 1YL604      0.0000 
     19 C16       -14.3550  -44.6420   28.2610 C.3       1 1YL604      0.0000 
     20 C15       -13.6170  -44.2840   26.9010 C.3       1 1YL604      0.0000 
     21 C17       -12.4200  -43.2130   27.0780 C.3       1 1YL604      0.0000 
     22 H         -21.9636  -39.9202   23.6306 H         1 1YL604      0.0000 
     23 H         -20.2620  -40.4143   21.9124 H         1 1YL604      0.0000 
     24 H         -18.1451  -41.5053   22.5595 H         1 1YL604      0.0000 
     25 H         -20.1175  -41.4617   27.7474 H         1 1YL604      0.0000 
     26 H         -18.0210  -42.5667   28.4520 H         1 1YL604      0.0000 
     27 H         -14.6919  -45.6491   28.1902 H         1 1YL604      0.0000 
     28 H         -13.6600  -44.4960   29.0537 H         1 1YL604      0.0000 
     29 H         -13.3301  -45.1249   26.4129 H         1 1YL604      0.0000 
     30 H         -21.5953  -40.7342   27.3312 H         1 1YL604      0.0000 
     31 H         -22.1317  -39.4564   26.5152 H         1 1YL604      0.0000 
     32 H         -22.7862  -40.9037   26.2639 H         1 1YL604      0.0000 
     33 H         -11.6449  -43.6013   27.5764 H         1 1YL604      0.0000 
     34 H         -12.0720  -42.8958   26.1958 H         1 1YL604      0.0000 
     35 H         -12.7178  -42.4034   27.5838 H         1 1YL604      0.0000 
@<TRIPOS>BOND
     1    2    1 1    
     2   30    1 1    
     3   31    1 1    
     4   32    1 1    
     5    3    2 ar   
     6    7    2 ar   
     7    4    3 ar   
     8   22    3 1    
     9    5    4 ar   
    10   23    4 1    
    11    6    5 ar   
    12   24    5 1    
    13    7    6 ar   
    14   11    6 ar   
    15    8    7 ar   
    16    9    8 ar   
    17   25    8 1    
    18   10    9 ar   
    19   26    9 1    
    20   11   10 ar   
    21   17   10 1    
    22   12   11 1    
    23   13   12 2    
    24   14   12 1    
    25   15   14 2    
    26   16   14 1    
    27   17   16 2    
    28   20   16 1    
    29   18   17 1    
    30   19   18 1    
    31   20   19 1    
    32   27   19 1    
    33   28   19 1    
    34   21   20 1    
    35   29   20 1    
    36   33   21 1    
    37   34   21 1    
    38   35   21 1    
@<TRIPOS>SUBSTRUCTURE
     1 1YL604      1 GROUP   
@<TRIPOS>SET

