#    Name: 3gjw_GJW_1_INTS_M
#    Modification time : Tue Mar 25 12:36:11 2014

@<TRIPOS>MOLECULE
3gjw_GJW_1_INTS_M
   34     0     9     0     0
SMALL
NO_CHARGES


@<TRIPOS>ATOM
      1 CA         53.3715   57.2510    9.5450 C.3       3 GLC5        0.0000 
      2 CA         51.5480   56.4050    9.8230 C.3       9 GLL5        0.0000 
      3 CA         55.1950   58.0970    9.2670 C.3       6 GLP5        0.0000 
      4 CA         51.6490   56.3945   12.7495 C.3       3 GLC5        0.0000 
      5 CA         50.6220   56.6830   10.8600 C.3       9 GLL5        0.0000 
      6 CA         52.6760   56.1060   14.6390 C.3       6 GLP5        0.0000 
      7 CA         51.0555   58.4740   11.8480 C.3       3 GLC5        0.0000 
      8 CA         51.4890   60.2650   12.8360 C.3       6 GLP5        0.0000 
      9 CA         50.7870   58.7275   10.0060 C.3       3 GLC5        0.0000 
     10 CA         50.9520   60.7720    9.1520 C.3       6 GLP5        0.0000 
     11 O          46.3445   54.5765   11.4765 O.2       1 ALC1        0.0000 
     12 O          47.4730   54.7590   10.9950 O.2       7 ALL1        0.0000 
     13 O          45.2160   54.3940   11.9580 O.2       4 ALP1        0.0000 
     14 N          46.9350   56.3915   13.0595 N.am      2 SEC2        0.0000 
     15 N          48.0910   56.4390   12.4190 N.am      8 SEL2        0.0000 
     16 N          45.7790   56.3440   13.7000 N.am      5 SEP2        0.0000 
     17 N          48.1990   57.9140   12.8290 N.am      2 SEC2        0.0000 
     18 N          48.3070   59.3890   13.2390 N.am      5 SEP2        0.0000 
     19 CA         46.2725   53.3190    7.2710 C.3       3 GLC5        0.0000 
     20 CA         46.0300   51.3670    7.8070 C.3       9 GLL5        0.0000 
     21 CA         46.5150   55.2710    6.7350 C.3       6 GLP5        0.0000 
     22 CA         51.4400   57.6223    8.3225 C.3       3 GLC5        0.0000 
     23 CA         50.9960   55.4160    9.0390 C.3       9 GLL5        0.0000 
     24 CA         51.6080   59.3340    7.2140 C.3       6 GLP5        0.0000 
     25 CA         46.5805   54.9165    9.0267 C.3       3 GLC5        0.0000 
     26 CA         48.8900   54.1470    9.1360 C.3       9 GLL5        0.0000 
     27 CA         44.8510   55.7640    8.5590 C.3       6 GLP5        0.0000 
     28 CA         45.8865   54.2345    8.7092 C.3       3 GLC5        0.0000 
     29 CA         46.7960   53.0780    9.4240 C.3       9 GLL5        0.0000 
     30 CA         45.5658   46.5517    7.3063 C.3       3 GLC5        0.0000 
     31 CA         44.8890   48.0220    8.6420 C.3       9 GLL5        0.0000 
     32 CA         45.4910   45.1650    5.9550 C.3       6 GLP5        0.0000 
     33 CA         51.8296   54.5938   10.5939 C.3       3 GLC5        0.0000 
     34 CA         52.9850   53.0970   11.0860 C.3       6 GLP5        0.0000 
@<TRIPOS>BOND
@<TRIPOS>SUBSTRUCTURE
     1 ALC1       11 GROUP        1 X    ALC  0     ROOT ALC X 1
     2 SEC2       14 GROUP        1 X    SEC  0     **** SEC X 2
     3 GLC5        1 GROUP        1 X    GLC  0     **** GLC X 6
     4 ALP1       13 GROUP        1 Y    ALP  0     ROOT ALP Y 8
     5 SEP2       16 GROUP        1 Y    SEP  0     **** SEP Y 9
     6 GLP5        3 GROUP        1 Y    GLP  0     **** GLP Y 13
     7 ALL1       12 GROUP        1 Z    ALL  0     ROOT ALL Z 15
     8 SEL2       15 GROUP        1 Z    SEL  0     **** SEL Z 16
     9 GLL5        2 GROUP        1 Z    GLL  0     **** GLL Z 20
@<TRIPOS>SET

