#    Name: 3gjw_GJW_1_ligand
#    Modification time : Tue Mar 25 12:36:12 2014

@<TRIPOS>MOLECULE
3gjw_GJW_1_ligand
   38    41     1     0     0
SMALL
NO_CHARGES


@<TRIPOS>ATOM
      1 C2         50.9960   55.4160    9.0390 C.2       1 GJW351      0.0000 
      2 C4         49.5310   55.8580   10.6850 C.2       1 GJW351      0.0000 
      3 C6         48.8900   54.1470    9.1360 C.ar      1 GJW351      0.0000 
      4 C11        48.2260   52.4890    7.5970 C.ar      1 GJW351      0.0000 
      5 C12        47.0480   52.3320    8.2950 C.ar      1 GJW351      0.0000 
      6 N22        45.8970   50.1520    8.6260 N.4       1 GJW351      0.0000 
      7 C23        44.6160   49.4720    8.3430 C.3       1 GJW351      0.0000 
      8 C26        47.0240   49.2100    8.4530 C.3       1 GJW351      0.0000 
      9 C1         51.5480   56.4050    9.8230 C.2       1 GJW351      0.0000 
     10 N3         49.7880   55.0940    9.5890 N.pl3     1 GJW351      0.0000 
     11 C5         50.6220   56.6830   10.8600 C.2       1 GJW351      0.0000 
     12 C7         47.7300   53.9910    9.8530 C.ar      1 GJW351      0.0000 
     13 N8         47.4730   54.7590   10.9950 N.am      1 GJW351      0.0000 
     14 C9         48.3310   55.7430   11.4450 C.2       1 GJW351      0.0000 
     15 C10        49.1640   53.4030    8.0140 C.ar      1 GJW351      0.0000 
     16 C13        46.7960   53.0780    9.4240 C.ar      1 GJW351      0.0000 
     17 O20        48.0910   56.4390   12.4190 O.2       1 GJW351      0.0000 
     18 C21        46.0300   51.3670    7.8070 C.3       1 GJW351      0.0000 
     19 C24        44.8890   48.0220    8.6420 C.3       1 GJW351      0.0000 
     20 C25        46.3920   47.8550    8.6730 C.3       1 GJW351      0.0000 
     21 H          51.3872   55.0345    8.2635 H         1 GJW351      0.0000 
     22 H          48.4038   51.9145    6.7541 H         1 GJW351      0.0000 
     23 H          45.8746   50.4587    9.6947 H         1 GJW351      0.0000 
     24 H          44.3489   49.5814    7.3119 H         1 GJW351      0.0000 
     25 H          43.8444   49.8328    8.9918 H         1 GJW351      0.0000 
     26 H          47.7748   49.3770    9.1927 H         1 GJW351      0.0000 
     27 H          47.4146   49.2639    7.4614 H         1 GJW351      0.0000 
     28 H          52.3780   56.8296    9.7117 H         1 GJW351      0.0000 
     29 H          50.7506   57.3240   11.5397 H         1 GJW351      0.0000 
     30 H          46.5884   54.5729   11.5263 H         1 GJW351      0.0000 
     31 H          50.0399   53.5254    7.5039 H         1 GJW351      0.0000 
     32 H          45.9154   52.9528    9.9422 H         1 GJW351      0.0000 
     33 H          46.2761   51.0821    6.7566 H         1 GJW351      0.0000 
     34 H          45.0428   51.8833    7.7450 H         1 GJW351      0.0000 
     35 H          44.4721   47.4026    7.8663 H         1 GJW351      0.0000 
     36 H          44.4761   47.7612    9.6016 H         1 GJW351      0.0000 
     37 H          46.6940   47.4644    9.6354 H         1 GJW351      0.0000 
     38 H          46.6983   47.1785    7.8866 H         1 GJW351      0.0000 
@<TRIPOS>BOND
     1    9    1 2    
     2   10    1 1    
     3   21    1 1    
     4   10    2 1    
     5   11    2 2    
     6   14    2 1    
     7   10    3 1    
     8   12    3 ar   
     9   15    3 ar   
    10    5    4 ar   
    11   15    4 ar   
    12   22    4 1    
    13   16    5 ar   
    14   18    5 1    
    15    7    6 1    
    16    8    6 1    
    17   18    6 1    
    18   23    6 1    
    19   19    7 1    
    20   24    7 1    
    21   25    7 1    
    22   20    8 1    
    23   26    8 1    
    24   27    8 1    
    25   11    9 1    
    26   28    9 1    
    27   29   11 1    
    28   13   12 1    
    29   16   12 ar   
    30   14   13 am   
    31   30   13 1    
    32   17   14 2    
    33   31   15 1    
    34   32   16 1    
    35   33   18 1    
    36   34   18 1    
    37   20   19 1    
    38   35   19 1    
    39   36   19 1    
    40   37   20 1    
    41   38   20 1    
@<TRIPOS>SUBSTRUCTURE
     1 GJW351      1 GROUP   
@<TRIPOS>SET

