#    Name: 2JLX_2_CAVITY_N1_6.mol2
#    Modification time : Mon Mar 10 23:16:24 2014

@<TRIPOS>MOLECULE
2JLX_2_CAVITY_N1_6.mol2
   83     0     4     0     0
SMALL
NO_CHARGES


@<TRIPOS>ATOM
      1 CA          8.4585   -4.7836   29.1435 C.3       3 GLY6        0.0000 
      2 CA          7.3668   -5.4798   29.9008 C.3       3 GLY6        0.0000 
      3 CA          9.2386   -4.9161   27.1753 C.3       3 GLY6        0.0000 
      4 CA          8.1469   -5.6123   27.9326 C.3       3 GLY6        0.0000 
      5 N           7.0552   -6.3085   28.6899 N.2       1 ALA2        0.0000 
      6 CA          8.9271   -5.7448   25.9644 C.3       3 GLY6        0.0000 
      7 N           7.8354   -6.4410   26.7217 N.2       1 ALA2        0.0000 
      8 N           6.7437   -7.1372   27.4790 N.2       1 ALA2        0.0000 
      9 O           5.6520   -7.8334   28.2364 O.2       1 ALA2        0.0000 
     10 N           7.5238   -7.2697   25.5108 N.2       1 ALA2        0.0000 
     11 N           7.2123   -8.0984   24.3000 N.2       1 ALA2        0.0000 
     12 N           6.1206   -8.7945   25.0573 N.2       1 ALA2        0.0000 
     13 CA          5.0289   -9.4907   25.8146 C.3       3 GLY6        0.0000 
     14 O           5.8090   -9.6232   23.8464 O.2       1 ALA2        0.0000 
     15 CA          4.7173  -10.3194   24.6037 C.3       3 GLY6        0.0000 
     16 CA          4.4058  -11.1481   23.3929 C.3       3 GLY6        0.0000 
     17 CA          3.3141  -11.8443   24.1502 C.3       3 GLY6        0.0000 
     18 CA          9.4389   -5.8222   29.6020 C.3       3 GLY6        0.0000 
     19 O           8.3472   -6.5184   30.3593 O.2       1 ALA2        0.0000 
     20 O           9.1273   -6.6509   28.3911 O.2       1 ALA2        0.0000 
     21 O           8.0356   -7.3471   29.1484 O.2       1 ALA2        0.0000 
     22 N           2.4425   -4.6625   32.4666 N.2       1 ALA2        0.0000 
     23 N           8.6811   -1.3141   26.7118 N.2       1 ALA2        0.0000 
     24 O           7.5894   -2.0103   27.4691 O.2       1 ALA2        0.0000 
     25 O           4.3143   -4.0989   29.7411 O.2       1 ALA2        0.0000 
     26 N           3.2227   -4.7950   30.4984 N.2       1 ALA2        0.0000 
     27 DU          7.2779   -2.8390   26.2582 H         4 CUB7        0.0000 
     28 O           6.1862   -3.5352   27.0156 O.2       1 ALA2        0.0000 
     29 O           5.0945   -4.2314   27.7729 O.2       1 ALA2        0.0000 
     30 N           4.0028   -4.9275   28.5302 N.2       1 ALA2        0.0000 
     31 DU          6.9663   -3.6677   25.0474 H         4 CUB7        0.0000 
     32 DU          4.7829   -5.0600   26.5620 H         4 CUB7        0.0000 
     33 N           3.6912   -5.7562   27.3193 N.2       1 ALA2        0.0000 
     34 O           5.5631   -5.1925   24.5938 O.2       1 ALA2        0.0000 
     35 O           4.4714   -5.8887   25.3511 O.2       1 ALA2        0.0000 
     36 N           3.3797   -6.5849   26.1085 N.2       1 ALA2        0.0000 
     37 O           4.1598   -6.7174   24.1403 O.2       1 ALA2        0.0000 
     38 N           3.0681   -7.4136   24.8976 N.2       1 ALA2        0.0000 
     39 CA          2.7566   -8.2423   23.6867 C.3       3 GLY6        0.0000 
     40 CA          2.3536   -2.0217   28.8241 C.3       3 GLY6        0.0000 
     41 CA          1.2619   -2.7179   29.5814 C.3       3 GLY6        0.0000 
     42 DU          2.0420   -2.8504   27.6132 H         4 CUB7        0.0000 
     43 CA          0.9503   -3.5466   28.3705 C.3       3 GLY6        0.0000 
     44 CA          8.5698   -3.0489   27.9276 C.3       3 GLY6        0.0000 
     45 O           7.4781   -3.7451   28.6849 O.2       1 ALA2        0.0000 
     46 O           6.3864   -4.4412   29.4423 O.2       1 ALA2        0.0000 
     47 CA          9.3499   -3.1814   25.9594 C.3       3 GLY6        0.0000 
     48 CA          8.2582   -3.8776   26.7167 C.3       3 GLY6        0.0000 
     49 DU          7.1665   -4.5738   27.4741 H         4 CUB7        0.0000 
     50 N           6.0749   -5.2699   28.2314 N.2       1 ALA2        0.0000 
     51 CA          9.0384   -4.0101   24.7485 C.3       3 GLY6        0.0000 
     52 CA          7.9467   -4.7063   25.5059 C.3       3 GLY6        0.0000 
     53 DU          6.8550   -5.4024   26.2632 H         4 CUB7        0.0000 
     54 DU          5.7633   -6.0986   27.0205 H         4 CUB7        0.0000 
     55 N           4.6716   -6.7948   27.7779 N.2       1 ALA2        0.0000 
     56 OD1         8.7268   -4.8388   23.5377 O.3       2 ASP3        0.0000 
     57 O           7.6351   -5.5349   24.2950 O.2       1 ALA2        0.0000 
     58 O           6.5434   -6.2311   25.0523 O.2       1 ALA2        0.0000 
     59 N           5.4517   -6.9273   25.8096 N.2       1 ALA2        0.0000 
     60 N           4.3601   -7.6235   26.5670 N.2       1 ALA2        0.0000 
     61 O           5.1402   -7.7560   24.5988 O.2       1 ALA2        0.0000 
     62 N           4.0485   -8.4521   25.3561 N.2       1 ALA2        0.0000 
     63 CA          3.7369   -9.2808   24.1452 C.3       3 GLY6        0.0000 
     64 O           2.6452   -9.9770   24.9026 O.2       1 ALA2        0.0000 
     65 CA          3.4254  -10.1095   22.9343 C.3       3 GLY6        0.0000 
     66 CA          2.3337  -10.8057   23.6917 C.3       3 GLY6        0.0000 
     67 O           2.5538   -2.9278   31.2508 O.2       1 ALA2        0.0000 
     68 O           3.3340   -3.0603   29.2826 O.2       1 ALA2        0.0000 
     69 O           2.2423   -3.7565   30.0399 O.2       1 ALA2        0.0000 
     70 N           1.1506   -4.4526   30.7972 N.2       1 ALA2        0.0000 
     71 O           4.1141   -3.1928   27.3144 O.2       1 ALA2        0.0000 
     72 DU          3.0224   -3.8890   28.0717 H         4 CUB7        0.0000 
     73 O           1.9307   -4.5851   28.8290 O.2       1 ALA2        0.0000 
     74 O           0.8390   -5.2813   29.5864 O.2       1 ALA2        0.0000 
     75 DU          3.8025   -4.0215   26.1035 H         4 CUB7        0.0000 
     76 N           2.7109   -4.7176   26.8608 N.2       1 ALA2        0.0000 
     77 CA          1.6192   -5.4138   27.6182 C.3       3 GLY6        0.0000 
     78 O           3.4910   -4.8501   24.8926 O.2       1 ALA2        0.0000 
     79 N           2.3993   -5.5463   25.6500 N.2       1 ALA2        0.0000 
     80 O           3.1794   -5.6788   23.6818 O.2       1 ALA2        0.0000 
     81 N           2.0877   -6.3750   24.4391 N.2       1 ALA2        0.0000 
     82 O          10.4192   -6.8608   30.0605 O.2       1 ALA2        0.0000 
     83 O           9.3276   -7.5570   30.8178 O.2       1 ALA2        0.0000 
@<TRIPOS>BOND
@<TRIPOS>SUBSTRUCTURE
     1 ALA2        5 GROUP   
     2 ASP3       56 GROUP   
     3 GLY6        1 GROUP   
     4 CUB7       27 GROUP   
@<TRIPOS>SET

