#    Name: 2jlx_ADP_2_INTS_M
#    Modification time : Tue Mar 25 21:13:27 2014

@<TRIPOS>MOLECULE
2jlx_ADP_2_INTS_M
   53     0    12     0     0
SMALL
NO_CHARGES


@<TRIPOS>ATOM
      1 Zn         11.6680   -8.8670   31.8420 Zn        3 ZIC7        0.0000 
      2 Zn         10.8470   -8.1680   31.8120 Zn       11 ZIL7        0.0000 
      3 Zn         12.4890   -9.5660   31.8720 Zn        7 ZIP7        0.0000 
      4 N          11.7840   -6.8895   32.1115 N.am      1 SEC2        0.0000 
      5 N          10.8470   -8.1680   31.8120 N.am      9 SEL2        0.0000 
      6 N          12.7210   -5.6110   32.4110 N.am      5 SEP2        0.0000 
      7 NZ          9.1825   -8.5160   34.6990 N.4       2 LYC4        0.0000 
      8 NZ          8.9780   -7.6900   33.4310 N.4      10 LYL4        0.0000 
      9 NZ          9.3870   -9.3420   35.9670 N.4       6 LYP4        0.0000 
     10 N           8.2185   -6.4435   33.1095 N.am      1 SEC2        0.0000 
     11 N           8.9780   -7.6900   33.4310 N.am      9 SEL2        0.0000 
     12 N           7.4590   -5.1970   32.7880 N.am      5 SEP2        0.0000 
     13 N           9.5620   -6.3930   33.4830 N.am      1 SEC2        0.0000 
     14 N          10.1460   -5.0960   33.5350 N.am      5 SEP2        0.0000 
     15 N           9.1825   -8.5160   34.6990 N.am      1 SEC2        0.0000 
     16 N           9.3870   -9.3420   35.9670 N.am      5 SEP2        0.0000 
     17 NZ          8.4070   -9.9685   30.7495 N.4       2 LYC4        0.0000 
     18 NZ          8.8480   -9.7210   32.0160 N.4      10 LYL4        0.0000 
     19 NZ          7.0740  -11.1430   29.1480 N.4       6 LYP4        0.0000 
     20 N           7.4795   -9.7615   32.2615 N.am      1 SEC2        0.0000 
     21 N           8.8480   -9.7210   32.0160 N.am      9 SEL2        0.0000 
     22 N           6.1110   -9.8020   32.5070 N.am      5 SEP2        0.0000 
     23 N           8.4070   -9.9685   30.7495 N.am      1 SEC2        0.0000 
     24 N           7.9660  -10.2160   29.4830 N.am      5 SEP2        0.0000 
     25 N          10.3335   -8.5840   27.4445 N.am      1 SEC2        0.0000 
     26 N          10.2660   -8.0550   28.8670 N.am      9 SEL2        0.0000 
     27 N          10.4010   -9.1130   26.0220 N.am      5 SEP2        0.0000 
     28 N           9.1160   -9.1355   29.1750 N.am      1 SEC2        0.0000 
     29 N          11.3745   -4.8970   30.0375 N.am      1 SEC2        0.0000 
     30 N          10.1870   -5.7450   30.0270 N.am      9 SEL2        0.0000 
     31 N          12.5620   -4.0490   30.0480 N.am      5 SEP2        0.0000 
     32 N           8.0735   -6.3765   31.8415 N.am      1 SEC2        0.0000 
     33 N           8.6880   -7.5560   30.8950 N.am      9 SEL2        0.0000 
     34 CA          7.8630   -4.8830   30.5255 C.3       4 GLC5        0.0000 
     35 CA          7.3850   -5.5390   28.8960 C.3      12 GLL5        0.0000 
     36 CA          8.3410   -4.2270   32.1550 C.3       8 GLP5        0.0000 
     37 CA          5.6315   -7.9575   29.6400 C.3       4 GLC5        0.0000 
     38 CA          5.6850   -7.0480   27.7610 C.3      12 GLL5        0.0000 
     39 CA          5.5780   -8.8670   31.5190 C.3       8 GLP5        0.0000 
     40 N          10.5800   -6.3640   23.7585 N.am      1 SEC2        0.0000 
     41 N           9.2130   -6.2750   23.7900 N.am      9 SEL2        0.0000 
     42 N          11.9470   -6.4530   23.7270 N.am      5 SEP2        0.0000 
     43 CA         10.0480   -5.3950   24.3380 C.3       4 GLC5        0.0000 
     44 CA          8.5030   -5.6140   22.8590 C.3      12 GLL5        0.0000 
     45 CA         11.5930   -5.1760   25.8170 C.3       8 GLP5        0.0000 
     46 N           6.1610   -6.1315   22.2250 N.am      1 SEC2        0.0000 
     47 N           6.2500   -4.6950   22.6990 N.am      9 SEL2        0.0000 
     48 N           6.0720   -7.5680   21.7510 N.am      5 SEP2        0.0000 
     49 N           5.1095   -5.6685   22.1040 N.am      1 SEC2        0.0000 
     50 N           3.9690   -6.6420   21.5090 N.am      5 SEP2        0.0000 
     51 CA          4.5983   -8.9885   27.1833 C.3       4 GLC5        0.0000 
     52 CA          5.9420   -7.2900   26.2840 C.3      12 GLL5        0.0000 
     53 CA          3.3830  -10.8080   27.3440 C.3       8 GLP5        0.0000 
@<TRIPOS>BOND
@<TRIPOS>SUBSTRUCTURE
     1 SEC2        4 GROUP        1 X    SEC  0     ROOT SEC X 2
     2 LYC4        7 GROUP        1 X    LYC  0     **** LYC X 4
     3 ZIC7        1 GROUP        1 X    ZIC  0     **** ZIC X 5
     4 GLC5       34 GROUP        1 X    GLC  0     **** GLC X 6
     5 SEP2        6 GROUP        1 Y    SEP  0     ROOT SEP Y 9
     6 LYP4        9 GROUP        1 Y    LYP  0     **** LYP Y 11
     7 ZIP7        3 GROUP        1 Y    ZIP  0     **** ZIP Y 12
     8 GLP5       36 GROUP        1 Y    GLP  0     **** GLP Y 13
     9 SEL2        5 GROUP        1 Z    SEL  0     ROOT SEL Z 16
    10 LYL4        8 GROUP        1 Z    LYL  0     **** LYL Z 18
    11 ZIL7        2 GROUP        1 Z    ZIL  0     **** ZIL Z 19
    12 GLL5       35 GROUP        1 Z    GLL  0     **** GLL Z 20
@<TRIPOS>SET

