#    Name: 2jlx_ADP_2_ligand
#    Modification time : Tue Mar 25 21:13:28 2014

@<TRIPOS>MOLECULE
2jlx_ADP_2_ligand
   39    41     1     0     0
SMALL
NO_CHARGES


@<TRIPOS>ATOM
      1 PB          9.3790   -8.3220   32.1360 P.3       1 ADP1619     0.0000 
      2 O1B        10.8470   -8.1680   31.8120 O.co2     1 ADP1619     0.0000 
      3 O2B         8.9780   -7.6900   33.4310 O.co2     1 ADP1619     0.0000 
      4 O3B         8.8480   -9.7210   32.0160 O.co2     1 ADP1619     0.0000 
      5 PA          9.4790   -6.9960   29.5860 P.3       1 ADP1619     0.0000 
      6 O1A        10.2660   -8.0550   28.8670 O.co2     1 ADP1619     0.0000 
      7 O2A        10.1870   -5.7450   30.0270 O.co2     1 ADP1619     0.0000 
      8 O3A         8.6880   -7.5560   30.8950 O.3       1 ADP1619     0.0000 
      9 O5'         8.2590   -6.6330   28.6100 O.3       1 ADP1619     0.0000 
     10 C5'         7.3850   -5.5390   28.8960 C.3       1 ADP1619     0.0000 
     11 C4'         6.1360   -5.6160   28.0260 C.3       1 ADP1619     0.0000 
     12 O4'         6.4220   -5.0170   26.7580 O.3       1 ADP1619     0.0000 
     13 C3'         5.6850   -7.0480   27.7610 C.3       1 ADP1619     0.0000 
     14 O3'         4.2930   -7.1460   28.0560 O.3       1 ADP1619     0.0000 
     15 C2'         5.9420   -7.2900   26.2840 C.3       1 ADP1619     0.0000 
     16 O2'         4.8780   -7.9980   25.6460 O.3       1 ADP1619     0.0000 
     17 C1'         6.1070   -5.9050   25.6780 C.3       1 ADP1619     0.0000 
     18 N9          7.2080   -5.8980   24.6820 N.pl3     1 ADP1619     0.0000 
     19 C8          8.4240   -6.4350   24.8800 C.2       1 ADP1619     0.0000 
     20 N7          9.2130   -6.2750   23.7900 N.2       1 ADP1619     0.0000 
     21 C5          8.5030   -5.6140   22.8590 C.ar      1 ADP1619     0.0000 
     22 C6          8.7570   -5.1220   21.4750 C.ar      1 ADP1619     0.0000 
     23 N6          9.9670   -5.3230   20.8800 N.pl3     1 ADP1619     0.0000 
     24 N1          7.7410   -4.4700   20.8410 N.ar      1 ADP1619     0.0000 
     25 C2          6.5390   -4.2710   21.4420 C.ar      1 ADP1619     0.0000 
     26 N3          6.2500   -4.6950   22.6990 N.ar      1 ADP1619     0.0000 
     27 C4          7.1740   -5.3590   23.4530 C.ar      1 ADP1619     0.0000 
     28 H           7.8700   -4.5720   28.7025 H         1 ADP1619     0.0000 
     29 H           7.0631   -5.5419   29.9468 H         1 ADP1619     0.0000 
     30 H           5.3351   -5.0898   28.5171 H         1 ADP1619     0.0000 
     31 H           6.2836   -7.7011   28.3331 H         1 ADP1619     0.0000 
     32 H           6.8889   -7.7962   26.1908 H         1 ADP1619     0.0000 
     33 H           5.1838   -5.6294   25.2133 H         1 ADP1619     0.0000 
     34 H           8.7098   -6.8863   25.7056 H         1 ADP1619     0.0000 
     35 H          10.0657   -4.9649   19.9515 H         1 ADP1619     0.0000 
     36 H          10.6494   -5.8108   21.4244 H         1 ADP1619     0.0000 
     37 H           5.7843   -3.7555   20.8985 H         1 ADP1619     0.0000 
     38 H           3.9529   -6.2065   28.0141 H         1 ADP1619     0.0000 
     39 H           4.1236   -7.9774   26.3021 H         1 ADP1619     0.0000 
@<TRIPOS>BOND
     1    2    1 ar   
     2    3    1 ar   
     3    4    1 ar   
     4    8    1 1    
     5    6    5 ar   
     6    7    5 ar   
     7    8    5 1    
     8    9    5 1    
     9   10    9 1    
    10   11   10 1    
    11   28   10 1    
    12   29   10 1    
    13   12   11 1    
    14   13   11 1    
    15   30   11 1    
    16   17   12 1    
    17   14   13 1    
    18   15   13 1    
    19   31   13 1    
    20   38   14 1    
    21   16   15 1    
    22   17   15 1    
    23   32   15 1    
    24   39   16 1    
    25   18   17 1    
    26   33   17 1    
    27   19   18 1    
    28   27   18 1    
    29   20   19 2    
    30   34   19 1    
    31   21   20 1    
    32   22   21 ar   
    33   27   21 ar   
    34   23   22 1    
    35   24   22 ar   
    36   35   23 1    
    37   36   23 1    
    38   25   24 ar   
    39   26   25 ar   
    40   37   25 1    
    41   27   26 ar   
@<TRIPOS>SUBSTRUCTURE
     1 ADP1619     1 GROUP   
@<TRIPOS>SET

