#    Name: 4b0i_KBP_1_INTS_M
#    Modification time : Tue Mar 25 06:26:44 2014

@<TRIPOS>MOLECULE
4b0i_KBP_1_INTS_M
   73     0     9     0     0
SMALL
NO_CHARGES


@<TRIPOS>ATOM
      1 CA        -21.1755   21.6930  -18.9635 C.3       3 GLC5        0.0000 
      2 CA        -22.1920   21.9600  -20.6750 C.3       9 GLL5        0.0000 
      3 CA        -20.1590   21.4260  -17.2520 C.3       6 GLP5        0.0000 
      4 CA        -24.9805   23.1275  -20.6735 C.3       3 GLC5        0.0000 
      5 CA        -23.0390   23.2330  -20.7450 C.3       9 GLL5        0.0000 
      6 CA        -26.9220   23.0220  -20.6020 C.3       6 GLP5        0.0000 
      7 CA        -20.9380   25.5935  -20.8045 C.3       3 GLC5        0.0000 
      8 CA        -22.1580   24.4210  -20.3850 C.3       9 GLL5        0.0000 
      9 CA        -19.7180   26.7660  -21.2240 C.3       6 GLP5        0.0000 
     10 CA        -21.0505   22.9235  -18.0625 C.3       3 GLC5        0.0000 
     11 CA        -21.9420   24.4210  -18.8730 C.3       9 GLL5        0.0000 
     12 CA        -24.1695   25.6570  -19.8940 C.3       3 GLC5        0.0000 
     13 CA        -23.2500   24.7320  -18.1400 C.3       9 GLL5        0.0000 
     14 CA        -25.0890   26.5820  -21.6480 C.3       6 GLP5        0.0000 
     15 CA        -20.8915   23.2770  -16.7380 C.3       3 GLC5        0.0000 
     16 CA        -21.6240   25.1280  -16.2240 C.3       9 GLL5        0.0000 
     17 CA        -20.9040   27.0810  -18.0690 C.3       3 GLC5        0.0000 
     18 CA        -20.4800   26.1320  -16.4430 C.3       9 GLL5        0.0000 
     19 CA        -21.3280   28.0300  -19.6950 C.3       6 GLP5        0.0000 
     20 CA        -19.7075   24.1010  -16.8215 C.3       3 GLC5        0.0000 
     21 CA        -18.9350   22.0700  -17.2000 C.3       6 GLP5        0.0000 
     22 CA        -20.2635   26.5310  -13.0165 C.3       3 GLC5        0.0000 
     23 CA        -19.9750   26.6930  -15.1010 C.3       9 GLL5        0.0000 
     24 CA        -20.5520   26.3690  -10.9320 C.3       6 GLP5        0.0000 
     25 CA        -18.5155   25.5320  -14.1120 C.3       3 GLC5        0.0000 
     26 CA        -17.0560   24.3710  -13.1230 C.3       6 GLP5        0.0000 
     27 CA        -20.4475   28.5410  -14.5680 C.3       3 GLC5        0.0000 
     28 CA        -20.9200   30.3890  -14.0350 C.3       6 GLP5        0.0000 
     29 N         -25.1760   21.7295  -18.6630 N.am      2 SEC2        0.0000 
     30 N         -23.7460   21.2720  -19.0210 N.am      8 SEL2        0.0000 
     31 N         -26.6060   22.1870  -18.3050 N.am      5 SEP2        0.0000 
     32 O         -23.1175   23.6245  -23.0475 O.2       1 ALC1        0.0000 
     33 O         -23.6110   23.3740  -22.0480 O.2       7 ALL1        0.0000 
     34 O         -22.6240   23.8750  -24.0470 O.2       4 ALP1        0.0000 
     35 CA        -22.1675   17.9380  -19.4515 C.3       3 GLC5        0.0000 
     36 CA        -23.2460   19.4010  -20.7490 C.3       9 GLL5        0.0000 
     37 CA        -21.0890   16.4750  -18.1540 C.3       6 GLP5        0.0000 
     38 CA        -22.5320   18.9000  -22.2700 C.3       3 GLC5        0.0000 
     39 CA        -21.8180   18.3990  -23.7910 C.3       6 GLP5        0.0000 
     40 CA        -24.8455   18.3660  -18.0295 C.3       3 GLC5        0.0000 
     41 CA        -24.7070   18.7370  -19.8720 C.3       9 GLL5        0.0000 
     42 CA        -24.9840   17.9950  -16.1870 C.3       6 GLP5        0.0000 
     43 CA        -23.8145   16.8340  -19.4340 C.3       3 GLC5        0.0000 
     44 CA        -22.9220   14.9310  -18.9960 C.3       6 GLP5        0.0000 
     45 CA        -26.4755   21.0115  -20.5940 C.3       3 GLC5        0.0000 
     46 CA        -26.0290   19.0010  -20.5860 C.3       9 GLL5        0.0000 
     47 CA        -25.7655   18.8680  -22.6280 C.3       3 GLC5        0.0000 
     48 CA        -25.5020   18.7350  -24.6700 C.3       6 GLP5        0.0000 
     49 CA        -27.6215   19.8915  -21.6990 C.3       3 GLC5        0.0000 
     50 CA        -29.2140   20.7820  -22.8120 C.3       6 GLP5        0.0000 
     51 O         -27.9390   19.7175  -19.5385 O.2       1 ALC1        0.0000 
     52 O         -27.1090   18.5960  -19.6860 O.2       7 ALL1        0.0000 
     53 O         -28.7690   20.8390  -19.3910 O.2       4 ALP1        0.0000 
     54 CA        -27.6145   18.4170  -17.0755 C.3       3 GLC5        0.0000 
     55 CA        -28.4860   17.0590  -18.3480 C.3       9 GLL5        0.0000 
     56 CA        -26.7430   19.7750  -15.8030 C.3       6 GLP5        0.0000 
     57 CA        -29.4135   17.9240  -20.0840 C.3       3 GLC5        0.0000 
     58 CA        -30.3410   18.7890  -21.8200 C.3       6 GLP5        0.0000 
     59 N         -25.8370   15.5105  -20.7845 N.am      2 SEC2        0.0000 
     60 N         -26.7060   16.3860  -19.9180 N.am      8 SEL2        0.0000 
     61 N         -24.9680   14.6350  -21.6510 N.am      5 SEP2        0.0000 
     62 CA        -23.8438   25.2045  -21.1065 C.3       3 GLC5        0.0000 
     63 CA        -24.8195   25.4875  -16.7167 C.3       3 GLC5        0.0000 
     64 CA        -26.5420   25.8270  -15.9160 C.3       6 GLP5        0.0000 
     65 CA        -22.0490   26.5501  -18.6979 C.3       3 GLC5        0.0000 
     66 CA        -22.9440   25.5640  -16.8950 C.3       9 GLL5        0.0000 
     67 CA        -23.0445   26.7700  -15.7888 C.3       3 GLC5        0.0000 
     68 CA        -23.8050   28.1940  -15.0180 C.3       6 GLP5        0.0000 
     69 CA        -22.9890   23.9955  -15.1362 C.3       3 GLC5        0.0000 
     70 CA        -23.6940   22.6450  -13.7130 C.3       6 GLP5        0.0000 
     71 CA        -19.0008   27.4312  -16.6700 C.3       3 GLC5        0.0000 
     72 CA        -17.7740   28.4500  -17.5680 C.3       6 GLP5        0.0000 
     73 CA        -22.0162   27.3032  -15.3950 C.3       3 GLC5        0.0000 
@<TRIPOS>BOND
@<TRIPOS>SUBSTRUCTURE
     1 ALC1       32 GROUP        1 X    ALC  0     ROOT ALC X 1
     2 SEC2       29 GROUP        1 X    SEC  0     **** SEC X 2
     3 GLC5        1 GROUP        1 X    GLC  0     **** GLC X 6
     4 ALP1       34 GROUP        1 Y    ALP  0     ROOT ALP Y 8
     5 SEP2       31 GROUP        1 Y    SEP  0     **** SEP Y 9
     6 GLP5        3 GROUP        1 Y    GLP  0     **** GLP Y 13
     7 ALL1       33 GROUP        1 Z    ALL  0     ROOT ALL Z 15
     8 SEL2       30 GROUP        1 Z    SEL  0     **** SEL Z 16
     9 GLL5        2 GROUP        1 Z    GLL  0     **** GLL Z 20
@<TRIPOS>SET

