#    Name: 4b0i_KBP_1_ligand
#    Modification time : Tue Mar 25 06:26:45 2014

@<TRIPOS>MOLECULE
4b0i_KBP_1_ligand
   46    45     1     0     0
SMALL
NO_CHARGES


@<TRIPOS>ATOM
      1 CAA       -23.0280   20.9270  -19.9600 C.2       1 KBP1170     0.0000 
      2 CAB       -22.1920   21.9600  -20.6750 C.3       1 KBP1170     0.0000 
      3 CAC       -23.0390   23.2330  -20.7450 C.3       1 KBP1170     0.0000 
      4 CAD       -22.1580   24.4210  -20.3850 C.3       1 KBP1170     0.0000 
      5 CAE       -21.9420   24.4210  -18.8730 C.3       1 KBP1170     0.0000 
      6 CAF       -23.2500   24.7320  -18.1400 C.3       1 KBP1170     0.0000 
      7 CAG       -22.9440   25.5640  -16.8950 C.3       1 KBP1170     0.0000 
      8 CAH       -21.6240   25.1280  -16.2240 C.3       1 KBP1170     0.0000 
      9 CAI       -20.4800   26.1320  -16.4430 C.3       1 KBP1170     0.0000 
     10 CAJ       -19.9750   26.6930  -15.1010 C.3       1 KBP1170     0.0000 
     11 OAM       -23.7460   21.2720  -19.0210 O.2       1 KBP1170     0.0000 
     12 OAN       -23.6110   23.3740  -22.0480 O.3       1 KBP1170     0.0000 
     13 SAO       -23.2460   19.4010  -20.7490 S.3       1 KBP1170     0.0000 
     14 CAP       -24.7070   18.7370  -19.8720 C.3       1 KBP1170     0.0000 
     15 CAQ       -26.0290   19.0010  -20.5860 C.3       1 KBP1170     0.0000 
     16 NAR       -27.1090   18.5960  -19.6860 N.am      1 KBP1170     0.0000 
     17 CAS       -27.3670   17.3090  -19.4200 C.2       1 KBP1170     0.0000 
     18 CAT       -28.4860   17.0590  -18.3480 C.3       1 KBP1170     0.0000 
     19 OAY       -26.7060   16.3860  -19.9180 O.2       1 KBP1170     0.0000 
     20 H         -21.9674   21.6290  -21.6705 H         1 KBP1170     0.0000 
     21 H         -21.2969   22.1605  -20.1187 H         1 KBP1170     0.0000 
     22 H         -23.8097   23.1478  -19.9838 H         1 KBP1170     0.0000 
     23 H         -22.6480   25.3372  -20.6773 H         1 KBP1170     0.0000 
     24 H         -21.2050   24.3296  -20.8834 H         1 KBP1170     0.0000 
     25 H         -21.2000   25.1734  -18.6150 H         1 KBP1170     0.0000 
     26 H         -21.5808   23.4437  -18.5606 H         1 KBP1170     0.0000 
     27 H         -23.7251   23.8057  -17.8465 H         1 KBP1170     0.0000 
     28 H         -23.9036   25.2915  -18.7955 H         1 KBP1170     0.0000 
     29 H         -23.7573   25.4531  -16.1760 H         1 KBP1170     0.0000 
     30 H         -22.8664   26.6165  -17.1724 H         1 KBP1170     0.0000 
     31 H         -21.3272   24.1542  -16.6275 H         1 KBP1170     0.0000 
     32 H         -21.7960   25.0108  -15.1489 H         1 KBP1170     0.0000 
     33 H         -20.8375   26.9524  -17.0599 H         1 KBP1170     0.0000 
     34 H         -19.6592   25.6333  -16.9519 H         1 KBP1170     0.0000 
     35 H         -24.6290   19.2212  -18.9125 H         1 KBP1170     0.0000 
     36 H         -24.4605   17.6911  -19.7902 H         1 KBP1170     0.0000 
     37 H         -26.0476   18.4233  -21.5025 H         1 KBP1170     0.0000 
     38 H         -26.0906   20.0575  -20.8187 H         1 KBP1170     0.0000 
     39 H         -27.6633   19.3702  -19.2662 H         1 KBP1170     0.0000 
     40 H         -19.6277   25.9703  -14.5035 H         1 KBP1170     0.0000 
     41 H         -19.2319   27.3498  -15.2291 H         1 KBP1170     0.0000 
     42 H         -20.7000   27.1649  -14.5993 H         1 KBP1170     0.0000 
     43 H         -28.6342   16.0833  -18.1864 H         1 KBP1170     0.0000 
     44 H         -28.2543   17.4702  -17.4664 H         1 KBP1170     0.0000 
     45 H         -29.3638   17.4460  -18.6302 H         1 KBP1170     0.0000 
     46 H         -22.8642   23.1722  -22.6816 H         1 KBP1170     0.0000 
@<TRIPOS>BOND
     1    2    1 1    
     2   11    1 2    
     3   13    1 1    
     4    3    2 1    
     5   20    2 1    
     6   21    2 1    
     7    4    3 1    
     8   12    3 1    
     9   22    3 1    
    10    5    4 1    
    11   23    4 1    
    12   24    4 1    
    13    6    5 1    
    14   25    5 1    
    15   26    5 1    
    16    7    6 1    
    17   27    6 1    
    18   28    6 1    
    19    8    7 1    
    20   29    7 1    
    21   30    7 1    
    22    9    8 1    
    23   31    8 1    
    24   32    8 1    
    25   10    9 1    
    26   33    9 1    
    27   34    9 1    
    28   40   10 1    
    29   41   10 1    
    30   42   10 1    
    31   46   12 1    
    32   14   13 1    
    33   15   14 1    
    34   35   14 1    
    35   36   14 1    
    36   16   15 1    
    37   37   15 1    
    38   38   15 1    
    39   17   16 am   
    40   39   16 1    
    41   18   17 1    
    42   19   17 2    
    43   43   18 1    
    44   44   18 1    
    45   45   18 1    
@<TRIPOS>SUBSTRUCTURE
     1 KBP1170     1 GROUP   
@<TRIPOS>SET

