#    Name: 1oyt_FSN_1_INTS_M
#    Modification time : Mon Mar 24 20:46:58 2014

@<TRIPOS>MOLECULE
1oyt_FSN_1_INTS_M
   52     0     9     0     0
SMALL
NO_CHARGES


@<TRIPOS>ATOM
      1 N          15.8645  -12.3705   23.9410 N.am      2 SEC2        0.0000 
      2 N          16.6950  -12.8160   22.7290 N.am      8 SEL2        0.0000 
      3 N          15.0340  -11.9250   25.1530 N.am      5 SEP2        0.0000 
      4 CA         13.1265  -12.0380   17.2995 C.3       3 GLC5        0.0000 
      5 CA         14.9690  -11.9970   17.9830 C.3       9 GLL5        0.0000 
      6 CA         11.2840  -12.0790   16.6160 C.3       6 GLP5        0.0000 
      7 CA         14.0810  -12.7745   15.7185 C.3       3 GLC5        0.0000 
      8 CA         15.8910  -12.1930   16.7360 C.3       9 GLL5        0.0000 
      9 CA         12.2710  -13.3560   14.7010 C.3       6 GLP5        0.0000 
     10 O           9.4200  -11.9260   24.6800 O.2       1 ALC1        0.0000 
     11 O          10.5520  -12.0640   23.8870 O.2       7 ALL1        0.0000 
     12 O           8.2880  -11.7880   25.4730 O.2       4 ALP1        0.0000 
     13 O          10.6600  -13.4980   23.8395 O.2       1 ALC1        0.0000 
     14 O          10.7680  -14.9320   23.7920 O.2       4 ALP1        0.0000 
     15 O           9.7745   -9.7590   24.9890 O.2       1 ALC1        0.0000 
     16 O          11.0790   -9.9100   24.4850 O.2       7 ALL1        0.0000 
     17 O           8.4700   -9.6080   25.4930 O.2       4 ALP1        0.0000 
     18 CA         18.2890  -10.0980   19.5390 C.3       3 GLC5        0.0000 
     19 CA         17.2470  -11.4430   20.8070 C.3       9 GLL5        0.0000 
     20 CA         19.3310   -8.7530   18.2710 C.3       6 GLP5        0.0000 
     21 CA         16.7970  -10.7520   22.6220 C.3       3 GLC5        0.0000 
     22 CA         16.3470  -10.0610   24.4370 C.3       6 GLP5        0.0000 
     23 CA         20.7495  -12.0922   23.1450 C.3       3 GLC5        0.0000 
     24 CA         19.7880  -14.2110   23.3150 C.3       9 GLL5        0.0000 
     25 CA         21.0180  -10.0530   23.0980 C.3       6 GLP5        0.0000 
     26 CA         18.7584  -12.3219   24.8419 C.3       3 GLC5        0.0000 
     27 CA         20.1060  -13.8060   25.6770 C.3       9 GLL5        0.0000 
     28 CA         17.7040  -10.6680   24.8640 C.3       6 GLP5        0.0000 
     29 CA         23.1460  -12.5608   26.8835 C.3       3 GLC5        0.0000 
     30 CA         21.4750  -13.6670   25.4130 C.3       9 GLL5        0.0000 
     31 CA         24.4310  -11.5760   27.8170 C.3       6 GLP5        0.0000 
     32 CA         21.5299  -14.8046   27.6035 C.3       3 GLC5        0.0000 
     33 CA         22.2470  -13.4240   26.4870 C.3       9 GLL5        0.0000 
     34 CA         21.5410  -16.0290   29.1910 C.3       6 GLP5        0.0000 
     35 CA         22.1938  -11.9014   24.4000 C.3       3 GLC5        0.0000 
     36 CA         22.4280  -10.1430   23.7540 C.3       6 GLP5        0.0000 
     37 CA         17.9102  -13.5605   16.8214 C.3       3 GLC5        0.0000 
     38 CA         17.2170  -12.1980   18.6000 C.3       9 GLL5        0.0000 
     39 CA         19.2580  -15.0570   16.3190 C.3       6 GLP5        0.0000 
     40 CA         18.4110  -10.2957   18.2241 C.3       3 GLC5        0.0000 
     41 CA         17.2510  -11.6720   17.2230 C.3       9 GLL5        0.0000 
     42 CA         14.6220  -10.2640   23.5710 C.3       3 GLC5        0.0000 
     43 CA         12.5240  -11.0440   22.8370 C.3       9 GLL5        0.0000 
     44 CA         13.2600   -8.0862   21.8470 C.3       3 GLC5        0.0000 
     45 CA         13.2700   -9.8900   22.5730 C.3       9 GLL5        0.0000 
     46 CA         12.7070   -6.2470   21.5600 C.3       6 GLP5        0.0000 
     47 CA         13.5079  -11.6989   24.2452 C.3       3 GLC5        0.0000 
     48 CA         14.0370  -12.6190   25.9360 C.3       6 GLP5        0.0000 
     49 CA         14.9576   -9.0319   20.0250 C.3       3 GLC5        0.0000 
     50 CA         14.3560   -9.9610   21.6950 C.3       9 GLL5        0.0000 
     51 CA         15.1040   -7.4480   18.8810 C.3       6 GLP5        0.0000 
     52 CA         15.5791  -10.3384   22.8030 C.3       3 GLC5        0.0000 
@<TRIPOS>BOND
@<TRIPOS>SUBSTRUCTURE
     1 ALC1       10 GROUP        1 X    ALC  0     ROOT ALC X 1
     2 SEC2        1 GROUP        1 X    SEC  0     **** SEC X 2
     3 GLC5        4 GROUP        1 X    GLC  0     **** GLC X 6
     4 ALP1       12 GROUP        1 Y    ALP  0     ROOT ALP Y 8
     5 SEP2        3 GROUP        1 Y    SEP  0     **** SEP Y 9
     6 GLP5        6 GROUP        1 Y    GLP  0     **** GLP Y 13
     7 ALL1       11 GROUP        1 Z    ALL  0     ROOT ALL Z 15
     8 SEL2        2 GROUP        1 Z    SEL  0     **** SEL Z 16
     9 GLL5        5 GROUP        1 Z    GLL  0     **** GLL Z 20
@<TRIPOS>SET

