#    Name: 1oyt_FSN_1_ligand
#    Modification time : Mon Mar 24 20:46:58 2014

@<TRIPOS>MOLECULE
1oyt_FSN_1_ligand
   55    59     1     0     0
SMALL
NO_CHARGES


@<TRIPOS>ATOM
      1 O21        16.6950  -12.8160   22.7290 O.2       1 FSN501      0.0000 
      2 C20        17.4090  -12.5450   21.7800 C.2       1 FSN501      0.0000 
      3 N19        18.5310  -13.3290   21.4300 N.am      1 FSN501      0.0000 
      4 C23        18.8670  -14.5430   22.1730 C.3       1 FSN501      0.0000 
      5 C24        19.7880  -14.2110   23.3150 C.ar      1 FSN501      0.0000 
      6 C32        19.2510  -14.0800   24.6100 C.ar      1 FSN501      0.0000 
      7 C31        20.1060  -13.8060   25.6770 C.ar      1 FSN501      0.0000 
      8 C30        21.4750  -13.6670   25.4130 C.ar      1 FSN501      0.0000 
      9 F29        22.2470  -13.4240   26.4870 F         1 FSN501      0.0000 
     10 C26        22.0580  -13.7740   24.1420 C.ar      1 FSN501      0.0000 
     11 C25        21.1740  -14.0520   23.0690 C.ar      1 FSN501      0.0000 
     12 C17        19.0640  -12.9060   20.1780 C.2       1 FSN501      0.0000 
     13 O18        20.0420  -13.3920   19.6320 O.2       1 FSN501      0.0000 
     14 C16        18.2450  -11.8120   19.6630 C.3       1 FSN501      0.0000 
     15 C15        17.2170  -12.1980   18.6000 C.3       1 FSN501      0.0000 
     16 N11        15.7990  -12.4400   19.1400 N.4       1 FSN501      0.0000 
     17 C12        14.9690  -11.9970   17.9830 C.3       1 FSN501      0.0000 
     18 C13        15.8910  -12.1930   16.7360 C.3       1 FSN501      0.0000 
     19 C14        17.2510  -11.6720   17.2230 C.3       1 FSN501      0.0000 
     20 C10        15.8630  -11.3370   20.1940 C.3       1 FSN501      0.0000 
     21 C7         14.6700  -11.2040   21.0920 C.ar      1 FSN501      0.0000 
     22 C8         13.9280  -12.3500   21.3610 C.ar      1 FSN501      0.0000 
     23 C9         12.8510  -12.2910   22.2350 C.ar      1 FSN501      0.0000 
     24 C4         12.5240  -11.0440   22.8370 C.ar      1 FSN501      0.0000 
     25 C5         13.2700   -9.8900   22.5730 C.ar      1 FSN501      0.0000 
     26 C6         14.3560   -9.9610   21.6950 C.ar      1 FSN501      0.0000 
     27 C3         11.3830  -11.0010   23.7370 C.ar      1 FSN501      0.0000 
     28 N1         10.5520  -12.0640   23.8870 N.pl3     1 FSN501      0.0000 
     29 N2         11.0790   -9.9100   24.4850 N.pl3     1 FSN501      0.0000 
     30 C22        17.2470  -11.4430   20.8070 C.3       1 FSN501      0.0000 
     31 H          19.3618  -15.2694   21.5189 H         1 FSN501      0.0000 
     32 H          17.9612  -15.0116   22.5734 H         1 FSN501      0.0000 
     33 H          18.2483  -14.1853   24.7594 H         1 FSN501      0.0000 
     34 H          19.7490  -13.7092   26.6212 H         1 FSN501      0.0000 
     35 H          23.0357  -13.6624   23.9939 H         1 FSN501      0.0000 
     36 H          21.5366  -14.1374   22.1198 H         1 FSN501      0.0000 
     37 H          18.7414  -10.9553   19.4020 H         1 FSN501      0.0000 
     38 H          17.5383  -13.3952   18.4089 H         1 FSN501      0.0000 
     39 H          15.6893  -13.3227   19.4790 H         1 FSN501      0.0000 
     40 H          14.7235  -10.9641   18.0579 H         1 FSN501      0.0000 
     41 H          14.1112  -12.6157   17.8648 H         1 FSN501      0.0000 
     42 H          15.5340  -11.5943   15.9469 H         1 FSN501      0.0000 
     43 H          15.9541  -13.2201   16.5130 H         1 FSN501      0.0000 
     44 H          18.0107  -12.1210   16.6581 H         1 FSN501      0.0000 
     45 H          17.2395  -10.6244   17.2108 H         1 FSN501      0.0000 
     46 H          15.9175  -10.3718   19.5544 H         1 FSN501      0.0000 
     47 H          14.1787  -13.2406   20.9114 H         1 FSN501      0.0000 
     48 H          12.2970  -13.1137   22.4509 H         1 FSN501      0.0000 
     49 H          13.0233   -9.0044   23.0176 H         1 FSN501      0.0000 
     50 H          14.9156   -9.1398   21.4875 H         1 FSN501      0.0000 
     51 H          10.7667  -12.8713   23.3374 H         1 FSN501      0.0000 
     52 H           9.7986  -11.9457   24.5339 H         1 FSN501      0.0000 
     53 H          11.6614   -9.1083   24.3507 H         1 FSN501      0.0000 
     54 H          10.2995  -10.0044   25.1042 H         1 FSN501      0.0000 
     55 H          17.5646  -10.5208   21.2077 H         1 FSN501      0.0000 
@<TRIPOS>BOND
     1    2    1 2    
     2    3    2 am   
     3   30    2 1    
     4    4    3 1    
     5   12    3 am   
     6    5    4 1    
     7   31    4 1    
     8   32    4 1    
     9    6    5 ar   
    10   11    5 ar   
    11    7    6 ar   
    12   33    6 1    
    13    8    7 ar   
    14   34    7 1    
    15    9    8 1    
    16   10    8 ar   
    17   11   10 ar   
    18   35   10 1    
    19   36   11 1    
    20   13   12 2    
    21   14   12 1    
    22   15   14 1    
    23   30   14 1    
    24   37   14 1    
    25   16   15 1    
    26   19   15 1    
    27   38   15 1    
    28   17   16 1    
    29   20   16 1    
    30   39   16 1    
    31   18   17 1    
    32   40   17 1    
    33   41   17 1    
    34   19   18 1    
    35   42   18 1    
    36   43   18 1    
    37   44   19 1    
    38   45   19 1    
    39   21   20 1    
    40   30   20 1    
    41   46   20 1    
    42   22   21 ar   
    43   26   21 ar   
    44   23   22 ar   
    45   47   22 1    
    46   24   23 ar   
    47   48   23 1    
    48   25   24 ar   
    49   27   24 1    
    50   26   25 ar   
    51   49   25 1    
    52   50   26 1    
    53   28   27 ar   
    54   29   27 ar   
    55   51   28 1    
    56   52   28 1    
    57   53   29 1    
    58   54   29 1    
    59   55   30 1    
@<TRIPOS>SUBSTRUCTURE
     1 FSN501      1 GROUP   
@<TRIPOS>SET

