#    Name: 2y31_SMQ_1_INTS_M
#    Modification time : Tue Mar 25 07:26:56 2014

@<TRIPOS>MOLECULE
2y31_SMQ_1_INTS_M
   91     0    12     0     0
SMALL
NO_CHARGES


@<TRIPOS>ATOM
      1 N          33.5265  -26.2525   -7.4735 N.am      2 SEC2        0.0000 
      2 N          34.9360  -25.9280   -6.6570 N.am     10 SEL2        0.0000 
      3 N          32.1170  -26.5770   -8.2900 N.am      6 SEP2        0.0000 
      4 N          48.8325  -34.5205    3.0120 N.am      2 SEC2        0.0000 
      5 N          48.3530  -34.7000    1.7280 N.am     10 SEL2        0.0000 
      6 N          49.3120  -34.3410    4.2960 N.am      6 SEP2        0.0000 
      7 N          49.3500  -33.6270    1.7020 N.am      2 SEC2        0.0000 
      8 N          50.3470  -32.5540    1.6760 N.am      6 SEP2        0.0000 
      9 O          49.0080  -33.9770    0.4745 O.2       1 ALC1        0.0000 
     10 O          48.3530  -34.7000    1.7280 O.2       9 ALL1        0.0000 
     11 O          49.6630  -33.2540   -0.7790 O.2       5 ALP1        0.0000 
     12 CA         48.9520  -35.9090   -2.7805 C.3       4 GLC5        0.0000 
     13 CA         50.2490  -37.6860   -2.3930 C.3      12 GLL5        0.0000 
     14 CA         47.6550  -34.1320   -3.1680 C.3       8 GLP5        0.0000 
     15 CA         48.6740  -39.5670   -5.9545 C.3       4 GLC5        0.0000 
     16 CA         49.4080  -38.2460   -4.7750 C.3      12 GLL5        0.0000 
     17 CA         47.9400  -40.8880   -7.1340 C.3       8 GLP5        0.0000 
     18 CA         48.7255  -37.2480   -6.2700 C.3       4 GLC5        0.0000 
     19 CA         48.0430  -36.2500   -7.7650 C.3       8 GLP5        0.0000 
     20 CA         47.7500  -36.9475   -4.5690 C.3       4 GLC5        0.0000 
     21 CA         46.0920  -35.6490   -4.3630 C.3       8 GLP5        0.0000 
     22 CA         47.4380  -41.1715   -2.2515 C.3       4 GLC5        0.0000 
     23 CA         48.9170  -39.7700   -2.8510 C.3      12 GLL5        0.0000 
     24 CA         45.9590  -42.5730   -1.6520 C.3       8 GLP5        0.0000 
     25 CA         46.9300  -39.4775   -3.5370 C.3       4 GLC5        0.0000 
     26 CA         44.9430  -39.1850   -4.2230 C.3       8 GLP5        0.0000 
     27 CA         48.9100  -40.8710   -4.7360 C.3       4 GLC5        0.0000 
     28 CA         48.9030  -41.9720   -6.6210 C.3       8 GLP5        0.0000 
     29 CA         44.2420  -38.4235    2.1855 C.3       4 GLC5        0.0000 
     30 CA         44.8090  -37.7190    0.2170 C.3      12 GLL5        0.0000 
     31 CA         43.6750  -39.1280    4.1540 C.3       8 GLP5        0.0000 
     32 CA         43.3815  -37.3025    2.4505 C.3       4 GLC5        0.0000 
     33 CA         43.8700  -36.7610    0.6270 C.3      12 GLL5        0.0000 
     34 CA         42.8930  -37.8440    4.2740 C.3       8 GLP5        0.0000 
     35 CA         43.0855  -36.2080    3.0425 C.3       4 GLC5        0.0000 
     36 CA         43.2780  -34.5720    1.8110 C.3      12 GLL5        0.0000 
     37 CA         43.9885  -33.5580    3.5135 C.3       4 GLC5        0.0000 
     38 CA         44.6990  -32.5440    5.2160 C.3       8 GLP5        0.0000 
     39 CA         44.2075  -34.0395   -0.7780 C.3       4 GLC5        0.0000 
     40 CA         43.1060  -33.5230    0.7420 C.3      12 GLL5        0.0000 
     41 CA         45.3090  -34.5560   -2.2980 C.3       8 GLP5        0.0000 
     42 CA         38.4115  -35.9965    3.9500 C.3       4 GLC5        0.0000 
     43 CA         39.8660  -35.1070    2.9040 C.3      12 GLL5        0.0000 
     44 CA         36.9570  -36.8860    4.9960 C.3       8 GLP5        0.0000 
     45 CA         39.6640  -36.8285    1.6995 C.3       4 GLC5        0.0000 
     46 CA         39.4620  -38.5500    0.4950 C.3       8 GLP5        0.0000 
     47 CA         38.2730  -35.4820    1.6805 C.3       4 GLC5        0.0000 
     48 CA         36.6800  -35.8570    0.4570 C.3       8 GLP5        0.0000 
     49 CA         43.0930  -29.5460   -1.3525 C.3       4 GLC5        0.0000 
     50 CA         41.1390  -29.6230   -0.6270 C.3      12 GLL5        0.0000 
     51 CA         45.0470  -29.4690   -2.0780 C.3       8 GLP5        0.0000 
     52 CA         42.5605  -27.9735   -0.0935 C.3       4 GLC5        0.0000 
     53 CA         43.9820  -26.3240    0.4400 C.3       8 GLP5        0.0000 
     54 NZ         32.1300  -24.2685   -5.1055 N.4       3 LYC4        0.0000 
     55 NZ         33.8460  -24.0340   -5.9020 N.4      11 LYL4        0.0000 
     56 NZ         30.4140  -24.5030   -4.3090 N.4       7 LYP4        0.0000 
     57 N          33.3105  -23.3485   -4.7340 N.am      2 SEC2        0.0000 
     58 N          33.8460  -24.0340   -5.9020 N.am     10 SEL2        0.0000 
     59 N          32.7750  -22.6630   -3.5660 N.am      6 SEP2        0.0000 
     60 CA         38.9685  -27.6665   -5.1735 C.3       4 GLC5        0.0000 
     61 CA         38.4710  -26.8880   -3.3770 C.3      12 GLL5        0.0000 
     62 CA         39.4660  -28.4450   -6.9700 C.3       8 GLP5        0.0000 
     63 CA         38.0075  -23.7910   -3.4160 C.3       4 GLC5        0.0000 
     64 CA         37.7150  -25.6400   -3.6560 C.3      12 GLL5        0.0000 
     65 CA         38.3000  -21.9420   -3.1760 C.3       8 GLP5        0.0000 
     66 CA         38.0815  -27.1685   -5.8715 C.3       4 GLC5        0.0000 
     67 CA         36.6970  -25.8920   -4.7730 C.3      12 GLL5        0.0000 
     68 CA         37.0075  -23.4095   -4.0045 C.3       4 GLC5        0.0000 
     69 CA         35.7150  -24.8770   -4.8330 C.3      12 GLL5        0.0000 
     70 CA         45.0940  -35.9785    3.2690 C.3       4 GLC5        0.0000 
     71 CA         44.2850  -35.6260    1.3310 C.3      12 GLL5        0.0000 
     72 CA         45.2270  -36.4180    5.0670 C.3       8 GLP5        0.0000 
     73 CA         45.1350  -35.0475   -0.4135 C.3       4 GLC5        0.0000 
     74 CA         45.6370  -35.4520    1.6110 C.3      12 GLL5        0.0000 
     75 CA         46.2685  -36.3280    3.2310 C.3       4 GLC5        0.0000 
     76 CA         46.5710  -36.3790    1.2110 C.3      12 GLL5        0.0000 
     77 CA         45.8362  -35.7527   -0.7170 C.3       4 GLC5        0.0000 
     78 CA         44.8242  -35.8980   -0.9380 C.3       4 GLC5        0.0000 
     79 CA         43.6543  -32.2335    2.6595 C.3       4 GLC5        0.0000 
     80 CA         44.7310  -31.4580    4.3610 C.3       8 GLP5        0.0000 
     81 CA         40.4592  -34.3257    4.4823 C.3       4 GLC5        0.0000 
     82 CA         41.0910  -34.2820    2.5310 C.3      12 GLL5        0.0000 
     83 CA         40.4400  -33.9570    6.2470 C.3       8 GLP5        0.0000 
     84 CA         41.6857  -36.2692    3.4958 C.3       4 GLC5        0.0000 
     85 CA         41.1787  -26.4853   -1.5413 C.3       4 GLC5        0.0000 
     86 CA         39.2360  -26.8350   -2.0560 C.3      12 GLL5        0.0000 
     87 CA         42.6080  -25.4240   -1.4560 C.3       8 GLP5        0.0000 
     88 CA         39.8236  -25.2994   -4.0171 C.3       4 GLC5        0.0000 
     89 CA         41.3630  -24.3480   -4.8480 C.3       8 GLP5        0.0000 
     90 CA         36.7375  -23.6867   -5.8405 C.3       4 GLC5        0.0000 
     91 CA         37.2690  -21.9890   -6.8780 C.3       8 GLP5        0.0000 
@<TRIPOS>BOND
@<TRIPOS>SUBSTRUCTURE
     1 ALC1        9 GROUP        1 X    ALC  0     ROOT ALC X 1
     2 SEC2        1 GROUP        1 X    SEC  0     **** SEC X 2
     3 LYC4       54 GROUP        1 X    LYC  0     **** LYC X 4
     4 GLC5       12 GROUP        1 X    GLC  0     **** GLC X 6
     5 ALP1       11 GROUP        1 Y    ALP  0     ROOT ALP Y 8
     6 SEP2        3 GROUP        1 Y    SEP  0     **** SEP Y 9
     7 LYP4       56 GROUP        1 Y    LYP  0     **** LYP Y 11
     8 GLP5       14 GROUP        1 Y    GLP  0     **** GLP Y 13
     9 ALL1       10 GROUP        1 Z    ALL  0     ROOT ALL Z 15
    10 SEL2        2 GROUP        1 Z    SEL  0     **** SEL Z 16
    11 LYL4       55 GROUP        1 Z    LYL  0     **** LYL Z 18
    12 GLL5       13 GROUP        1 Z    GLL  0     **** GLL Z 20
@<TRIPOS>SET

