#    Name: 2y31_SMQ_1_ligand
#    Modification time : Tue Mar 25 07:26:56 2014

@<TRIPOS>MOLECULE
2y31_SMQ_1_ligand
   89    94     1     0     0
SMALL
NO_CHARGES


@<TRIPOS>ATOM
      1 O4         34.9360  -25.9280   -6.6570 O.co2     1 SMQ501      0.0000 
      2 C1A        44.2850  -35.6260    1.3310 C.ar      1 SMQ501      0.0000 
      3 O1A        46.0860  -34.3600    2.2620 O.3       1 SMQ501      0.0000 
      4 C1B        45.6370  -35.4520    1.6110 C.ar      1 SMQ501      0.0000 
      5 O1B        48.3530  -34.7000    1.7280 O.3       1 SMQ501      0.0000 
      6 C1C        46.5710  -36.3790    1.2110 C.ar      1 SMQ501      0.0000 
      7 O1C        50.6990  -37.2100    2.1510 O.3       1 SMQ501      0.0000 
      8 C1D        48.0490  -36.0970    1.5790 C.3       1 SMQ501      0.0000 
      9 O1D        51.7060  -39.3990   -1.2070 O.3       1 SMQ501      0.0000 
     10 C1E        48.9950  -36.6810    0.5720 C.3       1 SMQ501      0.0000 
     11 O1E        48.6550  -41.1520   -1.1000 O.2       1 SMQ501      0.0000 
     12 C1F        50.4850  -36.5820    0.8950 C.3       1 SMQ501      0.0000 
     13 O1F        49.8160  -39.7440    0.6330 O.3       1 SMQ501      0.0000 
     14 C1G        51.3910  -37.2270   -0.1890 C.3       1 SMQ501      0.0000 
     15 O1G        46.7900  -39.6220   -0.1750 O.2       1 SMQ501      0.0000 
     16 C1H        50.7690  -38.3450   -1.0850 C.3       1 SMQ501      0.0000 
     17 O1H        48.6740  -36.3850   -0.7440 O.3       1 SMQ501      0.0000 
     18 C1I        50.2490  -37.6860   -2.3930 C.3       1 SMQ501      0.0000 
     19 C1J        49.4760  -38.5970   -3.3120 C.2       1 SMQ501      0.0000 
     20 C1K        49.4080  -38.2460   -4.7750 C.3       1 SMQ501      0.0000 
     21 C1L        48.9170  -39.7700   -2.8510 C.2       1 SMQ501      0.0000 
     22 C1M        49.0440  -40.0670   -1.5080 C.2       1 SMQ501      0.0000 
     23 C1N        49.5720  -39.0180   -0.5150 C.3       1 SMQ501      0.0000 
     24 C1O        48.5190  -37.9000   -0.2130 C.3       1 SMQ501      0.0000 
     25 C1P        47.1090  -38.4440    0.0750 C.2       1 SMQ501      0.0000 
     26 C1Q        46.1560  -37.5200    0.5170 C.ar      1 SMQ501      0.0000 
     27 C1R        44.8090  -37.7190    0.2170 C.ar      1 SMQ501      0.0000 
     28 C1S        43.8700  -36.7610    0.6270 C.ar      1 SMQ501      0.0000 
     29 C2A        43.2780  -34.5720    1.8110 C.3       1 SMQ501      0.0000 
     30 O2A        42.0000  -35.1670    1.9720 O.3       1 SMQ501      0.0000 
     31 C2B        43.1060  -33.5230    0.7420 C.3       1 SMQ501      0.0000 
     32 O2B        39.9650  -32.2990    2.3080 O.3       1 SMQ501      0.0000 
     33 C2C        42.0490  -32.4950    1.1740 C.3       1 SMQ501      0.0000 
     34 O2C        38.7340  -32.0600    0.4210 O.2       1 SMQ501      0.0000 
     35 C2D        40.7840  -33.1560    1.5350 C.3       1 SMQ501      0.0000 
     36 O2D        41.8750  -31.7030    0.0160 O.3       1 SMQ501      0.0000 
     37 C2E        41.0910  -34.2820    2.5310 C.3       1 SMQ501      0.0000 
     38 C2F        39.8660  -35.1070    2.9040 C.3       1 SMQ501      0.0000 
     39 C2G        38.9670  -31.7030    1.5840 C.2       1 SMQ501      0.0000 
     40 C2H        38.2010  -30.5240    2.2580 C.3       1 SMQ501      0.0000 
     41 C3A        41.6740  -30.3970    0.3740 C.2       1 SMQ501      0.0000 
     42 O3A        41.9360  -29.9600    1.5060 O.2       1 SMQ501      0.0000 
     43 C3B        41.1390  -29.6230   -0.6270 C.2       1 SMQ501      0.0000 
     44 O3B        33.8460  -24.0340   -5.9020 O.co2     1 SMQ501      0.0000 
     45 C3C        40.7300  -28.3030   -0.5920 C.2       1 SMQ501      0.0000 
     46 C3D        39.7960  -28.2130   -1.8020 C.2       1 SMQ501      0.0000 
     47 C3E        39.2360  -26.8350   -2.0560 C.2       1 SMQ501      0.0000 
     48 C3F        38.4710  -26.8880   -3.3770 C.2       1 SMQ501      0.0000 
     49 C3G        37.7150  -25.6400   -3.6560 C.2       1 SMQ501      0.0000 
     50 C3H        36.6970  -25.8920   -4.7730 C.2       1 SMQ501      0.0000 
     51 C3I        35.7150  -24.8770   -4.8330 C.2       1 SMQ501      0.0000 
     52 C3J        34.7730  -24.9350   -5.8540 C.2       1 SMQ501      0.0000 
     53 H          48.2431  -36.6161    2.5390 H         1 SMQ501      0.0000 
     54 H          50.7426  -35.5249    0.9534 H         1 SMQ501      0.0000 
     55 H          52.2929  -37.6468    0.3107 H         1 SMQ501      0.0000 
     56 H          51.7697  -36.4204   -0.8564 H         1 SMQ501      0.0000 
     57 H          51.1221  -37.2671   -2.9317 H         1 SMQ501      0.0000 
     58 H          49.6177  -36.8207   -2.1087 H         1 SMQ501      0.0000 
     59 H          48.4244  -40.4002   -3.4816 H         1 SMQ501      0.0000 
     60 H          44.5068  -38.5481   -0.2932 H         1 SMQ501      0.0000 
     61 H          42.8762  -36.8950    0.4089 H         1 SMQ501      0.0000 
     62 H          43.6300  -34.1198    2.6950 H         1 SMQ501      0.0000 
     63 H          42.7832  -33.9884   -0.1861 H         1 SMQ501      0.0000 
     64 H          44.0481  -33.0070    0.5734 H         1 SMQ501      0.0000 
     65 H          42.4476  -31.9346    1.9768 H         1 SMQ501      0.0000 
     66 H          40.2901  -33.5665    0.7173 H         1 SMQ501      0.0000 
     67 H          41.4819  -33.8390    3.4381 H         1 SMQ501      0.0000 
     68 H          41.0172  -30.1233   -1.5981 H         1 SMQ501      0.0000 
     69 H          40.9058  -27.6192   -0.0551 H         1 SMQ501      0.0000 
     70 H          39.5943  -28.9626   -2.3371 H         1 SMQ501      0.0000 
     71 H          39.3289  -26.1147   -1.5364 H         1 SMQ501      0.0000 
     72 H          38.4901  -27.6382   -3.9372 H         1 SMQ501      0.0000 
     73 H          37.8217  -24.8344   -3.2401 H         1 SMQ501      0.0000 
     74 H          36.7704  -26.6550   -5.3243 H         1 SMQ501      0.0000 
     75 H          35.7070  -24.1336   -4.1470 H         1 SMQ501      0.0000 
     76 H          50.3165  -38.2121   -5.1914 H         1 SMQ501      0.0000 
     77 H          48.8730  -38.9137   -5.2927 H         1 SMQ501      0.0000 
     78 H          48.9841  -37.3525   -4.9233 H         1 SMQ501      0.0000 
     79 H          40.0896  -35.8283    3.5595 H         1 SMQ501      0.0000 
     80 H          39.1517  -34.5441    3.3199 H         1 SMQ501      0.0000 
     81 H          39.4607  -35.5520    2.1054 H         1 SMQ501      0.0000 
     82 H          38.8128  -29.7676    2.4893 H         1 SMQ501      0.0000 
     83 H          37.4897  -30.1535    1.6607 H         1 SMQ501      0.0000 
     84 H          37.7531  -30.8084    3.1057 H         1 SMQ501      0.0000 
     85 H          47.0130  -34.5957    2.5537 H         1 SMQ501      0.0000 
     86 H          48.7240  -34.4201    0.8425 H         1 SMQ501      0.0000 
     87 H          51.6549  -37.5033    2.1340 H         1 SMQ501      0.0000 
     88 H          51.5532  -39.9752   -0.4041 H         1 SMQ501      0.0000 
     89 H          50.0892  -39.0656    1.3150 H         1 SMQ501      0.0000 
@<TRIPOS>BOND
     1   52    1 ar   
     2    4    2 ar   
     3   28    2 ar   
     4   29    2 1    
     5    4    3 1    
     6   85    3 1    
     7    6    4 ar   
     8    8    5 1    
     9   86    5 1    
    10    8    6 1    
    11   26    6 ar   
    12   12    7 1    
    13   87    7 1    
    14   10    8 1    
    15   53    8 1    
    16   16    9 1    
    17   88    9 1    
    18   12   10 1    
    19   17   10 1    
    20   24   10 1    
    21   22   11 2    
    22   14   12 1    
    23   54   12 1    
    24   23   13 1    
    25   89   13 1    
    26   16   14 1    
    27   55   14 1    
    28   56   14 1    
    29   25   15 2    
    30   18   16 1    
    31   23   16 1    
    32   24   17 1    
    33   19   18 1    
    34   57   18 1    
    35   58   18 1    
    36   20   19 1    
    37   21   19 2    
    38   76   20 1    
    39   77   20 1    
    40   78   20 1    
    41   22   21 1    
    42   59   21 1    
    43   23   22 1    
    44   24   23 1    
    45   25   24 1    
    46   26   25 1    
    47   27   26 ar   
    48   28   27 ar   
    49   60   27 1    
    50   61   28 1    
    51   30   29 1    
    52   31   29 1    
    53   62   29 1    
    54   37   30 1    
    55   33   31 1    
    56   63   31 1    
    57   64   31 1    
    58   35   32 1    
    59   39   32 1    
    60   35   33 1    
    61   36   33 1    
    62   65   33 1    
    63   39   34 2    
    64   37   35 1    
    65   66   35 1    
    66   41   36 1    
    67   38   37 1    
    68   67   37 1    
    69   79   38 1    
    70   80   38 1    
    71   81   38 1    
    72   40   39 1    
    73   82   40 1    
    74   83   40 1    
    75   84   40 1    
    76   42   41 2    
    77   43   41 1    
    78   45   43 2    
    79   68   43 1    
    80   52   44 ar   
    81   46   45 1    
    82   69   45 1    
    83   47   46 2    
    84   70   46 1    
    85   48   47 1    
    86   71   47 1    
    87   49   48 2    
    88   72   48 1    
    89   50   49 1    
    90   73   49 1    
    91   51   50 2    
    92   74   50 1    
    93   52   51 1    
    94   75   51 1    
@<TRIPOS>SUBSTRUCTURE
     1 SMQ501      1 GROUP   
@<TRIPOS>SET

