#    Name: 3gnv_XNZ_1_INTS_M
#    Modification time : Tue Mar 25 12:45:32 2014

@<TRIPOS>MOLECULE
3gnv_XNZ_1_INTS_M
   61     0     9     0     0
SMALL
NO_CHARGES


@<TRIPOS>ATOM
      1 CA         27.5820   42.7995   94.3635 C.3       3 GLC5        0.0000 
      2 CA         28.0250   43.8540   95.6130 C.3       9 GLL5        0.0000 
      3 CA         27.1390   41.7450   93.1140 C.3       6 GLP5        0.0000 
      4 CA         26.3635   43.5640   96.1390 C.3       3 GLC5        0.0000 
      5 CA         24.7020   43.2740   96.6650 C.3       6 GLP5        0.0000 
      6 CA         30.8230   43.3000  100.1880 C.3       3 GLC5        0.0000 
      7 CA         29.5280   42.7140  101.6100 C.3       9 GLL5        0.0000 
      8 CA         32.1180   43.8860   98.7660 C.3       6 GLP5        0.0000 
      9 CA         30.9020   43.3775  102.8290 C.3       3 GLC5        0.0000 
     10 CA         32.2760   44.0410  104.0480 C.3       6 GLP5        0.0000 
     11 CA         30.2215   43.8975  103.7425 C.3       3 GLC5        0.0000 
     12 CA         28.1670   43.7540  103.4370 C.3       9 GLL5        0.0000 
     13 CA         25.4120   45.4605  103.5175 C.3       3 GLC5        0.0000 
     14 CA         26.9520   43.9810  104.0910 C.3       9 GLL5        0.0000 
     15 CA         23.8720   46.9400  102.9440 C.3       6 GLP5        0.0000 
     16 CA         24.4920   42.4915  104.3345 C.3       3 GLC5        0.0000 
     17 CA         25.7770   43.4160  103.6020 C.3       9 GLL5        0.0000 
     18 CA         23.2070   41.5670  105.0670 C.3       6 GLP5        0.0000 
     19 CA         24.7275   41.4490  103.4040 C.3       3 GLC5        0.0000 
     20 CA         25.8140   42.6170  102.4510 C.3       9 GLL5        0.0000 
     21 CA         23.6410   40.2810  104.3570 C.3       6 GLP5        0.0000 
     22 CA         26.1245   45.2675   99.7440 C.3       3 GLC5        0.0000 
     23 CA         28.1510   45.8260   99.0810 C.3       9 GLL5        0.0000 
     24 CA         24.0980   44.7090  100.4070 C.3       6 GLP5        0.0000 
     25 CA         26.0665   44.9410   96.7115 C.3       3 GLC5        0.0000 
     26 CA         27.4310   46.6080   96.7580 C.3       9 GLL5        0.0000 
     27 N          23.9445   46.4245   96.4945 N.am      2 SEC2        0.0000 
     28 N          24.7700   47.1310   97.5660 N.am      8 SEL2        0.0000 
     29 N          23.1190   45.7180   95.4230 N.am      5 SEP2        0.0000 
     30 CA         23.4570   51.4425  100.3480 C.3       3 GLC5        0.0000 
     31 CA         25.4080   51.3300   99.7410 C.3       9 GLL5        0.0000 
     32 CA         21.5060   51.5550  100.9550 C.3       6 GLP5        0.0000 
     33 CA         24.7180   51.4940  101.7650 C.3       3 GLC5        0.0000 
     34 CA         24.0280   51.6580  103.7890 C.3       6 GLP5        0.0000 
     35 CA         24.5585   47.9630  101.1115 C.3       3 GLC5        0.0000 
     36 CA         26.0010   49.0090  100.5800 C.3       9 GLL5        0.0000 
     37 CA         23.1160   46.9170  101.6430 C.3       6 GLP5        0.0000 
     38 CA         27.0065   48.6885  102.2040 C.3       3 GLC5        0.0000 
     39 CA         28.0120   48.3680  103.8280 C.3       6 GLP5        0.0000 
     40 O          32.8370   48.8050   99.3125 O.2       1 ALC1        0.0000 
     41 O          31.7890   49.0400   98.6860 O.2       7 ALL1        0.0000 
     42 O          33.8850   48.5700   99.9390 O.2       4 ALP1        0.0000 
     43 CA         30.2957   43.8320   98.2200 C.3       3 GLC5        0.0000 
     44 CA         28.2390   44.2750   97.2560 C.3       9 GLL5        0.0000 
     45 CA         27.9128   42.2773  104.4360 C.3       3 GLC5        0.0000 
     46 CA         28.2660   40.6870  105.1080 C.3       6 GLP5        0.0000 
     47 CA         27.0307   41.8517  104.0673 C.3       3 GLC5        0.0000 
     48 CA         28.3810   40.9000  101.8321 C.3       3 GLC5        0.0000 
     49 CA         27.0220   42.3850  101.7870 C.3       9 GLL5        0.0000 
     50 CA         28.8190   39.1900  101.7960 C.3       6 GLP5        0.0000 
     51 CA         28.1045   41.6485  103.4881 C.3       3 GLC5        0.0000 
     52 CA         25.2534   43.7049  101.4069 C.3       3 GLC5        0.0000 
     53 CA         30.2886   44.4480   99.0714 C.3       3 GLC5        0.0000 
     54 CA         28.9080   43.5520   99.4270 C.3       9 GLL5        0.0000 
     55 CA         31.8205   45.0645   97.4462 C.3       3 GLC5        0.0000 
     56 CA         30.8730   46.1880   95.8880 C.3       9 GLL5        0.0000 
     57 CA         32.7278   46.0950   98.2600 C.3       3 GLC5        0.0000 
     58 CA         32.4650   47.2780   97.2980 C.3       9 GLL5        0.0000 
     59 CA         33.4900   44.4910   98.9960 C.3       6 GLP5        0.0000 
     60 CA         32.9688   47.9775   99.4195 C.3       3 GLC5        0.0000 
     61 CA         33.9720   48.2560  101.3150 C.3       6 GLP5        0.0000 
@<TRIPOS>BOND
@<TRIPOS>SUBSTRUCTURE
     1 ALC1       40 GROUP        1 X    ALC  0     ROOT ALC X 1
     2 SEC2       27 GROUP        1 X    SEC  0     **** SEC X 2
     3 GLC5        1 GROUP        1 X    GLC  0     **** GLC X 6
     4 ALP1       42 GROUP        1 Y    ALP  0     ROOT ALP Y 8
     5 SEP2       29 GROUP        1 Y    SEP  0     **** SEP Y 9
     6 GLP5        3 GROUP        1 Y    GLP  0     **** GLP Y 13
     7 ALL1       41 GROUP        1 Z    ALL  0     ROOT ALL Z 15
     8 SEL2       28 GROUP        1 Z    SEL  0     **** SEL Z 16
     9 GLL5        2 GROUP        1 Z    GLL  0     **** GLL Z 20
@<TRIPOS>SET

