#    Name: 3gnv_XNZ_1_ligand
#    Modification time : Tue Mar 25 12:45:32 2014

@<TRIPOS>MOLECULE
3gnv_XNZ_1_ligand
   66    70     1     0     0
SMALL
NO_CHARGES


@<TRIPOS>ATOM
      1 CL37       28.0250   43.8540   95.6130 Cl        1 XNZ579      0.0000 
      2 C17        28.2390   44.2750   97.2560 C.ar      1 XNZ579      0.0000 
      3 C18        28.7080   43.2810   98.0920 C.ar      1 XNZ579      0.0000 
      4 C19        28.9080   43.5520   99.4270 C.ar      1 XNZ579      0.0000 
      5 O22        29.3790   42.5370  100.2030 O.3       1 XNZ579      0.0000 
      6 C23        29.5280   42.7140  101.6100 C.3       1 XNZ579      0.0000 
      7 C24        28.2000   42.9560  102.2890 C.ar      1 XNZ579      0.0000 
      8 C29        28.1670   43.7540  103.4370 C.ar      1 XNZ579      0.0000 
      9 C28        26.9520   43.9810  104.0910 C.ar      1 XNZ579      0.0000 
     10 C27        25.7770   43.4160  103.6020 C.ar      1 XNZ579      0.0000 
     11 C26        25.8140   42.6170  102.4510 C.ar      1 XNZ579      0.0000 
     12 C25        27.0220   42.3850  101.7870 C.ar      1 XNZ579      0.0000 
     13 C20        28.6270   44.8360   99.9180 C.ar      1 XNZ579      0.0000 
     14 C21        28.1510   45.8260   99.0810 C.ar      1 XNZ579      0.0000 
     15 C16        27.9440   45.5570   97.7350 C.ar      1 XNZ579      0.0000 
     16 C8         27.4310   46.6080   96.7580 C.3       1 XNZ579      0.0000 
     17 N7         28.5230   46.8510   95.7930 N.am      1 XNZ579      0.0000 
     18 C30        28.1790   47.4820   94.5800 C.2       1 XNZ579      0.0000 
     19 O32        27.1990   47.0260   94.0090 O.2       1 XNZ579      0.0000 
     20 C31        28.8860   48.6670   93.9430 C.3       1 XNZ579      0.0000 
     21 C4         29.8540   47.0500   96.3000 C.ar      1 XNZ579      0.0000 
     22 C3         30.8730   46.1880   95.8880 C.ar      1 XNZ579      0.0000 
     23 C2         32.1730   46.2980   96.3650 C.ar      1 XNZ579      0.0000 
     24 C9         27.0000   47.8950   97.4920 C.2       1 XNZ579      0.0000 
     25 C12        25.5380   48.0550   97.7550 C.2       1 XNZ579      0.0000 
     26 O36        24.7700   47.1310   97.5660 O.2       1 XNZ579      0.0000 
     27 C13        25.0180   49.3810   98.2680 C.3       1 XNZ579      0.0000 
     28 C14        25.9330   49.9370   99.3450 C.3       1 XNZ579      0.0000 
     29 C34        25.4080   51.3300   99.7410 C.3       1 XNZ579      0.0000 
     30 C35        26.0010   49.0090  100.5800 C.3       1 XNZ579      0.0000 
     31 C15        27.3230   50.0650   98.7430 C.3       1 XNZ579      0.0000 
     32 C10        27.8400   48.8500   97.9600 C.2       1 XNZ579      0.0000 
     33 N11        29.2060   48.8590   97.8050 N.pl3     1 XNZ579      0.0000 
     34 C5         30.1680   48.0090   97.2650 C.ar      1 XNZ579      0.0000 
     35 C6         31.4660   48.1200   97.7500 C.ar      1 XNZ579      0.0000 
     36 O33        31.7890   49.0400   98.6860 O.3       1 XNZ579      0.0000 
     37 C1         32.4650   47.2780   97.2980 C.ar      1 XNZ579      0.0000 
     38 H          28.9066   42.3427   97.7172 H         1 XNZ579      0.0000 
     39 H          30.1887   43.5715  101.8397 H         1 XNZ579      0.0000 
     40 H          29.9936   41.8268  102.0798 H         1 XNZ579      0.0000 
     41 H          29.0303   44.1709  103.7977 H         1 XNZ579      0.0000 
     42 H          26.9289   44.5672  104.9353 H         1 XNZ579      0.0000 
     43 H          24.8853   43.5815  104.0795 H         1 XNZ579      0.0000 
     44 H          24.9447   42.1989  102.0935 H         1 XNZ579      0.0000 
     45 H          27.0481   41.8074  100.9470 H         1 XNZ579      0.0000 
     46 H          28.7815   45.0339  100.9209 H         1 XNZ579      0.0000 
     47 H          27.9485   46.7654   99.4526 H         1 XNZ579      0.0000 
     48 H          26.5769   46.1951   96.2435 H         1 XNZ579      0.0000 
     49 H          30.6470   45.4381   95.1994 H         1 XNZ579      0.0000 
     50 H          32.9019   45.6634   96.0305 H         1 XNZ579      0.0000 
     51 H          24.0177   49.2438   98.6811 H         1 XNZ579      0.0000 
     52 H          24.9596   50.0922   97.4429 H         1 XNZ579      0.0000 
     53 H          28.0486   50.2922   99.5558 H         1 XNZ579      0.0000 
     54 H          27.3441   50.9505   98.0691 H         1 XNZ579      0.0000 
     55 H          29.6834   49.8153   98.2304 H         1 XNZ579      0.0000 
     56 H          33.4262   47.3792   97.6548 H         1 XNZ579      0.0000 
     57 H          29.8441   48.4635   93.7417 H         1 XNZ579      0.0000 
     58 H          28.4563   48.9364   93.0812 H         1 XNZ579      0.0000 
     59 H          28.8759   49.4698   94.5391 H         1 XNZ579      0.0000 
     60 H          25.9706   51.7503  100.4529 H         1 XNZ579      0.0000 
     61 H          25.4008   51.9590   98.9636 H         1 XNZ579      0.0000 
     62 H          24.4729   51.2882  100.0929 H         1 XNZ579      0.0000 
     63 H          26.3441   48.1001  100.3431 H         1 XNZ579      0.0000 
     64 H          26.6058   49.3755  101.2871 H         1 XNZ579      0.0000 
     65 H          25.1021   48.8828  100.9997 H         1 XNZ579      0.0000 
     66 H          32.7574   48.8828   98.8798 H         1 XNZ579      0.0000 
@<TRIPOS>BOND
     1    2    1 1    
     2    3    2 ar   
     3   15    2 ar   
     4    4    3 ar   
     5   38    3 1    
     6    5    4 1    
     7   13    4 ar   
     8    6    5 1    
     9    7    6 1    
    10   39    6 1    
    11   40    6 1    
    12    8    7 ar   
    13   12    7 ar   
    14    9    8 ar   
    15   41    8 1    
    16   10    9 ar   
    17   42    9 1    
    18   11   10 ar   
    19   43   10 1    
    20   12   11 ar   
    21   44   11 1    
    22   45   12 1    
    23   14   13 ar   
    24   46   13 1    
    25   15   14 ar   
    26   47   14 1    
    27   16   15 1    
    28   17   16 1    
    29   24   16 1    
    30   48   16 1    
    31   18   17 am   
    32   21   17 1    
    33   19   18 2    
    34   20   18 1    
    35   57   20 1    
    36   58   20 1    
    37   59   20 1    
    38   22   21 ar   
    39   34   21 ar   
    40   23   22 ar   
    41   49   22 1    
    42   37   23 ar   
    43   50   23 1    
    44   25   24 1    
    45   32   24 2    
    46   26   25 2    
    47   27   25 1    
    48   28   27 1    
    49   51   27 1    
    50   52   27 1    
    51   29   28 1    
    52   30   28 1    
    53   31   28 1    
    54   60   29 1    
    55   61   29 1    
    56   62   29 1    
    57   63   30 1    
    58   64   30 1    
    59   65   30 1    
    60   32   31 1    
    61   53   31 1    
    62   54   31 1    
    63   33   32 1    
    64   34   33 1    
    65   55   33 1    
    66   35   34 ar   
    67   36   35 1    
    68   37   35 ar   
    69   66   36 1    
    70   56   37 1    
@<TRIPOS>SUBSTRUCTURE
     1 XNZ579      1 GROUP   
@<TRIPOS>SET

