#    Name: 1BWF_1_CAVITY_N1_ALL.mol2
#    Modification time : Mon Mar 10 15:24:15 2014

@<TRIPOS>MOLECULE
1BWF_1_CAVITY_N1_ALL.mol2
  111     0     7     0     0
SMALL
NO_CHARGES


@<TRIPOS>ATOM
      1 N          31.7055   13.5778   39.5863 N.2       2 ALA2        0.0000 
      2 O          32.1681   14.0938   38.2560 O.2       2 ALA2        0.0000 
      3 O          32.6306   14.6098   36.9256 O.2       2 ALA2        0.0000 
      4 N          32.3545   12.0546   40.9125 N.2       2 ALA2        0.0000 
      5 N          32.8170   12.5706   39.5822 N.2       2 ALA2        0.0000 
      6 DU         33.2796   13.0866   38.2518 H         7 CUB7        0.0000 
      7 O          33.7421   13.6025   36.9215 O.2       2 ALA2        0.0000 
      8 DU         34.2047   14.1185   35.5911 H         7 CUB7        0.0000 
      9 CA         33.9285   11.5633   39.5780 C.3       6 GLY6        0.0000 
     10 DU         34.3911   12.0793   38.2476 H         7 CUB7        0.0000 
     11 OD1        35.5026   11.0721   38.2434 O.3       3 ASP3        0.0000 
     12 CA         35.9651   11.5880   36.9131 C.3       6 GLY6        0.0000 
     13 DU         36.4277   12.1040   35.5828 H         7 CUB7        0.0000 
     14 DU         36.8903   12.6200   34.2524 H         7 CUB7        0.0000 
     15 OG         37.3528   13.1359   32.9221 O.2       1 SER1        0.0000 
     16 CA         37.0767   10.5808   36.9089 C.3       6 GLY6        0.0000 
     17 OG         38.0018   11.6127   34.2482 O.2       1 SER1        0.0000 
     18 OG         38.4643   12.1287   32.9179 O.2       1 SER1        0.0000 
     19 CA         31.2733   13.1093   37.5631 C.3       6 GLY6        0.0000 
     20 O          31.7359   13.6253   36.2327 O.2       2 ALA2        0.0000 
     21 O          32.1984   14.1412   34.9024 O.2       2 ALA2        0.0000 
     22 CA         32.6610   14.6572   33.5720 C.3       6 GLY6        0.0000 
     23 N          31.9223   11.5861   38.8892 N.2       2 ALA2        0.0000 
     24 DU         32.3848   12.1021   37.5589 H         7 CUB7        0.0000 
     25 DU         32.8474   12.6180   36.2285 H         7 CUB7        0.0000 
     26 OD1        33.3099   13.1340   34.8982 O.3       3 ASP3        0.0000 
     27 CA         33.7725   13.6499   33.5678 C.3       6 GLY6        0.0000 
     28 O          34.2350   14.1659   32.2375 O.2       2 ALA2        0.0000 
     29 CA         33.0338   10.5788   38.8850 C.3       6 GLY6        0.0000 
     30 O          33.4963   11.0948   37.5547 O.2       2 ALA2        0.0000 
     31 OD1        33.9589   11.6108   36.2243 O.3       3 ASP3        0.0000 
     32 OD1        34.4214   12.1267   34.8940 O.3       3 ASP3        0.0000 
     33 DU         34.8840   12.6427   33.5637 H         7 CUB7        0.0000 
     34 OG         35.3466   13.1587   32.2333 O.2       1 SER1        0.0000 
     35 OG         35.8091   13.6746   30.9030 O.2       1 SER1        0.0000 
     36 O          34.6078   10.0876   37.5505 O.2       2 ALA2        0.0000 
     37 O          35.0704   10.6035   36.2202 O.2       2 ALA2        0.0000 
     38 DU         35.5329   11.1195   34.8898 H         7 CUB7        0.0000 
     39 OG         35.9955   11.6355   33.5595 O.2       1 SER1        0.0000 
     40 OG         36.4581   12.1514   32.2291 O.2       1 SER1        0.0000 
     41 OG         36.6445   10.1123   34.8856 O.2       1 SER1        0.0000 
     42 OG         37.1070   10.6282   33.5553 O.2       1 SER1        0.0000 
     43 CA         29.2670   13.1320   36.8743 C.3       6 GLY6        0.0000 
     44 CA         29.7296   13.6480   35.5440 C.3       6 GLY6        0.0000 
     45 N          30.1922   14.1640   34.2136 N.2       2 ALA2        0.0000 
     46 N          29.9160   11.6088   38.2005 N.2       2 ALA2        0.0000 
     47 CA         30.3786   12.1248   36.8701 C.3       6 GLY6        0.0000 
     48 OD1        30.8411   12.6408   35.5398 O.3       3 ASP3        0.0000 
     49 OD1        31.3037   13.1567   34.2094 O.3       3 ASP3        0.0000 
     50 CA         31.7662   13.6727   32.8791 C.3       6 GLY6        0.0000 
     51 CA         31.0275   10.6016   38.1963 C.3       6 GLY6        0.0000 
     52 OD1        31.4901   11.1175   36.8659 O.3       3 ASP3        0.0000 
     53 OD1        31.9526   11.6335   35.5356 O.3       3 ASP3        0.0000 
     54 OD1        32.4152   12.1495   34.2052 O.3       3 ASP3        0.0000 
     55 OD1        32.8777   12.6654   32.8749 O.3       3 ASP3        0.0000 
     56 O          33.3403   13.1814   31.5446 O.2       2 ALA2        0.0000 
     57 O          32.1390    9.5943   38.1921 O.2       2 ALA2        0.0000 
     58 O          32.6016   10.1103   36.8618 O.2       2 ALA2        0.0000 
     59 OD1        33.0641   10.6263   35.5314 O.3       3 ASP3        0.0000 
     60 OD1        33.9892   11.6582   32.8707 O.3       3 ASP3        0.0000 
     61 OD1        34.4518   12.1742   31.5404 O.3       3 ASP3        0.0000 
     62 OG         34.9144   12.6901   30.2100 O.2       1 SER1        0.0000 
     63 O          33.7131    9.1031   36.8576 O.2       2 ALA2        0.0000 
     64 OD1        34.1756    9.6190   35.5272 O.3       3 ASP3        0.0000 
     65 OD1        34.6382   10.1350   34.1969 O.3       3 ASP3        0.0000 
     66 OD1        35.1007   10.6510   32.8665 O.3       3 ASP3        0.0000 
     67 OG         35.5633   11.1669   31.5362 O.2       1 SER1        0.0000 
     68 O          35.2871    8.6118   35.5230 O.2       2 ALA2        0.0000 
     69 OG         35.7497    9.1277   34.1927 O.2       1 SER1        0.0000 
     70 OG         36.2122    9.6437   32.8624 O.2       1 SER1        0.0000 
     71 CA         28.8348   12.6635   34.8510 C.3       6 GLY6        0.0000 
     72 CA         29.7600   13.6954   32.1903 C.3       6 GLY6        0.0000 
     73 CA         29.0212   10.6243   37.5075 C.3       6 GLY6        0.0000 
     74 OG         29.4838   11.1403   36.1772 O.2       1 SER1        0.0000 
     75 OD1        29.9463   11.6563   34.8468 O.3       3 ASP3        0.0000 
     76 OD1        30.4089   12.1722   33.5165 O.3       3 ASP3        0.0000 
     77 CA         30.8715   12.6882   32.1861 C.3       6 GLY6        0.0000 
     78 O          31.3340   13.2041   30.8558 O.2       2 ALA2        0.0000 
     79 CA         30.5953   10.1330   36.1730 C.3       6 GLY6        0.0000 
     80 O          32.4455   12.1969   30.8516 O.2       2 ALA2        0.0000 
     81 CA         32.9081   12.7129   29.5213 C.3       6 GLY6        0.0000 
     82 OD1        31.7068    9.1258   36.1688 O.3       3 ASP3        0.0000 
     83 OD1        33.5570   11.1897   30.8474 O.3       3 ASP3        0.0000 
     84 CA         34.0196   11.7056   29.5171 C.3       6 GLY6        0.0000 
     85 OD1        34.2060    9.6665   32.1736 O.3       3 ASP3        0.0000 
     86 O          34.6685   10.1824   30.8433 O.2       2 ALA2        0.0000 
     87 CA         34.8549    8.1432   33.4998 C.3       6 GLY6        0.0000 
     88 CA         28.8652   12.7109   31.4974 C.3       6 GLY6        0.0000 
     89 CZ         29.3278   13.2269   30.1670 C.ar      5 PHE5        0.0000 
     90 OD1        29.0516   10.6717   34.1539 O.3       3 ASP3        0.0000 
     91 OD1        29.5141   11.1877   32.8236 O.3       3 ASP3        0.0000 
     92 OD1        29.9767   11.7037   31.4932 O.3       3 ASP3        0.0000 
     93 O          30.4393   12.2196   30.1629 O.2       2 ALA2        0.0000 
     94 O          30.9018   12.7356   28.8325 O.2       2 ALA2        0.0000 
     95 OD1        31.5508   11.2124   30.1587 O.3       3 ASP3        0.0000 
     96 OG         32.0133   11.7284   28.8283 O.2       1 SER1        0.0000 
     97 OD1        32.6623   10.2052   30.1545 O.3       3 ASP3        0.0000 
     98 OD1        33.3112    8.6819   31.4807 O.3       3 ASP3        0.0000 
     99 O          33.7738    9.1979   30.1503 O.2       2 ALA2        0.0000 
    100 O          29.5445   11.2351   29.4699 O.2       2 ALA2        0.0000 
    101 CZ         30.0071   11.7511   28.1396 C.ar      5 PHE5        0.0000 
    102 NZ         30.6560   10.2279   29.4657 N.2       4 LYS4        0.0000 
    103 OG         31.1186   10.7439   28.1354 O.2       1 SER1        0.0000 
    104 NZ         31.7675    9.2207   29.4616 N.2       4 LYS4        0.0000 
    105 N          32.6003   14.5623   40.2793 N.2       2 ALA2        0.0000 
    106 CA         33.0628   15.0783   38.9489 C.3       6 GLY6        0.0000 
    107 NZ         33.2492   13.0391   41.6054 N.2       4 LYS4        0.0000 
    108 NZ         33.7118   13.5551   40.2751 N.2       4 LYS4        0.0000 
    109 DU         34.1743   14.0711   38.9447 H         7 CUB7        0.0000 
    110 NZ         34.8233   12.5478   40.2709 N.2       4 LYS4        0.0000 
    111 DU         35.2858   13.0638   38.9406 H         7 CUB7        0.0000 
@<TRIPOS>BOND
@<TRIPOS>SUBSTRUCTURE
     1 SER1       15 GROUP   
     2 ALA2        1 GROUP   
     3 ASP3       11 GROUP   
     4 LYS4      102 GROUP   
     5 PHE5       89 GROUP   
     6 GLY6        9 GROUP   
     7 CUB7        6 GROUP   
@<TRIPOS>SET

