#    Name: 1bwf_ATF_1_INTS_M
#    Modification time : Mon Mar 24 19:52:54 2014

@<TRIPOS>MOLECULE
1bwf_ATF_1_INTS_M
   59     0    12     0     0
SMALL
NO_CHARGES


@<TRIPOS>ATOM
      1 Zn         32.5305   10.0990   32.5810 Zn        3 ZIC7        0.0000 
      2 Zn         33.1790   10.4070   31.7600 Zn       11 ZIL7        0.0000 
      3 Zn         31.8820    9.7910   33.4020 Zn        7 ZIP7        0.0000 
      4 N          32.7075   13.7105   29.7565 N.am      2 SEC2        0.0000 
      5 N          32.9980   12.0750   29.7720 N.am     10 SEL2        0.0000 
      6 N          32.4170   15.3460   29.7410 N.am      6 SEP2        0.0000 
      7 N          36.6220    9.8665   29.4905 N.am      2 SEC2        0.0000 
      8 N          35.2190   10.4490   30.1990 N.am     10 SEL2        0.0000 
      9 N          38.0250    9.2840   28.7820 N.am      6 SEP2        0.0000 
     10 N          36.8135   10.9795   30.3470 N.am      2 SEC2        0.0000 
     11 N          38.4080   11.5100   30.4950 N.am      6 SEP2        0.0000 
     12 Zn         33.0550   10.2965   33.6145 Zn        3 ZIC7        0.0000 
     13 Zn         34.2280   10.8020   33.8270 Zn       11 ZIL7        0.0000 
     14 CA         32.5470   14.7840   31.6725 C.3       4 GLC5        0.0000 
     15 CA         34.0610   13.7110   31.6350 C.3      12 GLL5        0.0000 
     16 CA         31.0330   15.8570   31.7100 C.3       8 GLP5        0.0000 
     17 CA         33.9325   14.1890   29.7855 C.3       4 GLC5        0.0000 
     18 CA         33.8040   14.6670   27.9360 C.3       8 GLP5        0.0000 
     19 CA         37.6560   11.9845   30.3800 C.3       4 GLC5        0.0000 
     20 CA         36.0570   12.6180   31.4110 C.3      12 GLL5        0.0000 
     21 CA         39.2550   11.3510   29.3490 C.3       8 GLP5        0.0000 
     22 N          32.2740   15.7275   36.5730 N.am      2 SEC2        0.0000 
     23 N          33.0910   14.6160   36.2320 N.am     10 SEL2        0.0000 
     24 N          31.4570   16.8390   36.9140 N.am      6 SEP2        0.0000 
     25 CA         32.9760   16.7895   32.2280 C.3       4 GLC5        0.0000 
     26 CA         34.9190   17.7220   32.7460 C.3      12 GLL5        0.0000 
     27 O          36.7925   17.8425   29.7260 O.2       1 ALC1        0.0000 
     28 O          35.6040   18.0890   30.3910 O.2       9 ALL1        0.0000 
     29 O          37.9810   17.5960   29.0610 O.2       5 ALP1        0.0000 
     30 CA         38.0150   19.5615   30.7405 C.3       4 GLC5        0.0000 
     31 CA         36.5310   19.5650   32.3410 C.3      12 GLL5        0.0000 
     32 CA         39.4990   19.5580   29.1400 C.3       8 GLP5        0.0000 
     33 O          36.0810   20.8980   30.0120 O.2       1 ALC1        0.0000 
     34 O          36.5550   20.7120   31.3990 O.2       9 ALL1        0.0000 
     35 O          35.6070   21.0840   28.6250 O.2       5 ALP1        0.0000 
     36 CA         36.9540   24.2755   37.2675 C.3       4 GLC5        0.0000 
     37 CA         35.0260   23.2760   36.7680 C.3      12 GLL5        0.0000 
     38 CA         38.8820   25.2750   37.7670 C.3       8 GLP5        0.0000 
     39 CA         33.3230   24.4165   37.2770 C.3       4 GLC5        0.0000 
     40 CA         31.6200   25.5570   37.7860 C.3       8 GLP5        0.0000 
     41 N          33.5300   25.6820   36.3080 N.am      2 SEC2        0.0000 
     42 N          34.3000   24.1940   36.0890 N.am     10 SEL2        0.0000 
     43 N          32.7600   27.1700   36.5270 N.am      6 SEP2        0.0000 
     44 CA         34.5740   24.4970   32.7035 C.3       4 GLC5        0.0000 
     45 CA         34.0690   23.9490   34.8040 C.3      12 GLL5        0.0000 
     46 CA         35.0790   25.0450   30.6030 C.3       8 GLP5        0.0000 
     47 CA         32.4900   22.7090   34.9460 C.3       4 GLC5        0.0000 
     48 CA         30.9110   21.4690   35.0880 C.3       8 GLP5        0.0000 
     49 CA         32.8445   24.7530   36.2950 C.3       4 GLC5        0.0000 
     50 CA         37.1715   21.3805   33.3897 C.3       4 GLC5        0.0000 
     51 CA         35.3350   20.0050   33.1760 C.3      12 GLL5        0.0000 
     52 CA         38.4100   22.9760   34.0210 C.3       8 GLP5        0.0000 
     53 CA         36.7635   22.6672   34.8114 C.3       4 GLC5        0.0000 
     54 CA         35.3660   22.1240   36.0930 C.3      12 GLL5        0.0000 
     55 CA         33.2860   21.6818   36.0039 C.3       4 GLC5        0.0000 
     56 CA         35.0380   22.0170   34.7730 C.3      12 GLL5        0.0000 
     57 CA         31.4550   21.0050   36.4060 C.3       8 GLP5        0.0000 
     58 CA         34.6983   19.3648   31.0162 C.3       4 GLC5        0.0000 
     59 CA         33.6960   19.8600   29.5200 C.3       8 GLP5        0.0000 
@<TRIPOS>BOND
@<TRIPOS>SUBSTRUCTURE
     1 ALC1       27 GROUP        1 X    ALC  0     ROOT ALC X 1
     2 SEC2        4 GROUP        1 X    SEC  0     **** SEC X 2
     3 ZIC7        1 GROUP        1 X    ZIC  0     **** ZIC X 5
     4 GLC5       14 GROUP        1 X    GLC  0     **** GLC X 6
     5 ALP1       29 GROUP        1 Y    ALP  0     ROOT ALP Y 8
     6 SEP2        6 GROUP        1 Y    SEP  0     **** SEP Y 9
     7 ZIP7        3 GROUP        1 Y    ZIP  0     **** ZIP Y 12
     8 GLP5       16 GROUP        1 Y    GLP  0     **** GLP Y 13
     9 ALL1       28 GROUP        1 Z    ALL  0     ROOT ALL Z 15
    10 SEL2        5 GROUP        1 Z    SEL  0     **** SEL Z 16
    11 ZIL7        2 GROUP        1 Z    ZIL  0     **** ZIL Z 19
    12 GLL5       15 GROUP        1 Z    GLL  0     **** GLL Z 20
@<TRIPOS>SET

