#    Name: 1bwf_ATF_1_ligand
#    Modification time : Mon Mar 24 19:52:54 2014

@<TRIPOS>MOLECULE
1bwf_ATF_1_ligand
   45    47     1     0     0
SMALL
NO_CHARGES


@<TRIPOS>ATOM
      1 PG         33.9910   11.3030   30.8920 P.3       1 ATF601      0.0000 
      2 O1G        33.1790   10.4070   31.7600 O.co2     1 ATF601      0.0000 
      3 O2G        32.9980   12.0750   29.7720 O.co2     1 ATF601      0.0000 
      4 O3G        35.2190   10.4490   30.1990 O.co2     1 ATF601      0.0000 
      5 PB         34.7250   12.3560   33.4760 P.3       1 ATF601      0.0000 
      6 O1B        36.0670   12.5470   33.9670 O.co2     1 ATF601      0.0000 
      7 O2B        34.2280   10.8020   33.8270 O.co2     1 ATF601      0.0000 
      8 C3B        34.7450   12.5350   31.8140 C.3       1 ATF601      0.0000 
      9 F1B        34.0610   13.7110   31.6350 F         1 ATF601      0.0000 
     10 F2B        36.0570   12.6180   31.4110 F         1 ATF601      0.0000 
     11 PA         34.1700   14.6350   34.9810 P.3       1 ATF601      0.0000 
     12 O1A        35.5190   14.4360   35.5160 O.co2     1 ATF601      0.0000 
     13 O2A        33.0910   14.6160   36.2320 O.co2     1 ATF601      0.0000 
     14 O3A        33.6980   13.4830   33.9590 O.3       1 ATF601      0.0000 
     15 O5'        34.1200   16.0520   34.2250 O.3       1 ATF601      0.0000 
     16 C5'        35.2450   16.5050   33.5760 C.3       1 ATF601      0.0000 
     17 C4'        34.9190   17.7220   32.7460 C.3       1 ATF601      0.0000 
     18 O4'        34.6790   18.8080   33.6440 O.3       1 ATF601      0.0000 
     19 C3'        36.0170   18.1860   31.7870 C.3       1 ATF601      0.0000 
     20 O3'        35.6040   18.0890   30.3910 O.3       1 ATF601      0.0000 
     21 C2'        36.5310   19.5650   32.3410 C.3       1 ATF601      0.0000 
     22 O2'        36.5550   20.7120   31.3990 O.3       1 ATF601      0.0000 
     23 C1'        35.3350   20.0050   33.1760 C.3       1 ATF601      0.0000 
     24 N9         35.5810   20.8400   34.3460 N.pl3     1 ATF601      0.0000 
     25 C8         36.1350   20.2880   35.4640 C.2       1 ATF601      0.0000 
     26 N7         36.0490   21.0330   36.5370 N.2       1 ATF601      0.0000 
     27 C5         35.3660   22.1240   36.0930 C.ar      1 ATF601      0.0000 
     28 C6         35.0260   23.2760   36.7680 C.ar      1 ATF601      0.0000 
     29 N6         35.4090   23.4510   38.0480 N.pl3     1 ATF601      0.0000 
     30 N1         34.3000   24.1940   36.0890 N.ar      1 ATF601      0.0000 
     31 C2         34.0690   23.9490   34.8040 C.ar      1 ATF601      0.0000 
     32 N3         34.4050   22.9020   34.0610 N.ar      1 ATF601      0.0000 
     33 C4         35.0380   22.0170   34.7730 C.ar      1 ATF601      0.0000 
     34 H          35.6779   15.7477   32.8935 H         1 ATF601      0.0000 
     35 H          36.0549   16.7910   34.2753 H         1 ATF601      0.0000 
     36 H          34.0215   17.5312   32.1685 H         1 ATF601      0.0000 
     37 H          36.8693   17.4673   31.9787 H         1 ATF601      0.0000 
     38 H          37.3319   19.4762   32.9360 H         1 ATF601      0.0000 
     39 H          34.6291   20.5176   32.4997 H         1 ATF601      0.0000 
     40 H          36.5696   19.3766   35.4367 H         1 ATF601      0.0000 
     41 H          35.9468   22.7108   38.4515 H         1 ATF601      0.0000 
     42 H          35.1213   24.3055   38.4805 H         1 ATF601      0.0000 
     43 H          33.5039   24.7491   34.2654 H         1 ATF601      0.0000 
     44 H          36.4526   17.9567   29.8788 H         1 ATF601      0.0000 
     45 H          35.7560   20.5815   30.8120 H         1 ATF601      0.0000 
@<TRIPOS>BOND
     1    2    1 ar   
     2    3    1 ar   
     3    4    1 ar   
     4    8    1 1    
     5    6    5 ar   
     6    7    5 ar   
     7    8    5 1    
     8   14    5 1    
     9    9    8 1    
    10   10    8 1    
    11   12   11 ar   
    12   13   11 ar   
    13   14   11 1    
    14   15   11 1    
    15   16   15 1    
    16   17   16 1    
    17   34   16 1    
    18   35   16 1    
    19   18   17 1    
    20   19   17 1    
    21   36   17 1    
    22   23   18 1    
    23   20   19 1    
    24   21   19 1    
    25   37   19 1    
    26   44   20 1    
    27   22   21 1    
    28   23   21 1    
    29   38   21 1    
    30   45   22 1    
    31   24   23 1    
    32   39   23 1    
    33   25   24 1    
    34   33   24 1    
    35   26   25 2    
    36   40   25 1    
    37   27   26 1    
    38   28   27 ar   
    39   33   27 ar   
    40   29   28 1    
    41   30   28 ar   
    42   41   29 1    
    43   42   29 1    
    44   31   30 ar   
    45   32   31 ar   
    46   43   31 1    
    47   33   32 ar   
@<TRIPOS>SUBSTRUCTURE
     1 ATF601      1 GROUP   
@<TRIPOS>SET

