#    Name: 2qhz_MZ2_1_INTS_M
#    Modification time : Mon Mar 24 22:10:17 2014

@<TRIPOS>MOLECULE
2qhz_MZ2_1_INTS_M
   96     0     9     0     0
SMALL
NO_CHARGES


@<TRIPOS>ATOM
      1 CA         25.5835   28.2660   13.9810 C.3       3 GLC5        0.0000 
      2 CA         25.2620   26.9290   12.7400 C.3       9 GLL5        0.0000 
      3 CA         25.9050   29.6030   15.2220 C.3       6 GLP5        0.0000 
      4 CA         25.3015   29.5555   11.0815 C.3       3 GLC5        0.0000 
      5 CA         25.5470   27.4360   10.6820 C.3       9 GLL5        0.0000 
      6 CA         25.0560   31.6750   11.4810 C.3       6 GLP5        0.0000 
      7 CA         23.6475   25.5545   13.2200 C.3       3 GLC5        0.0000 
      8 CA         24.2440   25.7940   11.2190 C.3       9 GLL5        0.0000 
      9 CA         23.0510   25.3150   15.2210 C.3       6 GLP5        0.0000 
     10 CA         24.1480   23.8630   11.5180 C.3       3 GLC5        0.0000 
     11 CA         24.0520   21.9320   11.8170 C.3       6 GLP5        0.0000 
     12 CA         25.1390   29.0590    9.4635 C.3       3 GLC5        0.0000 
     13 CA         23.2270   28.7490   10.3010 C.3       9 GLL5        0.0000 
     14 CA         27.0510   29.3690    8.6260 C.3       6 GLP5        0.0000 
     15 CA         21.7730   29.7690    9.4680 C.3       3 GLC5        0.0000 
     16 CA         20.3190   30.7890    8.6350 C.3       6 GLP5        0.0000 
     17 CA         24.4080   28.9130   13.9900 C.3       3 GLC5        0.0000 
     18 CA         22.9110   28.2230   12.7580 C.3       9 GLL5        0.0000 
     19 CA         17.1920   31.1910   11.4525 C.3       3 GLC5        0.0000 
     20 CA         17.6950   29.2480   12.0440 C.3       9 GLL5        0.0000 
     21 CA         16.6890   33.1340   10.8610 C.3       6 GLP5        0.0000 
     22 CA         17.2865   30.7815   10.0855 C.3       3 GLC5        0.0000 
     23 CA         17.4840   29.0180   10.6870 C.3       9 GLL5        0.0000 
     24 CA         17.0890   32.5450    9.4840 C.3       6 GLP5        0.0000 
     25 N          19.4280   28.0865   17.9735 N.am      2 SEC2        0.0000 
     26 N          19.9900   28.6690   16.8200 N.am      8 SEL2        0.0000 
     27 N          18.8660   27.5040   19.1270 N.am      5 SEP2        0.0000 
     28 O          18.7365   28.3635   17.1685 O.2       1 ALC1        0.0000 
     29 O          19.9900   28.6690   16.8200 O.2       7 ALL1        0.0000 
     30 O          17.4830   28.0580   17.5170 O.2       4 ALP1        0.0000 
     31 CA         17.6135   30.8830   18.0790 C.3       3 GLC5        0.0000 
     32 CA         18.9480   30.8630   16.5560 C.3       9 GLL5        0.0000 
     33 CA         16.2790   30.9030   19.6020 C.3       6 GLP5        0.0000 
     34 CA         15.8410   33.5765   14.1730 C.3       3 GLC5        0.0000 
     35 CA         17.0000   33.7310   15.9270 C.3       9 GLL5        0.0000 
     36 CA         14.6820   33.4220   12.4190 C.3       6 GLP5        0.0000 
     37 CA         14.9705   30.3635   17.1770 C.3       3 GLC5        0.0000 
     38 CA         15.8330   31.8390   16.7860 C.3       9 GLL5        0.0000 
     39 CA         14.1080   28.8880   17.5680 C.3       6 GLP5        0.0000 
     40 CA         13.9555   35.8000   15.8345 C.3       3 GLC5        0.0000 
     41 CA         15.2190   35.3620   17.4250 C.3       9 GLL5        0.0000 
     42 CA         12.6920   36.2380   14.2440 C.3       6 GLP5        0.0000 
     43 CA         13.6455   37.5970   16.8985 C.3       3 GLC5        0.0000 
     44 CA         14.3920   36.1720   18.1260 C.3       9 GLL5        0.0000 
     45 CA         12.8990   39.0220   15.6710 C.3       6 GLP5        0.0000 
     46 CA         12.4235   36.5330   17.9080 C.3       3 GLC5        0.0000 
     47 CA         10.4550   36.8940   17.6900 C.3       6 GLP5        0.0000 
     48 CA         23.0175   32.8010   19.1875 C.3       3 GLC5        0.0000 
     49 CA         22.5310   33.1580   17.1400 C.3       9 GLL5        0.0000 
     50 CA         23.5040   32.4440   21.2350 C.3       6 GLP5        0.0000 
     51 CA         24.7030   31.2850   15.1410 C.3       3 GLC5        0.0000 
     52 CA         23.5010   32.9670   15.0600 C.3       9 GLL5        0.0000 
     53 CA         21.1330   34.4885   13.5770 C.3       3 GLC5        0.0000 
     54 CA         21.8830   32.9830   14.6610 C.3       9 GLL5        0.0000 
     55 CA         20.3830   35.9940   12.4930 C.3       6 GLP5        0.0000 
     56 CA         24.5377   26.6375   13.9060 C.3       3 GLC5        0.0000 
     57 CA         24.6570   27.0110   11.5600 C.3       9 GLL5        0.0000 
     58 CA         24.1160   26.3050   15.6620 C.3       6 GLP5        0.0000 
     59 CA         26.0765   28.2963    9.8735 C.3       3 GLC5        0.0000 
     60 CA         26.8546   28.0660   11.8300 C.3       3 GLC5        0.0000 
     61 CA         28.4560   28.9290   12.2440 C.3       6 GLP5        0.0000 
     62 CA         26.4088   25.4808   11.4612 C.3       3 GLC5        0.0000 
     63 CA         28.0690   24.4630   11.6050 C.3       6 GLP5        0.0000 
     64 CA         23.6660   27.2103   13.9160 C.3       3 GLC5        0.0000 
     65 CA         23.5210   28.0080   11.5820 C.3       9 GLL5        0.0000 
     66 CA         24.0992   29.9879   11.6654 C.3       3 GLC5        0.0000 
     67 CA         16.4312   27.7123   12.0338 C.3       3 GLC5        0.0000 
     68 CA         18.3980   28.3290   12.8150 C.3       9 GLL5        0.0000 
     69 CA         14.8160   26.6360   11.6380 C.3       6 GLP5        0.0000 
     70 CA         16.3664   29.1638   13.6469 C.3       3 GLC5        0.0000 
     71 CA         14.6280   29.4760   14.4910 C.3       6 GLP5        0.0000 
     72 CA         19.0232   29.6150    9.5113 C.3       3 GLC5        0.0000 
     73 CA         16.3473   28.6940    9.1387 C.3       3 GLC5        0.0000 
     74 CA         14.9670   28.9470    7.8900 C.3       6 GLP5        0.0000 
     75 CA         16.2718   27.5385   11.0128 C.3       3 GLC5        0.0000 
     76 CA         16.7963   26.8462   11.5858 C.3       3 GLC5        0.0000 
     77 CA         18.6690   26.9400   10.8530 C.3       9 GLL5        0.0000 
     78 CA         15.0530   37.5503   15.6190 C.3       3 GLC5        0.0000 
     79 CA         16.2170   35.9290   16.6520 C.3       9 GLL5        0.0000 
     80 CA         13.8340   38.5020   14.5920 C.3       6 GLP5        0.0000 
     81 CA         13.9595   32.7892   16.4088 C.3       3 GLC5        0.0000 
     82 CA         12.0100   33.0740   16.0650 C.3       6 GLP5        0.0000 
     83 CA         15.8925   32.0709   18.3546 C.3       3 GLC5        0.0000 
     84 CA         15.1030   33.9730   17.4620 C.3       9 GLL5        0.0000 
     85 CA         13.5433   35.5870   19.2818 C.3       3 GLC5        0.0000 
     86 CA         12.2810   35.4070   20.7880 C.3       6 GLP5        0.0000 
     87 CA         13.3933   34.2469   16.9249 C.3       3 GLC5        0.0000 
     88 CA         24.2415   34.0390   17.7365 C.3       3 GLC5        0.0000 
     89 CA         23.7330   33.0700   16.3800 C.3       9 GLL5        0.0000 
     90 CA         25.3510   34.9640   18.7130 C.3       6 GLP5        0.0000 
     91 CA         24.4585   32.0655   17.4035 C.3       3 GLC5        0.0000 
     92 CA         25.7850   31.0170   18.0470 C.3       6 GLP5        0.0000 
     93 CA         23.5770   32.9980   13.0068 C.3       3 GLC5        0.0000 
     94 CA         24.4620   33.0210   11.1530 C.3       6 GLP5        0.0000 
     95 CA         23.0457   34.7308   14.9894 C.3       3 GLC5        0.0000 
     96 CA         23.7450   36.4330   14.5390 C.3       6 GLP5        0.0000 
@<TRIPOS>BOND
@<TRIPOS>SUBSTRUCTURE
     1 ALC1       28 GROUP        1 X    ALC  0     ROOT ALC X 1
     2 SEC2       25 GROUP        1 X    SEC  0     **** SEC X 2
     3 GLC5        1 GROUP        1 X    GLC  0     **** GLC X 6
     4 ALP1       30 GROUP        1 Y    ALP  0     ROOT ALP Y 8
     5 SEP2       27 GROUP        1 Y    SEP  0     **** SEP Y 9
     6 GLP5        3 GROUP        1 Y    GLP  0     **** GLP Y 13
     7 ALL1       29 GROUP        1 Z    ALL  0     ROOT ALL Z 15
     8 SEL2       26 GROUP        1 Z    SEL  0     **** SEL Z 16
     9 GLL5        2 GROUP        1 Z    GLL  0     **** GLL Z 20
@<TRIPOS>SET

