#    Name: 2qhz_MZ2_1_ligand
#    Modification time : Mon Mar 24 22:10:17 2014

@<TRIPOS>MOLECULE
2qhz_MZ2_1_ligand
   64    66     1     0     0
SMALL
NO_CHARGES


@<TRIPOS>ATOM
      1 F26        25.2620   26.9290   12.7400 F         1 MZ2200      0.0000 
      2 C25        24.6570   27.0110   11.5600 C.3       1 MZ2200      0.0000 
      3 F28        25.5470   27.4360   10.6820 F         1 MZ2200      0.0000 
      4 F27        24.2440   25.7940   11.2190 F         1 MZ2200      0.0000 
      5 C23        23.5210   28.0080   11.5820 C.2       1 MZ2200      0.0000 
      6 C24        23.2270   28.7490   10.3010 C.3       1 MZ2200      0.0000 
      7 C22        22.9110   28.2230   12.7580 C.2       1 MZ2200      0.0000 
      8 C21        21.7270   29.1070   13.0060 C.2       1 MZ2200      0.0000 
      9 O22        21.4020   29.9610   12.2010 O.2       1 MZ2200      0.0000 
     10 N20        21.0300   28.8440   14.1270 N.am      1 MZ2200      0.0000 
     11 C19        19.8110   29.5400   14.5450 C.3       1 MZ2200      0.0000 
     12 C32        18.6310   28.5810   14.3080 C.3       1 MZ2200      0.0000 
     13 C38        18.3980   28.3290   12.8150 C.ar      1 MZ2200      0.0000 
     14 C37        17.6950   29.2480   12.0440 C.ar      1 MZ2200      0.0000 
     15 C36        17.4840   29.0180   10.6870 C.ar      1 MZ2200      0.0000 
     16 C35        17.9710   27.8640   10.0880 C.ar      1 MZ2200      0.0000 
     17 C34        18.6690   26.9400   10.8530 C.ar      1 MZ2200      0.0000 
     18 C33        18.8840   27.1730   12.2140 C.ar      1 MZ2200      0.0000 
     19 C17        20.0080   29.8740   16.0290 C.3       1 MZ2200      0.0000 
     20 O18        19.9900   28.6690   16.8200 O.3       1 MZ2200      0.0000 
     21 C16        18.9480   30.8630   16.5560 C.3       1 MZ2200      0.0000 
     22 N11        19.2510   32.1740   15.9310 N.pl3     1 MZ2200      0.0000 
     23 S8         18.0430   32.8250   15.0540 S.o2      1 MZ2200      0.0000 
     24 O9         18.6680   33.6150   14.0430 O.2       1 MZ2200      0.0000 
     25 O10        17.3130   31.7570   14.4250 O.2       1 MZ2200      0.0000 
     26 C5         17.0000   33.7310   15.9270 C.ar      1 MZ2200      0.0000 
     27 C6         17.0960   35.1230   15.9180 C.ar      1 MZ2200      0.0000 
     28 C7         16.2170   35.9290   16.6520 C.ar      1 MZ2200      0.0000 
     29 F1         16.3270   37.2680   16.6400 F         1 MZ2200      0.0000 
     30 C4         15.9850   33.1700   16.7190 C.ar      1 MZ2200      0.0000 
     31 F3         15.8330   31.8390   16.7860 F         1 MZ2200      0.0000 
     32 C3         15.1030   33.9730   17.4620 C.ar      1 MZ2200      0.0000 
     33 C2         15.2190   35.3620   17.4250 C.ar      1 MZ2200      0.0000 
     34 F2         14.3920   36.1720   18.1260 F         1 MZ2200      0.0000 
     35 C12        20.0220   33.1220   16.7870 C.3       1 MZ2200      0.0000 
     36 C15        21.4750   33.1020   16.2940 C.2       1 MZ2200      0.0000 
     37 C18        22.5310   33.1580   17.1400 C.2       1 MZ2200      0.0000 
     38 C14        23.7330   33.0700   16.3800 C.2       1 MZ2200      0.0000 
     39 C13        23.5010   32.9670   15.0600 C.2       1 MZ2200      0.0000 
     40 S1         21.8830   32.9830   14.6610 S.3       1 MZ2200      0.0000 
     41 H          23.2626   27.7400   13.6455 H         1 MZ2200      0.0000 
     42 H          21.3511   28.0805   14.7911 H         1 MZ2200      0.0000 
     43 H          19.6779   30.4250   13.9917 H         1 MZ2200      0.0000 
     44 H          17.7297   29.0128   14.7448 H         1 MZ2200      0.0000 
     45 H          18.8394   27.6326   14.8046 H         1 MZ2200      0.0000 
     46 H          17.3264   30.1073   12.4799 H         1 MZ2200      0.0000 
     47 H          16.9638   29.7085   10.1263 H         1 MZ2200      0.0000 
     48 H          17.8161   27.6959    9.0884 H         1 MZ2200      0.0000 
     49 H          19.0311   26.0792   10.4206 H         1 MZ2200      0.0000 
     50 H          19.4057   26.4828   12.7725 H         1 MZ2200      0.0000 
     51 H          20.9844   30.3647   16.1290 H         1 MZ2200      0.0000 
     52 H          19.0329   30.9180   17.6253 H         1 MZ2200      0.0000 
     53 H          17.9764   30.5122   16.2618 H         1 MZ2200      0.0000 
     54 H          17.8397   35.5762   15.3516 H         1 MZ2200      0.0000 
     55 H          14.3727   33.5310   18.0323 H         1 MZ2200      0.0000 
     56 H          19.9995   32.8062   17.8168 H         1 MZ2200      0.0000 
     57 H          19.6346   34.1224   16.6879 H         1 MZ2200      0.0000 
     58 H          22.5153   33.2419   18.0892 H         1 MZ2200      0.0000 
     59 H          24.6121   33.0865   16.8124 H         1 MZ2200      0.0000 
     60 H          24.0822   32.8865   14.3074 H         1 MZ2200      0.0000 
     61 H          24.0129   29.2854    9.9935 H         1 MZ2200      0.0000 
     62 H          22.9891   28.1246    9.5570 H         1 MZ2200      0.0000 
     63 H          22.4619   29.3842   10.4066 H         1 MZ2200      0.0000 
     64 H          19.1014   28.2501   16.6331 H         1 MZ2200      0.0000 
@<TRIPOS>BOND
     1    2    1 1    
     2    3    2 1    
     3    4    2 1    
     4    5    2 1    
     5    6    5 1    
     6    7    5 2    
     7   61    6 1    
     8   62    6 1    
     9   63    6 1    
    10    8    7 1    
    11   41    7 1    
    12    9    8 2    
    13   10    8 am   
    14   11   10 1    
    15   42   10 1    
    16   12   11 1    
    17   19   11 1    
    18   43   11 1    
    19   13   12 1    
    20   44   12 1    
    21   45   12 1    
    22   14   13 ar   
    23   18   13 ar   
    24   15   14 ar   
    25   46   14 1    
    26   16   15 ar   
    27   47   15 1    
    28   17   16 ar   
    29   48   16 1    
    30   18   17 ar   
    31   49   17 1    
    32   50   18 1    
    33   20   19 1    
    34   21   19 1    
    35   51   19 1    
    36   64   20 1    
    37   22   21 1    
    38   52   21 1    
    39   53   21 1    
    40   23   22 1    
    41   35   22 1    
    42   24   23 2    
    43   25   23 2    
    44   26   23 1    
    45   27   26 ar   
    46   30   26 ar   
    47   28   27 ar   
    48   54   27 1    
    49   29   28 1    
    50   33   28 ar   
    51   31   30 1    
    52   32   30 ar   
    53   33   32 ar   
    54   55   32 1    
    55   34   33 1    
    56   36   35 1    
    57   56   35 1    
    58   57   35 1    
    59   37   36 2    
    60   40   36 1    
    61   38   37 1    
    62   58   37 1    
    63   39   38 2    
    64   59   38 1    
    65   40   39 1    
    66   60   39 1    
@<TRIPOS>SUBSTRUCTURE
     1 MZ2200      1 GROUP   
@<TRIPOS>SET

