#    Name: 3gsi_THG_1_INTS_M
#    Modification time : Tue Mar 25 12:55:04 2014

@<TRIPOS>MOLECULE
3gsi_THG_1_INTS_M
   52     0     9     0     0
SMALL
NO_CHARGES


@<TRIPOS>ATOM
      1 O          48.6640   87.8215   47.6810 O.2       1 ALC1        0.0000 
      2 O          48.2030   87.6860   46.0080 O.2       7 ALL1        0.0000 
      3 O          49.1250   87.9570   49.3540 O.2       4 ALP1        0.0000 
      4 O          48.9285   88.3920   46.7765 O.2       1 ALC1        0.0000 
      5 O          49.6540   89.0980   47.5450 O.2       4 ALP1        0.0000 
      6 N          47.2555   84.2495   46.3345 N.am      2 SEC2        0.0000 
      7 N          46.9810   85.4030   45.8260 N.am      8 SEL2        0.0000 
      8 N          47.5300   83.0960   46.8430 N.am      5 SEP2        0.0000 
      9 CA         45.6390   86.8210   45.9745 C.3       3 GLC5        0.0000 
     10 CA         46.5520   85.7580   44.5900 C.3       9 GLL5        0.0000 
     11 CA         44.7260   87.8840   47.3590 C.3       6 GLP5        0.0000 
     12 CA         47.9100   84.5645   44.8805 C.3       3 GLC5        0.0000 
     13 CA         49.2680   83.3710   45.1710 C.3       6 GLP5        0.0000 
     14 CA         45.3395   84.7115   45.9215 C.3       3 GLC5        0.0000 
     15 CA         44.1270   83.6650   47.2530 C.3       6 GLP5        0.0000 
     16 CA         45.1610   87.6610   44.5980 C.3       3 GLC5        0.0000 
     17 CA         47.0040   87.1980   43.9430 C.3       9 GLL5        0.0000 
     18 CA         43.3180   88.1240   45.2530 C.3       6 GLP5        0.0000 
     19 O          44.9640   83.8200   44.3390 O.2       1 ALC1        0.0000 
     20 O          45.6910   84.8680   43.6680 O.2       7 ALL1        0.0000 
     21 O          44.2370   82.7720   45.0100 O.2       4 ALP1        0.0000 
     22 CA         44.1215   86.8605   43.9535 C.3       3 GLC5        0.0000 
     23 CA         44.9250   85.5970   42.6540 C.3       9 GLL5        0.0000 
     24 CA         48.2065   84.0925   40.3945 C.3       3 GLC5        0.0000 
     25 CA         46.8280   85.4110   41.0980 C.3       9 GLL5        0.0000 
     26 CA         49.5850   82.7740   39.6910 C.3       6 GLP5        0.0000 
     27 CA         51.8155   86.0990   44.3130 C.3       3 GLC5        0.0000 
     28 CA         51.5530   85.9840   42.3390 C.3       9 GLL5        0.0000 
     29 CA         52.0780   86.2140   46.2870 C.3       6 GLP5        0.0000 
     30 CA         55.7335   86.9605   39.2955 C.3       3 GLC5        0.0000 
     31 CA         56.1660   85.4460   40.1760 C.3       9 GLL5        0.0000 
     32 CA         55.3010   88.4750   38.4150 C.3       6 GLP5        0.0000 
     33 CA         58.0480   84.8205   42.7510 C.3       3 GLC5        0.0000 
     34 CA         56.6410   84.3490   41.1640 C.3       9 GLL5        0.0000 
     35 CA         59.4550   85.2920   44.3380 C.3       6 GLP5        0.0000 
     36 CA         54.0895   82.0640   41.3965 C.3       3 GLC5        0.0000 
     37 CA         56.0100   82.9720   40.8080 C.3       9 GLL5        0.0000 
     38 CA         52.1690   81.1560   41.9850 C.3       6 GLP5        0.0000 
     39 CA         55.6370   81.8435   39.1635 C.3       3 GLC5        0.0000 
     40 CA         55.2640   80.7150   37.5190 C.3       6 GLP5        0.0000 
     41 O          47.8615   84.5055   47.4020 O.2       1 ALC1        0.0000 
     42 O          48.1930   85.9150   47.9610 O.2       7 ALL1        0.0000 
     43 O          47.5300   83.0960   46.8430 O.2       4 ALP1        0.0000 
     44 O          48.6590   86.9360   48.6575 O.2       1 ALC1        0.0000 
     45 O          47.6235   86.6460   49.2405 O.2       1 ALC1        0.0000 
     46 O          47.0540   87.3770   50.5200 O.2       4 ALP1        0.0000 
     47 CA         51.3937   87.5915   38.4180 C.3       3 GLC5        0.0000 
     48 CA         50.3770   86.0580   39.5760 C.3       9 GLL5        0.0000 
     49 CA         51.6860   89.1100   37.1730 C.3       6 GLP5        0.0000 
     50 CA         50.0595   84.6712   43.7140 C.3       3 GLC5        0.0000 
     51 CA         55.4957   83.7687   42.7045 C.3       3 GLC5        0.0000 
     52 CA         54.6660   83.8770   44.4230 C.3       6 GLP5        0.0000 
@<TRIPOS>BOND
@<TRIPOS>SUBSTRUCTURE
     1 ALC1        1 GROUP        1 X    ALC  0     ROOT ALC X 1
     2 SEC2        6 GROUP        1 X    SEC  0     **** SEC X 2
     3 GLC5        9 GROUP        1 X    GLC  0     **** GLC X 6
     4 ALP1        3 GROUP        1 Y    ALP  0     ROOT ALP Y 8
     5 SEP2        8 GROUP        1 Y    SEP  0     **** SEP Y 9
     6 GLP5       11 GROUP        1 Y    GLP  0     **** GLP Y 13
     7 ALL1        2 GROUP        1 Z    ALL  0     ROOT ALL Z 15
     8 SEL2        7 GROUP        1 Z    SEL  0     **** SEL Z 16
     9 GLL5       10 GROUP        1 Z    GLL  0     **** GLL Z 20
@<TRIPOS>SET

