#    Name: 3gsi_THG_1_ligand
#    Modification time : Tue Mar 25 12:55:04 2014

@<TRIPOS>MOLECULE
3gsi_THG_1_ligand
   52    54     1     0     0
SMALL
NO_CHARGES


@<TRIPOS>ATOM
      1 N3         48.2030   87.6860   46.0080 N.am      1 THG2887     0.0000 
      2 C2         47.7820   86.2920   46.6100 C.2       1 THG2887     0.0000 
      3 N1         46.9810   85.4030   45.8260 N.2       1 THG2887     0.0000 
      4 C8A        46.5520   85.7580   44.5900 C.2       1 THG2887     0.0000 
      5 C4A        47.0040   87.1980   43.9430 C.2       1 THG2887     0.0000 
      6 C4         47.7970   88.0470   44.7310 C.2       1 THG2887     0.0000 
      7 N8         45.6910   84.8680   43.6680 N.pl3     1 THG2887     0.0000 
      8 C7         44.9250   85.5970   42.6540 C.3       1 THG2887     0.0000 
      9 C6         45.9070   86.3850   41.8780 C.3       1 THG2887     0.0000 
     10 N5         46.5100   87.4720   42.6150 N.3       1 THG2887     0.0000 
     11 C9         46.8280   85.4110   41.0980 C.3       1 THG2887     0.0000 
     12 N10        48.1320   85.9120   40.6970 N.pl3     1 THG2887     0.0000 
     13 C4'        49.5730   86.0160   40.7850 C.ar      1 THG2887     0.0000 
     14 C3'        50.3770   86.0580   39.5760 C.ar      1 THG2887     0.0000 
     15 C2'        51.8260   86.0880   39.7500 C.ar      1 THG2887     0.0000 
     16 C1'        52.3900   86.0550   41.1180 C.ar      1 THG2887     0.0000 
     17 C6'        51.5530   85.9840   42.3390 C.ar      1 THG2887     0.0000 
     18 C5'        50.1490   85.9590   42.1750 C.ar      1 THG2887     0.0000 
     19 C11        53.9210   86.0410   41.2620 C.2       1 THG2887     0.0000 
     20 N          54.6680   85.4260   40.1570 N.am      1 THG2887     0.0000 
     21 CA         56.1660   85.4460   40.1760 C.3       1 THG2887     0.0000 
     22 C          56.7060   85.0950   38.7780 C.2       1 THG2887     0.0000 
     23 OX2        55.6890   84.9370   37.8090 O.co2     1 THG2887     0.0000 
     24 OX1        57.8100   85.8770   38.4190 O.co2     1 THG2887     0.0000 
     25 CB         56.6410   84.3490   41.1640 C.3       1 THG2887     0.0000 
     26 CG         56.0100   82.9720   40.8080 C.3       1 THG2887     0.0000 
     27 CD         56.5630   81.7380   41.5840 C.2       1 THG2887     0.0000 
     28 OE1        57.9640   81.6330   41.5480 O.co2     1 THG2887     0.0000 
     29 OE2        55.8450   80.5650   41.2730 O.co2     1 THG2887     0.0000 
     30 O11        54.4540   86.4520   42.2450 O.2       1 THG2887     0.0000 
     31 O4         48.2570   89.2760   44.2230 O.2       1 THG2887     0.0000 
     32 N2         48.1930   85.9150   47.9610 N.pl3     1 THG2887     0.0000 
     33 H          48.7656   88.2550   46.6129 H         1 THG2887     0.0000 
     34 H          45.6845   83.9232   43.7805 H         1 THG2887     0.0000 
     35 H          44.2100   86.2603   43.1244 H         1 THG2887     0.0000 
     36 H          44.4088   84.9053   42.0000 H         1 THG2887     0.0000 
     37 H          45.2630   86.8656   41.0303 H         1 THG2887     0.0000 
     38 H          46.2470   85.0626   40.2028 H         1 THG2887     0.0000 
     39 H          46.9369   84.4907   41.7316 H         1 THG2887     0.0000 
     40 H          47.8475   86.6956   39.7297 H         1 THG2887     0.0000 
     41 H          49.9682   86.0659   38.6819 H         1 THG2887     0.0000 
     42 H          52.4355   86.1302   38.9634 H         1 THG2887     0.0000 
     43 H          51.9941   85.9562   43.2288 H         1 THG2887     0.0000 
     44 H          49.5132   85.9048   42.9442 H         1 THG2887     0.0000 
     45 H          54.1949   84.9961   39.3957 H         1 THG2887     0.0000 
     46 H          56.5350   86.3747   40.4850 H         1 THG2887     0.0000 
     47 H          56.3438   84.6229   42.1690 H         1 THG2887     0.0000 
     48 H          57.7198   84.2659   41.1111 H         1 THG2887     0.0000 
     49 H          56.1468   82.7927   39.7247 H         1 THG2887     0.0000 
     50 H          54.9185   83.0313   40.9794 H         1 THG2887     0.0000 
     51 H          48.3085   84.9359   48.1287 H         1 THG2887     0.0000 
     52 H          48.3249   86.6670   48.6068 H         1 THG2887     0.0000 
@<TRIPOS>BOND
     1    2    1 1    
     2    6    1 am   
     3   33    1 1    
     4    3    2 2    
     5   32    2 1    
     6    4    3 1    
     7    5    4 2    
     8    7    4 1    
     9    6    5 1    
    10   10    5 1    
    11   31    6 2    
    12    8    7 1    
    13   34    7 1    
    14    9    8 1    
    15   35    8 1    
    16   36    8 1    
    17   10    9 1    
    18   11    9 1    
    19   37    9 1    
    20   12   11 1    
    21   38   11 1    
    22   39   11 1    
    23   13   12 1    
    24   40   12 1    
    25   14   13 ar   
    26   18   13 ar   
    27   15   14 ar   
    28   41   14 1    
    29   16   15 ar   
    30   42   15 1    
    31   17   16 ar   
    32   19   16 1    
    33   18   17 ar   
    34   43   17 1    
    35   44   18 1    
    36   20   19 am   
    37   30   19 2    
    38   21   20 1    
    39   45   20 1    
    40   22   21 1    
    41   25   21 1    
    42   46   21 1    
    43   23   22 ar   
    44   24   22 ar   
    45   26   25 1    
    46   47   25 1    
    47   48   25 1    
    48   27   26 1    
    49   49   26 1    
    50   50   26 1    
    51   28   27 ar   
    52   29   27 ar   
    53   51   32 1    
    54   52   32 1    
@<TRIPOS>SUBSTRUCTURE
     1 THG2887     1 GROUP   
@<TRIPOS>SET

