#    Name: 1i7i_AZ2_1_INTS_M
#    Modification time : Tue Mar 25 06:45:31 2014

@<TRIPOS>MOLECULE
1i7i_AZ2_1_INTS_M
   79     0     6     0     0
SMALL
NO_CHARGES


@<TRIPOS>ATOM
      1 CA         19.1080   14.3335   17.8330 C.3       2 GLC5        0.0000 
      2 CA         18.8060   16.4240   17.9370 C.3       6 GLL5        0.0000 
      3 CA         19.4100   12.2430   17.7290 C.3       4 GLP5        0.0000 
      4 N          21.5450   17.2625   18.4925 N.am      1 SEC2        0.0000 
      5 N          20.4490   18.1410   17.6930 N.am      5 SEL2        0.0000 
      6 N          22.6410   16.3840   19.2920 N.am      3 SEP2        0.0000 
      7 CA         23.5630   20.6225   17.1575 C.3       2 GLC5        0.0000 
      8 CA         22.0860   19.6460   16.9440 C.3       6 GLL5        0.0000 
      9 CA         25.0400   21.5990   17.3710 C.3       4 GLP5        0.0000 
     10 CA         22.7370   18.3915   15.3350 C.3       2 GLC5        0.0000 
     11 CA         23.3880   17.1370   13.7260 C.3       4 GLP5        0.0000 
     12 CA         23.4270   19.4425   18.6315 C.3       2 GLC5        0.0000 
     13 CA         24.7680   19.2390   20.3190 C.3       4 GLP5        0.0000 
     14 N          17.0370   17.9910   20.0900 N.am      1 SEC2        0.0000 
     15 N          18.3230   17.9030   20.6580 N.am      5 SEL2        0.0000 
     16 N          15.7510   18.0790   19.5220 N.am      3 SEP2        0.0000 
     17 N          17.9060   16.9645   21.5975 N.am      1 SEC2        0.0000 
     18 N          17.4890   16.0260   22.5370 N.am      3 SEP2        0.0000 
     19 N          21.5810   16.9845   19.9165 N.am      1 SEC2        0.0000 
     20 N          20.5210   17.5850   20.5410 N.am      5 SEL2        0.0000 
     21 N          20.4855   16.8395   21.6685 N.am      1 SEC2        0.0000 
     22 N          20.4500   16.0940   22.7960 N.am      3 SEP2        0.0000 
     23 CA         20.4245   15.3295   13.0260 C.3       2 GLC5        0.0000 
     24 CA         18.9390   15.9390   14.1020 C.3       6 GLL5        0.0000 
     25 CA         21.9100   14.7200   11.9500 C.3       4 GLP5        0.0000 
     26 CA         14.8085   17.5210   14.0125 C.3       2 GLC5        0.0000 
     27 CA         16.6480   16.5200   14.7520 C.3       6 GLL5        0.0000 
     28 CA         12.9690   18.5220   13.2730 C.3       4 GLP5        0.0000 
     29 CA         16.2985   17.8375   17.3370 C.3       2 GLC5        0.0000 
     30 CA         17.0570   16.5930   16.1130 C.3       6 GLL5        0.0000 
     31 CA         15.5400   19.0820   18.5610 C.3       4 GLP5        0.0000 
     32 CA         15.9565   15.0625   16.8815 C.3       2 GLC5        0.0000 
     33 CA         14.8560   13.5320   17.6500 C.3       4 GLP5        0.0000 
     34 CA         19.1870   17.5135   12.0150 C.3       2 GLC5        0.0000 
     35 CA         18.2370   15.8860   11.3530 C.3       6 GLL5        0.0000 
     36 CA         20.1370   19.1410   12.6770 C.3       4 GLP5        0.0000 
     37 CA         16.9360   14.2440   11.5165 C.3       2 GLC5        0.0000 
     38 CA         15.6350   12.6020   11.6800 C.3       4 GLP5        0.0000 
     39 CA         17.0545   14.9450    8.8685 C.3       2 GLC5        0.0000 
     40 CA         17.6420   16.3750   10.0300 C.3       6 GLL5        0.0000 
     41 CA         16.4670   13.5150    7.7070 C.3       4 GLP5        0.0000 
     42 CA         20.8590   20.5345    9.5250 C.3       2 GLC5        0.0000 
     43 CA         18.7580   19.9510    9.1180 C.3       6 GLL5        0.0000 
     44 CA         22.9600   21.1180    9.9320 C.3       4 GLP5        0.0000 
     45 CA         19.7750   19.7400    7.2155 C.3       2 GLC5        0.0000 
     46 CA         20.7920   19.5290    5.3130 C.3       4 GLP5        0.0000 
     47 CA         17.4180   20.3175   12.2035 C.3       2 GLC5        0.0000 
     48 CA         16.6680   20.0780   10.4080 C.3       6 GLL5        0.0000 
     49 CA         18.1680   20.5570   13.9990 C.3       4 GLP5        0.0000 
     50 CA         17.6815   24.1735   10.4520 C.3       2 GLC5        0.0000 
     51 CA         17.5950   24.4670    8.7020 C.3       6 GLL5        0.0000 
     52 CA         17.7680   23.8800   12.2020 C.3       4 GLP5        0.0000 
     53 CA         19.1723   17.9835   15.0860 C.3       2 GLC5        0.0000 
     54 CA         19.3450   16.0130   15.4660 C.3       6 GLL5        0.0000 
     55 CA         19.4740   19.7890   14.1970 C.3       4 GLP5        0.0000 
     56 CA         17.2360   18.0914   18.1896 C.3       2 GLC5        0.0000 
     57 CA         19.2630   17.8180   18.4260 C.3       6 GLL5        0.0000 
     58 CA         20.4315   19.6863   15.7167 C.3       2 GLC5        0.0000 
     59 CA         20.6920   19.5210   17.5290 C.3       6 GLL5        0.0000 
     60 CA         20.6080   21.3098   17.7732 C.3       2 GLC5        0.0000 
     61 CA         19.8270   23.0360   18.3100 C.3       4 GLP5        0.0000 
     62 CA         19.1968   17.6037   13.2980 C.3       2 GLC5        0.0000 
     63 CA         17.9058   14.0392   13.5590 C.3       2 GLC5        0.0000 
     64 CA         17.5550   12.0120   13.1990 C.3       4 GLP5        0.0000 
     65 CA         18.1632   18.1728   14.8148 C.3       2 GLC5        0.0000 
     66 CA         19.4458   14.8397   10.8432 C.3       2 GLC5        0.0000 
     67 CA         20.9520   13.5490   10.9950 C.3       4 GLP5        0.0000 
     68 CA         17.4160   18.7490    7.8395 C.3       2 GLC5        0.0000 
     69 CA         18.7320   18.5310    9.2180 C.3       6 GLL5        0.0000 
     70 CA         16.0870   18.2570    6.5110 C.3       4 GLP5        0.0000 
     71 CA         19.1893   19.7392   11.0470 C.3       2 GLC5        0.0000 
     72 CA         17.4823   22.1405   11.1320 C.3       2 GLC5        0.0000 
     73 CA         17.7250   20.7240    9.7160 C.3       6 GLL5        0.0000 
     74 CA         16.6417   19.3290    8.2865 C.3       2 GLC5        0.0000 
     75 CA         15.1782   19.6037   12.0143 C.3       2 GLC5        0.0000 
     76 CA         13.6970   19.8370   13.5730 C.3       4 GLP5        0.0000 
     77 CA         18.7820   18.7869   11.3560 C.3       2 GLC5        0.0000 
     78 CA         16.6510   18.6630   10.5030 C.3       6 GLL5        0.0000 
     79 CA         16.6208   18.0754    8.3745 C.3       2 GLC5        0.0000 
@<TRIPOS>BOND
@<TRIPOS>SUBSTRUCTURE
     1 SEC2        4 GROUP        1 X    SEC  0     ROOT SEC X 2
     2 GLC5        1 GROUP        1 X    GLC  0     **** GLC X 6
     3 SEP2        6 GROUP        1 Y    SEP  0     ROOT SEP Y 9
     4 GLP5        3 GROUP        1 Y    GLP  0     **** GLP Y 13
     5 SEL2        5 GROUP        1 Z    SEL  0     ROOT SEL Z 16
     6 GLL5        2 GROUP        1 Z    GLL  0     **** GLL Z 20
@<TRIPOS>SET

