#    Name: 1i7i_AZ2_1_ligand
#    Modification time : Tue Mar 25 06:45:31 2014

@<TRIPOS>MOLECULE
1i7i_AZ2_1_ligand
   51    52     1     0     0
SMALL
NO_CHARGES


@<TRIPOS>ATOM
      1 C1         18.3960   16.3430   16.4840 C.ar      1 AZ2101      0.0000 
      2 C2         18.8060   16.4240   17.9370 C.3       1 AZ2101      0.0000 
      3 C5         19.2630   17.8180   18.4260 C.3       1 AZ2101      0.0000 
      4 O7         20.4490   18.1410   17.6930 O.3       1 AZ2101      0.0000 
      5 C8         20.6920   19.5210   17.5290 C.3       1 AZ2101      0.0000 
      6 C11        22.0860   19.6460   16.9440 C.3       1 AZ2101      0.0000 
      7 C15        19.4700   17.7540   19.9600 C.2       1 AZ2101      0.0000 
      8 O16        18.3230   17.9030   20.6580 O.co2     1 AZ2101      0.0000 
      9 O18        20.5210   17.5850   20.5410 O.co2     1 AZ2101      0.0000 
     10 C19        19.3450   16.0130   15.4660 C.ar      1 AZ2101      0.0000 
     11 C21        18.9390   15.9390   14.1020 C.ar      1 AZ2101      0.0000 
     12 C23        17.5740   16.1940   13.7360 C.ar      1 AZ2101      0.0000 
     13 C24        16.6480   16.5200   14.7520 C.ar      1 AZ2101      0.0000 
     14 C26        17.0570   16.5930   16.1130 C.ar      1 AZ2101      0.0000 
     15 O28        17.2390   16.1010   12.3820 O.3       1 AZ2101      0.0000 
     16 C29        18.2370   15.8860   11.3530 C.3       1 AZ2101      0.0000 
     17 C32        17.6420   16.3750   10.0300 C.3       1 AZ2101      0.0000 
     18 C35        17.6740   17.8740    9.9160 C.ar      1 AZ2101      0.0000 
     19 C36        18.7320   18.5310    9.2180 C.ar      1 AZ2101      0.0000 
     20 C38        18.7580   19.9510    9.1180 C.ar      1 AZ2101      0.0000 
     21 C40        17.7250   20.7240    9.7160 C.ar      1 AZ2101      0.0000 
     22 C41        16.6680   20.0780   10.4080 C.ar      1 AZ2101      0.0000 
     23 C43        16.6510   18.6630   10.5030 C.ar      1 AZ2101      0.0000 
     24 O45        17.8440   22.0760    9.5550 O.3       1 AZ2101      0.0000 
     25 S46        17.2560   22.7890    8.2240 S.o2      1 AZ2101      0.0000 
     26 C47        17.5950   24.4670    8.7020 C.3       1 AZ2101      0.0000 
     27 O51        18.1020   22.4590    7.1090 O.2       1 AZ2101      0.0000 
     28 O52        15.8090   22.5980    8.1760 O.2       1 AZ2101      0.0000 
     29 H          19.6302   15.7060   18.1275 H         1 AZ2101      0.0000 
     30 H          17.9610   16.0956   18.5768 H         1 AZ2101      0.0000 
     31 H          18.4600   18.5004   18.2157 H         1 AZ2101      0.0000 
     32 H          20.6735   20.0593   18.4724 H         1 AZ2101      0.0000 
     33 H          19.9941   19.9846   16.8375 H         1 AZ2101      0.0000 
     34 H          20.3139   15.8306   15.7192 H         1 AZ2101      0.0000 
     35 H          19.6164   15.7045   13.3798 H         1 AZ2101      0.0000 
     36 H          15.6700   16.7067   14.5107 H         1 AZ2101      0.0000 
     37 H          16.3644   16.8314   16.8321 H         1 AZ2101      0.0000 
     38 H          18.4804   14.8355   11.2478 H         1 AZ2101      0.0000 
     39 H          19.1394   16.4526   11.5491 H         1 AZ2101      0.0000 
     40 H          16.6072   16.0199    9.9580 H         1 AZ2101      0.0000 
     41 H          18.2082   15.9284    9.2041 H         1 AZ2101      0.0000 
     42 H          19.4735   17.9779    8.7886 H         1 AZ2101      0.0000 
     43 H          19.5153   20.4116    8.6190 H         1 AZ2101      0.0000 
     44 H          15.9259   20.6276   10.8340 H         1 AZ2101      0.0000 
     45 H          15.8837   18.2002   11.0062 H         1 AZ2101      0.0000 
     46 H          22.7782   19.2468   17.5452 H         1 AZ2101      0.0000 
     47 H          22.1614   19.1819   16.0614 H         1 AZ2101      0.0000 
     48 H          22.3423   20.6012   16.7957 H         1 AZ2101      0.0000 
     49 H          18.5757   24.6627    8.7006 H         1 AZ2101      0.0000 
     50 H          17.1642   25.1237    8.0830 H         1 AZ2101      0.0000 
     51 H          17.2576   24.6665    9.6220 H         1 AZ2101      0.0000 
@<TRIPOS>BOND
     1    2    1 1    
     2   10    1 ar   
     3   14    1 ar   
     4    3    2 1    
     5   29    2 1    
     6   30    2 1    
     7    4    3 1    
     8    7    3 1    
     9   31    3 1    
    10    5    4 1    
    11    6    5 1    
    12   32    5 1    
    13   33    5 1    
    14   46    6 1    
    15   47    6 1    
    16   48    6 1    
    17    8    7 ar   
    18    9    7 ar   
    19   11   10 ar   
    20   34   10 1    
    21   12   11 ar   
    22   35   11 1    
    23   13   12 ar   
    24   15   12 1    
    25   14   13 ar   
    26   36   13 1    
    27   37   14 1    
    28   16   15 1    
    29   17   16 1    
    30   38   16 1    
    31   39   16 1    
    32   18   17 1    
    33   40   17 1    
    34   41   17 1    
    35   19   18 ar   
    36   23   18 ar   
    37   20   19 ar   
    38   42   19 1    
    39   21   20 ar   
    40   43   20 1    
    41   22   21 ar   
    42   24   21 1    
    43   23   22 ar   
    44   44   22 1    
    45   45   23 1    
    46   25   24 1    
    47   26   25 1    
    48   27   25 2    
    49   28   25 2    
    50   49   26 1    
    51   50   26 1    
    52   51   26 1    
@<TRIPOS>SUBSTRUCTURE
     1 AZ2101      1 GROUP   
@<TRIPOS>SET

