#    Name: 2izu_P01_1_INTS_M
#    Modification time : Tue Mar 25 19:02:20 2014

@<TRIPOS>MOLECULE
2izu_P01_1_INTS_M
   76     0     9     0     0
SMALL
NO_CHARGES


@<TRIPOS>ATOM
      1 CA        -33.0395   18.2730  -29.6250 C.3       3 GLC5        0.0000 
      2 CA        -35.0920   17.7450  -28.8850 C.3       9 GLL5        0.0000 
      3 CA        -30.9870   18.8010  -30.3650 C.3       6 GLP5        0.0000 
      4 CA        -33.4240   16.9340  -29.1740 C.3       3 GLC5        0.0000 
      5 CA        -31.7560   16.1230  -29.4630 C.3       6 GLP5        0.0000 
      6 CA        -35.7310   15.9415  -28.5880 C.3       3 GLC5        0.0000 
      7 CA        -36.3700   14.1380  -28.2910 C.3       6 GLP5        0.0000 
      8 CA        -35.7275   17.3015  -30.4290 C.3       3 GLC5        0.0000 
      9 CA        -36.3630   16.8580  -31.9730 C.3       6 GLP5        0.0000 
     10 CA        -32.5985   19.5295  -29.3620 C.3       3 GLC5        0.0000 
     11 CA        -34.2100   20.2580  -28.3590 C.3       9 GLL5        0.0000 
     12 CA        -35.0835   23.8645  -26.3400 C.3       3 GLC5        0.0000 
     13 CA        -35.3260   21.7810  -26.8640 C.3       9 GLL5        0.0000 
     14 CA        -34.8410   25.9480  -25.8160 C.3       6 GLP5        0.0000 
     15 CA        -37.6970   22.3735  -27.0580 C.3       3 GLC5        0.0000 
     16 CA        -36.3010   20.8120  -26.6160 C.3       9 GLL5        0.0000 
     17 CA        -39.0930   23.9350  -27.5000 C.3       6 GLP5        0.0000 
     18 CA        -36.3355   20.5610  -29.1820 C.3       3 GLC5        0.0000 
     19 CA        -36.2370   19.5660  -27.2390 C.3       9 GLL5        0.0000 
     20 CA        -36.4340   21.5560  -31.1250 C.3       6 GLP5        0.0000 
     21 O         -32.6330   21.9115  -29.3005 O.2       1 ALC1        0.0000 
     22 O         -33.2950   22.4220  -28.0180 O.2       7 ALL1        0.0000 
     23 O         -31.9710   21.4010  -30.5830 O.2       4 ALP1        0.0000 
     24 CA        -30.3140   23.4170  -28.7705 C.3       3 GLC5        0.0000 
     25 CA        -31.8500   24.2660  -27.5280 C.3       9 GLL5        0.0000 
     26 CA        -28.7780   22.5680  -30.0130 C.3       6 GLP5        0.0000 
     27 N         -31.0285   24.1345  -30.0295 N.am      2 SEC2        0.0000 
     28 N         -31.4770   24.7150  -28.7210 N.am      8 SEL2        0.0000 
     29 N         -30.5800   23.5540  -31.3380 N.am      5 SEP2        0.0000 
     30 CA        -29.9345   24.7835  -24.8540 C.3       3 GLC5        0.0000 
     31 CA        -31.2440   25.0690  -26.5710 C.3       9 GLL5        0.0000 
     32 CA        -28.6250   24.4980  -23.1370 C.3       6 GLP5        0.0000 
     33 CA        -26.7735   27.5975  -28.3515 C.3       3 GLC5        0.0000 
     34 CA        -28.4450   27.3000  -27.4180 C.3       9 GLL5        0.0000 
     35 CA        -25.1020   27.8950  -29.2850 C.3       6 GLP5        0.0000 
     36 CA        -28.2460   29.2185  -27.5485 C.3       3 GLC5        0.0000 
     37 CA        -28.0470   31.1370  -27.6790 C.3       6 GLP5        0.0000 
     38 CA        -27.6615   25.5915  -28.2390 C.3       3 GLC5        0.0000 
     39 CA        -26.8780   23.8830  -29.0600 C.3       6 GLP5        0.0000 
     40 CA        -32.5235   28.3510  -26.3380 C.3       3 GLC5        0.0000 
     41 CA        -30.5900   28.2770  -26.4690 C.3       9 GLL5        0.0000 
     42 CA        -34.4570   28.4250  -26.2070 C.3       6 GLP5        0.0000 
     43 CA        -31.7905   28.1900  -28.1665 C.3       3 GLC5        0.0000 
     44 CA        -32.9910   28.1030  -29.8640 C.3       6 GLP5        0.0000 
     45 CA        -30.5260   29.9815  -27.2780 C.3       3 GLC5        0.0000 
     46 CA        -30.4620   31.6860  -28.0870 C.3       6 GLP5        0.0000 
     47 CA        -33.5480   24.8905  -25.3610 C.3       3 GLC5        0.0000 
     48 CA        -32.2550   23.8330  -24.9060 C.3       9 GLL5        0.0000 
     49 CA        -30.8705   22.8945  -25.5630 C.3       3 GLC5        0.0000 
     50 CA        -29.4860   21.9560  -26.2200 C.3       6 GLP5        0.0000 
     51 CA        -30.4400   24.1655  -24.0215 C.3       3 GLC5        0.0000 
     52 CA        -36.8860   24.1275  -22.6200 C.3       3 GLC5        0.0000 
     53 CA        -35.0410   23.8060  -22.5480 C.3       9 GLL5        0.0000 
     54 CA        -38.7310   24.4490  -22.6920 C.3       6 GLP5        0.0000 
     55 CA        -34.9410   24.8770  -24.1820 C.3       3 GLC5        0.0000 
     56 CA        -30.8215   19.6475  -22.6615 C.3       3 GLC5        0.0000 
     57 CA        -31.9930   21.3630  -22.5110 C.3       9 GLL5        0.0000 
     58 CA        -29.6500   17.9320  -22.8120 C.3       6 GLP5        0.0000 
     59 CA        -30.0400   21.2140  -23.3940 C.3       3 GLC5        0.0000 
     60 CA        -28.0870   21.0650  -24.2770 C.3       6 GLP5        0.0000 
     61 O         -30.0780   21.4835  -21.2305 O.2       1 ALC1        0.0000 
     62 O         -31.2790   21.9870  -21.4400 O.2       7 ALL1        0.0000 
     63 O         -28.8770   20.9800  -21.0210 O.2       4 ALP1        0.0000 
     64 CA        -35.2085   19.0832  -30.2335 C.3       3 GLC5        0.0000 
     65 CA        -35.1900   19.2900  -28.1090 C.3       9 GLL5        0.0000 
     66 CA        -35.2760   19.6490  -31.9700 C.3       6 GLP5        0.0000 
     67 CA        -35.8400   23.1822  -27.9425 C.3       3 GLC5        0.0000 
     68 CA        -34.2600   21.5140  -27.7380 C.3       9 GLL5        0.0000 
     69 CA        -36.8870   24.7170  -28.5840 C.3       6 GLP5        0.0000 
     70 CA        -35.6072   21.4447  -29.2906 C.3       3 GLC5        0.0000 
     71 CA        -33.2976   25.1758  -26.3816 C.3       3 GLC5        0.0000 
     72 CA        -32.6790   23.2100  -27.1190 C.3       9 GLL5        0.0000 
     73 CA        -30.6201   23.1797  -26.5836 C.3       3 GLC5        0.0000 
     74 CA        -27.7365   25.9778  -26.2515 C.3       3 GLC5        0.0000 
     75 CA        -29.7110   27.0210  -26.6040 C.3       9 GLL5        0.0000 
     76 CA        -26.3950   24.7950  -25.4920 C.3       6 GLP5        0.0000 
@<TRIPOS>BOND
@<TRIPOS>SUBSTRUCTURE
     1 ALC1       21 GROUP        1 X    ALC  0     ROOT ALC X 1
     2 SEC2       27 GROUP        1 X    SEC  0     **** SEC X 2
     3 GLC5        1 GROUP        1 X    GLC  0     **** GLC X 6
     4 ALP1       23 GROUP        1 Y    ALP  0     ROOT ALP Y 8
     5 SEP2       29 GROUP        1 Y    SEP  0     **** SEP Y 9
     6 GLP5        3 GROUP        1 Y    GLP  0     **** GLP Y 13
     7 ALL1       22 GROUP        1 Z    ALL  0     ROOT ALL Z 15
     8 SEL2       28 GROUP        1 Z    SEL  0     **** SEL Z 16
     9 GLL5        2 GROUP        1 Z    GLL  0     **** GLL Z 20
@<TRIPOS>SET

