#    Name: 2izu_P01_1_ligand
#    Modification time : Tue Mar 25 19:02:20 2014

@<TRIPOS>MOLECULE
2izu_P01_1_ligand
   52    54     1     0     0
SMALL
NO_CHARGES


@<TRIPOS>ATOM
      1 CL1       -35.0920   17.7450  -28.8850 Cl        1 P011335     0.0000 
      2 C5A       -35.1900   19.2900  -28.1090 C.ar      1 P011335     0.0000 
      3 C6A       -34.2100   20.2580  -28.3590 C.ar      1 P011335     0.0000 
      4 C1A       -34.2600   21.5140  -27.7380 C.ar      1 P011335     0.0000 
      5 C2A       -35.3260   21.7810  -26.8640 C.ar      1 P011335     0.0000 
      6 C3A       -36.3010   20.8120  -26.6160 C.ar      1 P011335     0.0000 
      7 C4A       -36.2370   19.5660  -27.2390 C.ar      1 P011335     0.0000 
      8 N6        -33.2950   22.4220  -28.0180 N.pl3     1 P011335     0.0000 
      9 C6        -32.6790   23.2100  -27.1190 C.ar      1 P011335     0.0000 
     10 C5        -31.8500   24.2660  -27.5280 C.ar      1 P011335     0.0000 
     11 N7        -31.4770   24.7150  -28.7210 N.2       1 P011335     0.0000 
     12 C4        -31.2440   25.0690  -26.5710 C.ar      1 P011335     0.0000 
     13 N9        -30.5200   25.9480  -27.2250 N.pl3     1 P011335     0.0000 
     14 C10       -29.7110   27.0210  -26.6040 C.3       1 P011335     0.0000 
     15 C11       -28.4450   27.3000  -27.4180 C.3       1 P011335     0.0000 
     16 C12       -30.5900   28.2770  -26.4690 C.3       1 P011335     0.0000 
     17 C8        -30.6510   25.7410  -28.5390 C.2       1 P011335     0.0000 
     18 N3        -31.4570   24.8520  -25.2720 N.ar      1 P011335     0.0000 
     19 C2        -32.2550   23.8330  -24.9060 C.ar      1 P011335     0.0000 
     20 N1        -32.8430   23.0350  -25.8190 N.ar      1 P011335     0.0000 
     21 N21       -32.4350   23.6000  -23.6060 N.pl3     1 P011335     0.0000 
     22 C22       -33.0370   22.3500  -23.1010 C.3       1 P011335     0.0000 
     23 C25       -34.0890   22.6940  -22.0400 C.3       1 P011335     0.0000 
     24 C26       -35.0410   23.8060  -22.5480 C.3       1 P011335     0.0000 
     25 C27       -34.8340   21.4100  -21.6350 C.3       1 P011335     0.0000 
     26 C23       -31.9930   21.3630  -22.5110 C.3       1 P011335     0.0000 
     27 O24       -31.2790   21.9870  -21.4400 O.3       1 P011335     0.0000 
     28 H         -33.4384   20.0446  -29.0104 H         1 P011335     0.0000 
     29 H         -35.3866   22.6993  -26.4038 H         1 P011335     0.0000 
     30 H         -37.0738   21.0206  -25.9670 H         1 P011335     0.0000 
     31 H         -36.9575   18.8618  -27.0549 H         1 P011335     0.0000 
     32 H         -32.9975   22.5186  -29.0517 H         1 P011335     0.0000 
     33 H         -29.4190   26.7155  -25.6035 H         1 P011335     0.0000 
     34 H         -30.2151   26.2551  -29.2388 H         1 P011335     0.0000 
     35 H         -32.1607   24.2876  -22.8713 H         1 P011335     0.0000 
     36 H         -33.5552   21.8364  -23.9122 H         1 P011335     0.0000 
     37 H         -33.5633   23.0703  -21.1628 H         1 P011335     0.0000 
     38 H         -31.3300   21.0666  -23.3301 H         1 P011335     0.0000 
     39 H         -32.5400   20.4750  -22.1786 H         1 P011335     0.0000 
     40 H         -27.8922   28.0255  -27.0080 H         1 P011335     0.0000 
     41 H         -27.8618   26.4906  -27.4869 H         1 P011335     0.0000 
     42 H         -28.6595   27.5870  -28.3516 H         1 P011335     0.0000 
     43 H         -30.0918   29.0356  -26.0491 H         1 P011335     0.0000 
     44 H         -30.9181   28.5979  -27.3575 H         1 P011335     0.0000 
     45 H         -31.3965   28.1068  -25.9027 H         1 P011335     0.0000 
     46 H         -34.5461   24.6465  -22.7685 H         1 P011335     0.0000 
     47 H         -35.5292   23.5277  -23.3752 H         1 P011335     0.0000 
     48 H         -35.7323   24.0434  -21.8656 H         1 P011335     0.0000 
     49 H         -34.2130   20.7245  -21.2548 H         1 P011335     0.0000 
     50 H         -35.5327   21.5888  -20.9423 H         1 P011335     0.0000 
     51 H         -35.2957   20.9869  -22.4146 H         1 P011335     0.0000 
     52 H         -30.4039   21.5049  -21.3970 H         1 P011335     0.0000 
@<TRIPOS>BOND
     1    2    1 1    
     2    3    2 ar   
     3    7    2 ar   
     4    4    3 ar   
     5   28    3 1    
     6    5    4 ar   
     7    8    4 1    
     8    6    5 ar   
     9   29    5 1    
    10    7    6 ar   
    11   30    6 1    
    12   31    7 1    
    13    9    8 1    
    14   32    8 1    
    15   10    9 ar   
    16   20    9 ar   
    17   11   10 1    
    18   12   10 ar   
    19   17   11 2    
    20   13   12 1    
    21   18   12 ar   
    22   14   13 1    
    23   17   13 1    
    24   15   14 1    
    25   16   14 1    
    26   33   14 1    
    27   40   15 1    
    28   41   15 1    
    29   42   15 1    
    30   43   16 1    
    31   44   16 1    
    32   45   16 1    
    33   34   17 1    
    34   19   18 ar   
    35   20   19 ar   
    36   21   19 1    
    37   22   21 1    
    38   35   21 1    
    39   23   22 1    
    40   26   22 1    
    41   36   22 1    
    42   24   23 1    
    43   25   23 1    
    44   37   23 1    
    45   46   24 1    
    46   47   24 1    
    47   48   24 1    
    48   49   25 1    
    49   50   25 1    
    50   51   25 1    
    51   27   26 1    
    52   38   26 1    
    53   39   26 1    
    54   52   27 1    
@<TRIPOS>SUBSTRUCTURE
     1 P011335     1 GROUP   
@<TRIPOS>SET

