#    Name: 2i4j_DRJ_1_INTS_M
#    Modification time : Tue Mar 25 17:24:48 2014

@<TRIPOS>MOLECULE
2i4j_DRJ_1_INTS_M
   96     0     6     0     0
SMALL
NO_CHARGES


@<TRIPOS>ATOM
      1 CA         22.1350   19.6280   22.1770 C.3       2 GLC5        0.0000 
      2 CA         20.8460   20.1950   21.2420 C.3       6 GLL5        0.0000 
      3 CA         23.4240   19.0610   23.1120 C.3       4 GLP5        0.0000 
      4 CA         20.9480   21.6775   21.8710 C.3       2 GLC5        0.0000 
      5 CA         21.0500   23.1600   22.5000 C.3       4 GLP5        0.0000 
      6 CA         18.9920   20.8735   21.2335 C.3       2 GLC5        0.0000 
      7 CA         17.1380   21.5520   21.2250 C.3       4 GLP5        0.0000 
      8 CA         20.4640   18.8580   22.6210 C.3       2 GLC5        0.0000 
      9 CA         20.0820   17.5210   24.0000 C.3       4 GLP5        0.0000 
     10 CA         22.5265   20.5240   18.9785 C.3       2 GLC5        0.0000 
     11 CA         21.1950   19.3430   20.0180 C.3       6 GLL5        0.0000 
     12 CA         23.8580   21.7050   17.9390 C.3       4 GLP5        0.0000 
     13 CA         22.8715   19.5075   20.4925 C.3       2 GLC5        0.0000 
     14 CA         24.5480   19.6720   20.9670 C.3       4 GLP5        0.0000 
     15 N          17.8035   17.0060   21.4910 N.am      1 SEC2        0.0000 
     16 N          18.0950   17.9350   20.6490 N.am      5 SEL2        0.0000 
     17 N          17.5120   16.0770   22.3330 N.am      3 SEP2        0.0000 
     18 CA         18.2150   21.1690   18.0870 C.3       2 GLC5        0.0000 
     19 CA         18.9850   19.7150   18.8690 C.3       6 GLL5        0.0000 
     20 CA         17.4450   22.6230   17.3050 C.3       4 GLP5        0.0000 
     21 CA         17.1265   19.3465   18.7140 C.3       2 GLC5        0.0000 
     22 CA         15.2680   18.9780   18.5590 C.3       4 GLP5        0.0000 
     23 CA         18.0075   15.7750   19.8720 C.3       2 GLC5        0.0000 
     24 CA         18.3590   16.7520   17.8890 C.3       6 GLL5        0.0000 
     25 CA         17.6560   14.7980   21.8550 C.3       4 GLP5        0.0000 
     26 CA         20.1770   15.7245   13.6415 C.3       2 GLC5        0.0000 
     27 CA         19.0500   16.5210   15.2060 C.3       6 GLL5        0.0000 
     28 CA         21.3040   14.9280   12.0770 C.3       4 GLP5        0.0000 
     29 CA         17.2080   13.7035   13.8220 C.3       2 GLC5        0.0000 
     30 CA         16.8100   15.5160   14.6370 C.3       6 GLL5        0.0000 
     31 CA         17.6060   11.8910   13.0070 C.3       4 GLP5        0.0000 
     32 CA         14.2230   17.8755   13.8030 C.3       2 GLC5        0.0000 
     33 CA         15.8270   16.6310   14.2680 C.3       6 GLL5        0.0000 
     34 CA         12.6190   19.1200   13.3380 C.3       4 GLP5        0.0000 
     35 CA         14.2995   14.1655   15.8570 C.3       2 GLC5        0.0000 
     36 CA         13.5730   14.9680   14.1190 C.3       6 GLL5        0.0000 
     37 CA         15.0260   13.3630   17.5950 C.3       4 GLP5        0.0000 
     38 CA         13.4200   13.5875   16.5350 C.3       2 GLC5        0.0000 
     39 CA         11.8140   13.8120   15.4750 C.3       6 GLL5        0.0000 
     40 CA         11.8615   12.5175   16.9105 C.3       2 GLC5        0.0000 
     41 CA         10.3230   13.4700   15.5750 C.3       6 GLL5        0.0000 
     42 CA         13.4000   11.5650   18.2460 C.3       4 GLP5        0.0000 
     43 CA          9.8840   13.1475   18.8945 C.3       2 GLC5        0.0000 
     44 CA          9.9320   13.2980   17.0470 C.3       6 GLL5        0.0000 
     45 CA          9.8360   12.9970   20.7420 C.3       4 GLP5        0.0000 
     46 CA         11.5635   13.5785   18.1550 C.3       2 GLC5        0.0000 
     47 CA         13.1950   13.8590   19.2630 C.3       4 GLP5        0.0000 
     48 CA          6.9850   12.4925   17.6260 C.3       2 GLC5        0.0000 
     49 CA          8.5590   12.6350   17.1800 C.3       6 GLL5        0.0000 
     50 CA          5.4110   12.3500   18.0720 C.3       4 GLP5        0.0000 
     51 CA          8.4335   12.7440   18.9590 C.3       2 GLC5        0.0000 
     52 CA          8.3080   12.8530   20.7380 C.3       4 GLP5        0.0000 
     53 CA          9.1220   11.1490   18.6475 C.3       2 GLC5        0.0000 
     54 CA          9.6850    9.6630   20.1150 C.3       4 GLP5        0.0000 
     55 CA         19.9445   18.7155    7.1050 C.3       2 GLC5        0.0000 
     56 CA         19.1360   17.7740    8.8310 C.3       6 GLL5        0.0000 
     57 CA         20.7530   19.6570    5.3790 C.3       4 GLP5        0.0000 
     58 CA         18.7010   17.6575    5.9220 C.3       2 GLC5        0.0000 
     59 CA         18.1210   17.3710    7.9770 C.3       6 GLL5        0.0000 
     60 CA         19.2810   17.9440    3.8670 C.3       4 GLP5        0.0000 
     61 CA         16.4170   15.1820    8.6930 C.3       2 GLC5        0.0000 
     62 CA         16.7020   16.8730    9.8640 C.3       6 GLL5        0.0000 
     63 CA         16.1320   13.4910    7.5220 C.3       4 GLP5        0.0000 
     64 CA         21.5708   17.1568   20.1852 C.3       2 GLC5        0.0000 
     65 CA         19.9780   18.6660   19.3810 C.3       6 GLL5        0.0000 
     66 CA         22.5550   15.3090   20.6710 C.3       4 GLP5        0.0000 
     67 CA         18.3098   20.3712   20.1750 C.3       2 GLC5        0.0000 
     68 CA         16.5935   17.7145   18.0012 C.3       2 GLC5        0.0000 
     69 CA         19.1785   18.5100   14.7847 C.3       2 GLC5        0.0000 
     70 CA         18.8670   20.1980   13.9150 C.3       4 GLP5        0.0000 
     71 CA         16.1281   14.5849   16.5379 C.3       2 GLC5        0.0000 
     72 CA         17.4790   16.1500   16.9980 C.3       6 GLL5        0.0000 
     73 CA         13.1810   17.2355   13.4082 C.3       2 GLC5        0.0000 
     74 CA         14.7305   14.0415   12.5177 C.3       2 GLC5        0.0000 
     75 CA         13.9130   15.7340   12.8380 C.3       6 GLL5        0.0000 
     76 CA         15.7180   12.7320   11.5570 C.3       4 GLP5        0.0000 
     77 CA         10.7912   14.9705   16.6770 C.3       2 GLC5        0.0000 
     78 CA         10.5140   16.3000   17.8290 C.3       4 GLP5        0.0000 
     79 CA         10.6582   11.6375   15.2875 C.3       2 GLC5        0.0000 
     80 CA         10.2480    9.6340   15.0500 C.3       4 GLP5        0.0000 
     81 CA          9.8797   14.6333   17.4713 C.3       2 GLC5        0.0000 
     82 CA          8.6543   11.4713   16.9142 C.3       2 GLC5        0.0000 
     83 CA          8.0630    9.9760   16.7150 C.3       4 GLP5        0.0000 
     84 CA         19.1576   18.7856   10.9675 C.3       2 GLC5        0.0000 
     85 CA         17.7260   17.2810   10.7210 C.3       6 GLL5        0.0000 
     86 CA         19.5820   19.9320   12.2860 C.3       4 GLP5        0.0000 
     87 CA         17.1807   17.9542    7.2090 C.3       2 GLC5        0.0000 
     88 CA         15.7330   18.3360    6.0140 C.3       4 GLP5        0.0000 
     89 CA         20.3702   16.6522    7.6365 C.3       2 GLC5        0.0000 
     90 CA         22.1120   15.7320    6.8690 C.3       4 GLP5        0.0000 
     91 CA         19.4916   15.8521   10.2995 C.3       2 GLC5        0.0000 
     92 CA         20.2500   14.0650   10.9500 C.3       4 GLP5        0.0000 
     93 CA         17.9854   15.8796    7.5362 C.3       2 GLC5        0.0000 
     94 CA         18.2050   14.5130    6.6230 C.3       4 GLP5        0.0000 
     95 CA         16.2677   17.6163    7.5968 C.3       2 GLC5        0.0000 
     96 CA         16.9030   16.9200    8.4950 C.3       6 GLL5        0.0000 
@<TRIPOS>BOND
@<TRIPOS>SUBSTRUCTURE
     1 SEC2       15 GROUP        1 X    SEC  0     ROOT SEC X 2
     2 GLC5        1 GROUP        1 X    GLC  0     **** GLC X 6
     3 SEP2       17 GROUP        1 Y    SEP  0     ROOT SEP Y 9
     4 GLP5        3 GROUP        1 Y    GLP  0     **** GLP Y 13
     5 SEL2       16 GROUP        1 Z    SEL  0     ROOT SEL Z 16
     6 GLL5        2 GROUP        1 Z    GLL  0     **** GLL Z 20
@<TRIPOS>SET

