#    Name: 2i4j_DRJ_1_ligand
#    Modification time : Tue Mar 25 17:24:48 2014

@<TRIPOS>MOLECULE
2i4j_DRJ_1_ligand
   68    70     1     0     0
SMALL
NO_CHARGES


@<TRIPOS>ATOM
      1 CAB        20.8460   20.1950   21.2420 C.3       1 DRJ999      0.0000 
      2 CAO        21.1950   19.3430   20.0180 C.3       1 DRJ999      0.0000 
      3 CBG        19.9780   18.6660   19.3810 C.3       1 DRJ999      0.0000 
      4 CAZ        19.3140   17.7690   20.4310 C.2       1 DRJ999      0.0000 
      5 OAE        20.0500   16.9290   20.9940 O.co2     1 DRJ999      0.0000 
      6 OAD        18.0950   17.9350   20.6490 O.co2     1 DRJ999      0.0000 
      7 CAC        18.9850   19.7150   18.8690 C.3       1 DRJ999      0.0000 
      8 OAX        20.4570   17.8710   18.2870 O.3       1 DRJ999      0.0000 
      9 CBB        19.5840   17.2500   17.4440 C.ar      1 DRJ999      0.0000 
     10 CAK        18.3590   16.7520   17.8890 C.ar      1 DRJ999      0.0000 
     11 CAI        17.4790   16.1500   16.9980 C.ar      1 DRJ999      0.0000 
     12 CAJ        19.9300   17.1230   16.1030 C.ar      1 DRJ999      0.0000 
     13 CAH        19.0500   16.5210   15.2060 C.ar      1 DRJ999      0.0000 
     14 CBA        17.8220   16.0450   15.6510 C.ar      1 DRJ999      0.0000 
     15 CAT        16.8100   15.5160   14.6370 C.3       1 DRJ999      0.0000 
     16 CAV        15.8270   16.6310   14.2680 C.3       1 DRJ999      0.0000 
     17 NBF        15.2460   16.3560   12.9500 N.pl3     1 DRJ999      0.0000 
     18 CAU        13.9130   15.7340   12.8380 C.3       1 DRJ999      0.0000 
     19 CAS        13.5730   14.9680   14.1190 C.3       1 DRJ999      0.0000 
     20 CAR        12.1800   14.3320   14.0800 C.3       1 DRJ999      0.0000 
     21 CAQ        11.8140   13.8120   15.4750 C.3       1 DRJ999      0.0000 
     22 CAP        10.3230   13.4700   15.5750 C.3       1 DRJ999      0.0000 
     23 CAN         9.9320   13.2980   17.0470 C.3       1 DRJ999      0.0000 
     24 CAA         8.5590   12.6350   17.1800 C.3       1 DRJ999      0.0000 
     25 CBC        15.9860   16.6510   11.8880 C.2       1 DRJ999      0.0000 
     26 OAY        17.2570   17.1370   11.9940 O.3       1 DRJ999      0.0000 
     27 CBE        17.7260   17.2810   10.7210 C.ar      1 DRJ999      0.0000 
     28 CAM        18.9350   17.7280   10.2130 C.ar      1 DRJ999      0.0000 
     29 CAG        19.1360   17.7740    8.8310 C.ar      1 DRJ999      0.0000 
     30 CAF        18.1210   17.3710    7.9770 C.ar      1 DRJ999      0.0000 
     31 CAL        16.9030   16.9200    8.4950 C.ar      1 DRJ999      0.0000 
     32 CBD        16.7020   16.8730    9.8640 C.ar      1 DRJ999      0.0000 
     33 NAW        15.6620   16.4970   10.6100 N.2       1 DRJ999      0.0000 
     34 H          21.9185   18.5708   20.3151 H         1 DRJ999      0.0000 
     35 H          21.6831   19.9800   19.2670 H         1 DRJ999      0.0000 
     36 H          18.1076   16.8324   18.8852 H         1 DRJ999      0.0000 
     37 H          16.5792   15.7834   17.3284 H         1 DRJ999      0.0000 
     38 H          20.8386   17.4744   15.7710 H         1 DRJ999      0.0000 
     39 H          19.3100   16.4295   14.2159 H         1 DRJ999      0.0000 
     40 H          16.2646   14.6872   15.0703 H         1 DRJ999      0.0000 
     41 H          17.3299   15.1881   13.7458 H         1 DRJ999      0.0000 
     42 H          16.3679   17.5774   14.2654 H         1 DRJ999      0.0000 
     43 H          15.0526   16.6722   15.0341 H         1 DRJ999      0.0000 
     44 H          13.8843   15.0338   11.9998 H         1 DRJ999      0.0000 
     45 H          13.1456   16.4949   12.6775 H         1 DRJ999      0.0000 
     46 H          13.6281   15.6551   14.9721 H         1 DRJ999      0.0000 
     47 H          14.3207   14.1808   14.2743 H         1 DRJ999      0.0000 
     48 H          12.1815   13.5070   13.3793 H         1 DRJ999      0.0000 
     49 H          11.4548   15.0745   13.7730 H         1 DRJ999      0.0000 
     50 H          12.0567   14.5746   16.2161 H         1 DRJ999      0.0000 
     51 H          12.4012   12.9182   15.6890 H         1 DRJ999      0.0000 
     52 H          10.1305   12.5472   15.0427 H         1 DRJ999      0.0000 
     53 H           9.7412   14.2731   15.1410 H         1 DRJ999      0.0000 
     54 H           9.9066   14.2757   17.5267 H         1 DRJ999      0.0000 
     55 H          10.6785   12.6808   17.5454 H         1 DRJ999      0.0000 
     56 H          19.6862   18.0265   10.8473 H         1 DRJ999      0.0000 
     57 H          20.0309   18.1047    8.4555 H         1 DRJ999      0.0000 
     58 H          18.2592   17.4019    6.9575 H         1 DRJ999      0.0000 
     59 H          16.1566   16.6231    7.8507 H         1 DRJ999      0.0000 
     60 H          21.6567   20.6270   21.6372 H         1 DRJ999      0.0000 
     61 H          20.2051   20.9279   21.0138 H         1 DRJ999      0.0000 
     62 H          20.4224   19.6498   21.9654 H         1 DRJ999      0.0000 
     63 H          19.3959   20.3091   18.1775 H         1 DRJ999      0.0000 
     64 H          18.1805   19.2923   18.4517 H         1 DRJ999      0.0000 
     65 H          18.6566   20.3062   19.6056 H         1 DRJ999      0.0000 
     66 H           8.5420   11.7283   16.7585 H         1 DRJ999      0.0000 
     67 H           8.2941   12.5183   18.1372 H         1 DRJ999      0.0000 
     68 H           7.8414   13.1757   16.7411 H         1 DRJ999      0.0000 
@<TRIPOS>BOND
     1    2    1 1    
     2   60    1 1    
     3   61    1 1    
     4   62    1 1    
     5    3    2 1    
     6   34    2 1    
     7   35    2 1    
     8    4    3 1    
     9    7    3 1    
    10    8    3 1    
    11    5    4 ar   
    12    6    4 ar   
    13   63    7 1    
    14   64    7 1    
    15   65    7 1    
    16    9    8 1    
    17   10    9 ar   
    18   12    9 ar   
    19   11   10 ar   
    20   36   10 1    
    21   14   11 ar   
    22   37   11 1    
    23   13   12 ar   
    24   38   12 1    
    25   14   13 ar   
    26   39   13 1    
    27   15   14 1    
    28   16   15 1    
    29   40   15 1    
    30   41   15 1    
    31   17   16 1    
    32   42   16 1    
    33   43   16 1    
    34   18   17 1    
    35   25   17 1    
    36   19   18 1    
    37   44   18 1    
    38   45   18 1    
    39   20   19 1    
    40   46   19 1    
    41   47   19 1    
    42   21   20 1    
    43   48   20 1    
    44   49   20 1    
    45   22   21 1    
    46   50   21 1    
    47   51   21 1    
    48   23   22 1    
    49   52   22 1    
    50   53   22 1    
    51   24   23 1    
    52   54   23 1    
    53   55   23 1    
    54   66   24 1    
    55   67   24 1    
    56   68   24 1    
    57   26   25 1    
    58   33   25 2    
    59   27   26 1    
    60   28   27 ar   
    61   32   27 ar   
    62   29   28 ar   
    63   56   28 1    
    64   30   29 ar   
    65   57   29 1    
    66   31   30 ar   
    67   58   30 1    
    68   32   31 ar   
    69   59   31 1    
    70   33   32 1    
@<TRIPOS>SUBSTRUCTURE
     1 DRJ999      1 GROUP   
@<TRIPOS>SET

