#    Name: 1pwu_GM6_1_INTS_M
#    Modification time : Mon Mar 24 22:22:28 2014

@<TRIPOS>MOLECULE
1pwu_GM6_1_INTS_M
   50     0    12     0     0
SMALL
NO_CHARGES


@<TRIPOS>ATOM
      1 Zn         83.4035   39.3000  140.4225 Zn        3 ZIC7        0.0000 
      2 Zn         83.0400   40.3340  139.6050 Zn       11 ZIL7        0.0000 
      3 Zn         83.7670   38.2660  141.2400 Zn        7 ZIP7        0.0000 
      4 O          82.0310   39.8180  137.0990 O.2       1 ALC1        0.0000 
      5 O          82.8470   39.7140  138.4090 O.2       9 ALL1        0.0000 
      6 O          81.2150   39.9220  135.7890 O.2       5 ALP1        0.0000 
      7 Zn         83.9865   38.1220  140.0790 Zn        3 ZIC7        0.0000 
      8 Zn         84.2060   37.9780  138.9180 Zn       11 ZIL7        0.0000 
      9 N          85.1145   37.0145  138.9465 N.am      2 SEC2        0.0000 
     10 N          84.2060   37.9780  138.9180 N.am     10 SEL2        0.0000 
     11 N          86.0230   36.0510  138.9750 N.am      6 SEP2        0.0000 
     12 N          81.2370   36.7660  133.5400 N.am      2 SEC2        0.0000 
     13 N          81.9300   36.2720  134.6480 N.am     10 SEL2        0.0000 
     14 N          80.5440   37.2600  132.4320 N.am      6 SEP2        0.0000 
     15 CA         83.6170   36.4260  133.1160 C.3       4 GLC5        0.0000 
     16 CA         84.0040   34.7120  133.4740 C.3      12 GLL5        0.0000 
     17 CA         83.2300   38.1400  132.7580 C.3       8 GLP5        0.0000 
     18 N          81.9715   31.6135  133.9455 N.am      2 SEC2        0.0000 
     19 N          82.7720   32.6730  133.8090 N.am     10 SEL2        0.0000 
     20 N          81.1710   30.5540  134.0820 N.am      6 SEP2        0.0000 
     21 CA         80.8030   32.8215  132.0400 C.3       4 GLC5        0.0000 
     22 CA         82.2120   33.6980  130.8910 C.3      12 GLL5        0.0000 
     23 CA         79.3940   31.9450  133.1890 C.3       8 GLP5        0.0000 
     24 CA         84.7405   32.0320  133.7420 C.3       4 GLC5        0.0000 
     25 CA         85.3460   34.0060  133.2670 C.3      12 GLL5        0.0000 
     26 CA         84.1350   30.0580  134.2170 C.3       8 GLP5        0.0000 
     27 CA         87.4695   39.7245  132.4070 C.3       4 GLC5        0.0000 
     28 CA         88.4640   37.9950  131.4760 C.3      12 GLL5        0.0000 
     29 CA         86.4750   41.4540  133.3380 C.3       8 GLP5        0.0000 
     30 CA         81.2350   36.6160  139.4935 C.3       4 GLC5        0.0000 
     31 CA         81.9410   35.9560  137.6390 C.3      12 GLL5        0.0000 
     32 CA         80.5290   37.2760  141.3480 C.3       8 GLP5        0.0000 
     33 CA         80.4025   35.2545  140.5190 C.3       4 GLC5        0.0000 
     34 CA         81.1490   34.1110  139.1410 C.3      12 GLL5        0.0000 
     35 CA         79.6560   36.3980  141.8970 C.3       8 GLP5        0.0000 
     36 CA         83.1730   37.6775  134.7565 C.3       4 GLC5        0.0000 
     37 CA         83.0880   36.4500  136.7520 C.3      12 GLL5        0.0000 
     38 CA         83.5632   35.2830  138.5677 C.3       4 GLC5        0.0000 
     39 CA         84.6120   34.3630  139.9400 C.3       8 GLP5        0.0000 
     40 CA         90.5493   37.5265  131.8580 C.3       4 GLC5        0.0000 
     41 CA         88.7810   37.6230  132.7800 C.3      12 GLL5        0.0000 
     42 CA         92.4760   37.2440  131.5880 C.3       8 GLP5        0.0000 
     43 CA         85.0635   37.1280  132.4148 C.3       4 GLC5        0.0000 
     44 CA         87.0520   35.9260  132.7260 C.3      12 GLL5        0.0000 
     45 CA         82.4548   32.3400  136.8760 C.3       4 GLC5        0.0000 
     46 CA         81.7850   33.5750  136.7830 C.3      12 GLL5        0.0000 
     47 CA         82.9740   30.6570  136.3670 C.3       8 GLP5        0.0000 
     48 CA         79.9896   33.4015  138.0660 C.3       4 GLC5        0.0000 
     49 CA         78.4370   32.7360  137.8690 C.3       8 GLP5        0.0000 
     50 CA         83.0771   34.2150  139.1015 C.3       4 GLC5        0.0000 
@<TRIPOS>BOND
@<TRIPOS>SUBSTRUCTURE
     1 ALC1        4 GROUP        1 X    ALC  0     ROOT ALC X 1
     2 SEC2        9 GROUP        1 X    SEC  0     **** SEC X 2
     3 ZIC7        1 GROUP        1 X    ZIC  0     **** ZIC X 5
     4 GLC5       15 GROUP        1 X    GLC  0     **** GLC X 6
     5 ALP1        6 GROUP        1 Y    ALP  0     ROOT ALP Y 8
     6 SEP2       11 GROUP        1 Y    SEP  0     **** SEP Y 9
     7 ZIP7        3 GROUP        1 Y    ZIP  0     **** ZIP Y 12
     8 GLP5       17 GROUP        1 Y    GLP  0     **** GLP Y 13
     9 ALL1        5 GROUP        1 Z    ALL  0     ROOT ALL Z 15
    10 SEL2       10 GROUP        1 Z    SEL  0     **** SEL Z 16
    11 ZIL7        2 GROUP        1 Z    ZIL  0     **** ZIL Z 19
    12 GLL5       16 GROUP        1 Z    GLL  0     **** GLL Z 20
@<TRIPOS>SET

