#    Name: 1pwu_GM6_1_ligand
#    Modification time : Mon Mar 24 22:22:28 2014

@<TRIPOS>MOLECULE
1pwu_GM6_1_ligand
   55    56     1     0     0
SMALL
NO_CHARGES


@<TRIPOS>ATOM
      1 OAG        83.0400   40.3340  139.6050 O.3       1 GM61001     0.0000 
      2 NAF        82.8470   39.7140  138.4090 N.am      1 GM61001     0.0000 
      3 CAD        83.4510   38.5590  138.1410 C.2       1 GM61001     0.0000 
      4 OAE        84.2060   37.9780  138.9180 O.2       1 GM61001     0.0000 
      5 CAC        83.1440   37.9800  136.7580 C.3       1 GM61001     0.0000 
      6 CAB        83.0880   36.4500  136.7520 C.3       1 GM61001     0.0000 
      7 CAK        82.9290   35.9770  135.3050 C.2       1 GM61001     0.0000 
      8 OAL        81.9300   36.2720  134.6480 O.2       1 GM61001     0.0000 
      9 NAM        83.9380   35.2420  134.8450 N.am      1 GM61001     0.0000 
     10 CAN        84.0040   34.7120  133.4740 C.3       1 GM61001     0.0000 
     11 CAY        82.8580   33.7340  133.1990 C.2       1 GM61001     0.0000 
     12 OAZ        82.7720   32.6730  133.8090 O.2       1 GM61001     0.0000 
     13 NBB        81.9870   34.1380  132.2750 N.am      1 GM61001     0.0000 
     14 CBA        82.2120   33.6980  130.8910 C.3       1 GM61001     0.0000 
     15 CAO        85.3460   34.0060  133.2670 C.3       1 GM61001     0.0000 
     16 CAP        86.5130   34.9570  133.5530 C.2       1 GM61001     0.0000 
     17 CAT        87.2120   35.0510  134.6840 C.2       1 GM61001     0.0000 
     18 NAU        88.1280   36.0140  134.5890 N.pl3     1 GM61001     0.0000 
     19 CAR        88.0720   36.5930  133.3890 C.ar      1 GM61001     0.0000 
     20 CAV        88.7810   37.6230  132.7800 C.ar      1 GM61001     0.0000 
     21 CAX        88.4640   37.9950  131.4760 C.ar      1 GM61001     0.0000 
     22 CAW        87.4440   37.3330  130.7970 C.ar      1 GM61001     0.0000 
     23 CAS        86.7420   36.3060  131.4170 C.ar      1 GM61001     0.0000 
     24 CAQ        87.0520   35.9260  132.7260 C.ar      1 GM61001     0.0000 
     25 CAA        81.9410   35.9560  137.6390 C.3       1 GM61001     0.0000 
     26 CAH        82.0860   34.4710  137.9870 C.3       1 GM61001     0.0000 
     27 CAJ        81.7850   33.5750  136.7830 C.3       1 GM61001     0.0000 
     28 CAI        81.1490   34.1110  139.1410 C.3       1 GM61001     0.0000 
     29 H          82.2157   40.1603  137.7031 H         1 GM61001     0.0000 
     30 H          83.9151   38.3121  136.0519 H         1 GM61001     0.0000 
     31 H          82.1809   38.3742  136.4109 H         1 GM61001     0.0000 
     32 H          84.0212   36.0755  137.1376 H         1 GM61001     0.0000 
     33 H          84.7628   34.9942  135.4512 H         1 GM61001     0.0000 
     34 H          83.9408   35.5204  132.7584 H         1 GM61001     0.0000 
     35 H          81.1842   34.7233  132.4529 H         1 GM61001     0.0000 
     36 H          85.4131   33.6566  132.2387 H         1 GM61001     0.0000 
     37 H          85.4090   33.1509  133.9370 H         1 GM61001     0.0000 
     38 H          87.0708   34.4866  135.4797 H         1 GM61001     0.0000 
     39 H          88.7578   36.2635  135.3038 H         1 GM61001     0.0000 
     40 H          89.5302   38.1044  133.2857 H         1 GM61001     0.0000 
     41 H          88.9798   38.7538  131.0172 H         1 GM61001     0.0000 
     42 H          87.2100   37.6063  129.8322 H         1 GM61001     0.0000 
     43 H          85.9876   35.8195  130.9114 H         1 GM61001     0.0000 
     44 H          80.9934   36.1104  137.1177 H         1 GM61001     0.0000 
     45 H          81.9255   36.5399  138.5623 H         1 GM61001     0.0000 
     46 H          83.1030   34.2879  138.3083 H         1 GM61001     0.0000 
     47 H          83.0947   34.0111  130.5406 H         1 GM61001     0.0000 
     48 H          82.2021   32.7012  130.8119 H         1 GM61001     0.0000 
     49 H          81.5097   34.0482  130.2712 H         1 GM61001     0.0000 
     50 H          82.4019   33.7610  136.0182 H         1 GM61001     0.0000 
     51 H          81.8814   32.6055  137.0082 H         1 GM61001     0.0000 
     52 H          80.8526   33.7064  136.4462 H         1 GM61001     0.0000 
     53 H          81.2207   33.1452  139.3902 H         1 GM61001     0.0000 
     54 H          81.3521   34.6418  139.9638 H         1 GM61001     0.0000 
     55 H          80.1916   34.2837  138.9097 H         1 GM61001     0.0000 
@<TRIPOS>BOND
     1    2    1 1    
     2    3    2 am   
     3   29    2 1    
     4    4    3 2    
     5    5    3 1    
     6    6    5 1    
     7   30    5 1    
     8   31    5 1    
     9    7    6 1    
    10   25    6 1    
    11   32    6 1    
    12    8    7 2    
    13    9    7 am   
    14   10    9 1    
    15   33    9 1    
    16   11   10 1    
    17   15   10 1    
    18   34   10 1    
    19   12   11 2    
    20   13   11 am   
    21   14   13 1    
    22   35   13 1    
    23   47   14 1    
    24   48   14 1    
    25   49   14 1    
    26   16   15 1    
    27   36   15 1    
    28   37   15 1    
    29   17   16 2    
    30   24   16 1    
    31   18   17 1    
    32   38   17 1    
    33   19   18 1    
    34   39   18 1    
    35   20   19 ar   
    36   24   19 ar   
    37   21   20 ar   
    38   40   20 1    
    39   22   21 ar   
    40   41   21 1    
    41   23   22 ar   
    42   42   22 1    
    43   24   23 ar   
    44   43   23 1    
    45   26   25 1    
    46   44   25 1    
    47   45   25 1    
    48   27   26 1    
    49   28   26 1    
    50   46   26 1    
    51   50   27 1    
    52   51   27 1    
    53   52   27 1    
    54   53   28 1    
    55   54   28 1    
    56   55   28 1    
@<TRIPOS>SUBSTRUCTURE
     1 GM61001     1 GROUP   
@<TRIPOS>SET

