#    Name: 2znp_K55_1_INTS_M
#    Modification time : Tue Mar 25 10:53:02 2014

@<TRIPOS>MOLECULE
2znp_K55_1_INTS_M
  114     0     6     0     0
SMALL
NO_CHARGES


@<TRIPOS>ATOM
      1 N          19.8655   -2.6395   32.9425 N.am      1 SEC2        0.0000 
      2 N          20.2310   -1.9230   34.1690 N.am      5 SEL2        0.0000 
      3 N          19.5000   -3.3560   31.7160 N.am      3 SEP2        0.0000 
      4 N          21.2185   -2.3915   33.4555 N.am      1 SEC2        0.0000 
      5 N          22.2060   -2.8600   32.7420 N.am      3 SEP2        0.0000 
      6 N          20.9975   -1.0050   33.8095 N.am      1 SEC2        0.0000 
      7 N          21.7640   -0.0870   33.4500 N.am      3 SEP2        0.0000 
      8 N          17.1945   -3.7670   34.4395 N.am      1 SEC2        0.0000 
      9 N          18.2640   -2.9750   34.1070 N.am      5 SEL2        0.0000 
     10 N          16.1250   -4.5590   34.7720 N.am      3 SEP2        0.0000 
     11 N          18.8820   -3.1655   32.9115 N.am      1 SEC2        0.0000 
     12 CA         17.0250   -1.7320   35.1075 C.3       2 GLC5        0.0000 
     13 CA         18.6370   -1.1950   35.7360 C.3       6 GLL5        0.0000 
     14 CA         15.4130   -2.2690   34.4790 C.3       4 GLP5        0.0000 
     15 CA         19.0305   -3.1960   38.4580 C.3       2 GLC5        0.0000 
     16 CA         19.2800   -1.7720   37.0420 C.3       6 GLL5        0.0000 
     17 CA         18.7810   -4.6200   39.8740 C.3       4 GLP5        0.0000 
     18 CA         19.2910   -3.7435   36.7655 C.3       2 GLC5        0.0000 
     19 CA         19.3020   -5.7150   36.4890 C.3       4 GLP5        0.0000 
     20 CA         21.5945   -1.0685   39.1345 C.3       2 GLC5        0.0000 
     21 CA         20.3250   -0.8950   37.7380 C.3       6 GLL5        0.0000 
     22 CA         22.8640   -1.2420   40.5310 C.3       4 GLP5        0.0000 
     23 CA         18.6305   -0.4300   38.5740 C.3       2 GLC5        0.0000 
     24 CA         16.9360    0.0350   39.4100 C.3       4 GLP5        0.0000 
     25 CA         21.3310    0.6480   38.0515 C.3       2 GLC5        0.0000 
     26 CA         22.3370    2.1910   38.3650 C.3       4 GLP5        0.0000 
     27 CA         16.1560   -0.5240   35.2375 C.3       2 GLC5        0.0000 
     28 CA         16.8990    1.2210   35.9960 C.3       6 GLL5        0.0000 
     29 CA         18.5100    4.7840   33.8135 C.3       2 GLC5        0.0000 
     30 CA         17.9120    3.7550   35.4190 C.3       6 GLL5        0.0000 
     31 CA         19.1080    5.8130   32.2080 C.3       4 GLP5        0.0000 
     32 CA         20.0185    3.6120   33.7880 C.3       2 GLC5        0.0000 
     33 CA         18.7280    2.6390   35.2530 C.3       6 GLL5        0.0000 
     34 CA         21.3090    4.5850   32.3230 C.3       4 GLP5        0.0000 
     35 CA         15.4435    4.8970   34.1600 C.3       2 GLC5        0.0000 
     36 CA         16.1950    5.9290   35.7840 C.3       6 GLL5        0.0000 
     37 CA         14.6920    3.8650   32.5360 C.3       4 GLP5        0.0000 
     38 CA         17.3005    6.5220   34.1590 C.3       2 GLC5        0.0000 
     39 CA         18.4060    7.1150   32.5340 C.3       4 GLP5        0.0000 
     40 CA         15.6335    8.5835   36.7160 C.3       2 GLC5        0.0000 
     41 CA         15.0090    6.8010   36.0730 C.3       6 GLL5        0.0000 
     42 CA         16.2580   10.3660   37.3590 C.3       4 GLP5        0.0000 
     43 CA         14.6615    5.7280   33.7065 C.3       2 GLC5        0.0000 
     44 CA         14.6310    7.5910   34.8770 C.3       6 GLL5        0.0000 
     45 CA         16.5185    7.3530   33.7055 C.3       2 GLC5        0.0000 
     46 CA         14.7630    9.0910   36.1100 C.3       2 GLC5        0.0000 
     47 CA         14.8950   10.5910   37.3430 C.3       4 GLP5        0.0000 
     48 CA         13.0540    6.1585   32.9595 C.3       2 GLC5        0.0000 
     49 CA         13.2460    7.1740   34.4700 C.3       6 GLL5        0.0000 
     50 CA         12.8620    5.1430   31.4490 C.3       4 GLP5        0.0000 
     51 CA         13.4355    0.6575   36.5165 C.3       2 GLC5        0.0000 
     52 CA         14.6480    2.1740   36.6250 C.3       6 GLL5        0.0000 
     53 CA         12.2230   -0.8590   36.4080 C.3       4 GLP5        0.0000 
     54 CA         13.4990    2.8735   34.9905 C.3       2 GLC5        0.0000 
     55 CA         12.3500    3.5730   33.3560 C.3       4 GLP5        0.0000 
     56 CA         14.5090    6.1125   42.1655 C.3       2 GLC5        0.0000 
     57 CA         13.3560    4.2450   41.6990 C.3       6 GLL5        0.0000 
     58 CA         15.6620    7.9800   42.6320 C.3       4 GLP5        0.0000 
     59 CA         12.9580    1.5105   43.0770 C.3       2 GLC5        0.0000 
     60 CA         12.4930    3.4850   42.5550 C.3       6 GLL5        0.0000 
     61 CA         13.4230   -0.4640   43.5990 C.3       4 GLP5        0.0000 
     62 CA         11.8855    0.8815   42.9370 C.3       2 GLC5        0.0000 
     63 CA         11.8360    2.3610   42.0280 C.3       6 GLL5        0.0000 
     64 CA         11.9350   -0.5980   43.8460 C.3       4 GLP5        0.0000 
     65 CA         12.7270    0.7700   42.1470 C.3       2 GLC5        0.0000 
     66 CA         12.0310    2.0040   40.6950 C.3       6 GLL5        0.0000 
     67 CA         14.7510    6.7295   39.9530 C.3       2 GLC5        0.0000 
     68 CA         14.3520    4.5930   39.5570 C.3       6 GLL5        0.0000 
     69 CA         15.1500    8.8660   40.3490 C.3       4 GLP5        0.0000 
     70 CA          9.6150    5.4090   45.3305 C.3       2 GLC5        0.0000 
     71 CA         10.9880    4.1220   44.2530 C.3       6 GLL5        0.0000 
     72 CA          8.2420    6.6960   46.4080 C.3       4 GLP5        0.0000 
     73 CA         11.2490    4.0530   46.3635 C.3       2 GLC5        0.0000 
     74 CA         11.5100    3.9840   48.4740 C.3       4 GLP5        0.0000 
     75 CA         12.2295    4.4960   46.4185 C.3       2 GLC5        0.0000 
     76 CA         12.9490    5.0080   44.3630 C.3       6 GLL5        0.0000 
     77 CA         13.5105    6.5095   45.6905 C.3       2 GLC5        0.0000 
     78 CA         14.0720    8.0110   47.0180 C.3       4 GLP5        0.0000 
     79 CA         14.3055    6.4940   43.4975 C.3       2 GLC5        0.0000 
     80 CA         12.0515    3.4555   46.6665 C.3       2 GLC5        0.0000 
     81 CA         12.5930    2.9270   44.8590 C.3       6 GLL5        0.0000 
     82 CA         17.9473   -0.7243   37.8995 C.3       2 GLC5        0.0000 
     83 CA         21.3987   -2.1963   37.0760 C.3       2 GLC5        0.0000 
     84 CA         22.9950   -3.0590   36.7620 C.3       4 GLP5        0.0000 
     85 CA         17.2535    0.6615   37.5895 C.3       2 GLC5        0.0000 
     86 CA         18.2430    1.3550   35.5420 C.3       6 GLL5        0.0000 
     87 CA         15.9065    3.6181   34.1260 C.3       2 GLC5        0.0000 
     88 CA         16.0660    2.3660   36.1560 C.3       6 GLL5        0.0000 
     89 CA         17.0395    7.1480   37.2163 C.3       2 GLC5        0.0000 
     90 CA         18.4770    7.9310   38.5040 C.3       4 GLP5        0.0000 
     91 CA         12.8643    9.0568   34.5282 C.3       2 GLC5        0.0000 
     92 CA         11.7900   10.7310   34.3830 C.3       4 GLP5        0.0000 
     93 CA         12.8070    6.6485   36.1247 C.3       2 GLC5        0.0000 
     94 CA         11.5810    6.1120   37.2770 C.3       4 GLP5        0.0000 
     95 CA         16.1990    2.1944   37.9770 C.3       2 GLC5        0.0000 
     96 CA         16.9090    1.8080   39.6350 C.3       4 GLP5        0.0000 
     97 CA         11.3133    4.1583   40.4587 C.3       2 GLC5        0.0000 
     98 CA         13.5360    3.8640   40.3490 C.3       6 GLL5        0.0000 
     99 CA          9.4200    5.0060   40.8100 C.3       4 GLP5        0.0000 
    100 CA         14.7943    3.8845   42.9755 C.3       2 GLC5        0.0000 
    101 CA         16.6640    3.9040   43.8240 C.3       4 GLP5        0.0000 
    102 CA         11.1723    4.4355   41.4685 C.3       2 GLC5        0.0000 
    103 CA         11.7473    5.4735   42.7880 C.3       2 GLC5        0.0000 
    104 CA         10.5700    7.0820   43.4490 C.3       4 GLP5        0.0000 
    105 CA         10.6768    3.5943   41.0857 C.3       2 GLC5        0.0000 
    106 CA         10.5245    4.5020   42.4663 C.3       2 GLC5        0.0000 
    107 CA         12.2700    3.8740   43.9920 C.3       6 GLL5        0.0000 
    108 CA         15.3441    2.8799   39.7336 C.3       2 GLC5        0.0000 
    109 CA         12.8770    2.7570   39.8660 C.3       6 GLL5        0.0000 
    110 CA         12.6801    5.0319   38.5546 C.3       2 GLC5        0.0000 
    111 CA         11.4295    5.7925   43.8459 C.3       2 GLC5        0.0000 
    112 CA         14.6326    3.7940   44.1711 C.3       2 GLC5        0.0000 
    113 CA         11.8385    1.7123   44.8544 C.3       2 GLC5        0.0000 
    114 CA         11.5660   -0.0380   45.2180 C.3       4 GLP5        0.0000 
@<TRIPOS>BOND
@<TRIPOS>SUBSTRUCTURE
     1 SEC2        1 GROUP        1 X    SEC  0     ROOT SEC X 2
     2 GLC5       12 GROUP        1 X    GLC  0     **** GLC X 6
     3 SEP2        3 GROUP        1 Y    SEP  0     ROOT SEP Y 9
     4 GLP5       14 GROUP        1 Y    GLP  0     **** GLP Y 13
     5 SEL2        2 GROUP        1 Z    SEL  0     ROOT SEL Z 16
     6 GLL5       13 GROUP        1 Z    GLL  0     **** GLL Z 20
@<TRIPOS>SET

