#    Name: 2znp_K55_1_ligand
#    Modification time : Tue Mar 25 10:53:02 2014

@<TRIPOS>MOLECULE
2znp_K55_1_ligand
   59    60     1     0     0
SMALL
NO_CHARGES


@<TRIPOS>ATOM
      1 O25        20.2310   -1.9230   34.1690 O.co2     1 K55922      0.0000 
      2 O26        18.2640   -2.9750   34.1070 O.co2     1 K55922      0.0000 
      3 C1         18.9770   -2.1190   34.6030 C.2       1 K55922      0.0000 
      4 C2         18.6370   -1.1950   35.7360 C.3       1 K55922      0.0000 
      5 C3         19.2800   -1.7720   37.0420 C.3       1 K55922      0.0000 
      6 C4         20.3250   -0.8950   37.7380 C.3       1 K55922      0.0000 
      7 C5         19.1680    0.1870   35.3730 C.3       1 K55922      0.0000 
      8 C6         18.2430    1.3550   35.5420 C.ar      1 K55922      0.0000 
      9 C7         16.8990    1.2210   35.9960 C.ar      1 K55922      0.0000 
     10 C8         16.0660    2.3660   36.1560 C.ar      1 K55922      0.0000 
     11 C9         16.5940    3.6090   35.8700 C.ar      1 K55922      0.0000 
     12 C10        17.9120    3.7550   35.4190 C.ar      1 K55922      0.0000 
     13 C11        18.7280    2.6390   35.2530 C.ar      1 K55922      0.0000 
     14 O33        15.7480    4.6100   36.0550 O.3       1 K55922      0.0000 
     15 C21        16.1950    5.9290   35.7840 C.3       1 K55922      0.0000 
     16 C22        15.0090    6.8010   36.0730 C.3       1 K55922      0.0000 
     17 C23        14.6310    7.5910   34.8770 C.3       1 K55922      0.0000 
     18 C24        13.2460    7.1740   34.4700 C.3       1 K55922      0.0000 
     19 C12        14.6480    2.1740   36.6250 C.3       1 K55922      0.0000 
     20 N27        14.3330    2.5410   37.9810 N.am      1 K55922      0.0000 
     21 C13        13.0480    2.3600   38.5080 C.2       1 K55922      0.0000 
     22 O28        12.1010    1.8910   37.9170 O.2       1 K55922      0.0000 
     23 C14        12.8770    2.7570   39.8660 C.ar      1 K55922      0.0000 
     24 C15        13.5360    3.8640   40.3490 C.ar      1 K55922      0.0000 
     25 C16        13.3560    4.2450   41.6990 C.ar      1 K55922      0.0000 
     26 C17        12.4930    3.4850   42.5550 C.ar      1 K55922      0.0000 
     27 C18        11.8360    2.3610   42.0280 C.ar      1 K55922      0.0000 
     28 C19        12.0310    2.0040   40.6950 C.ar      1 K55922      0.0000 
     29 C20        12.2700    3.8740   43.9920 C.3       1 K55922      0.0000 
     30 F29        14.3520    4.5930   39.5570 F         1 K55922      0.0000 
     31 F30        10.9880    4.1220   44.2530 F         1 K55922      0.0000 
     32 F31        12.9490    5.0080   44.3630 F         1 K55922      0.0000 
     33 F32        12.5930    2.9270   44.8590 F         1 K55922      0.0000 
     34 H          17.5806   -1.1598   35.8585 H         1 K55922      0.0000 
     35 H          19.7372   -2.7518   36.7904 H         1 K55922      0.0000 
     36 H          18.4585   -1.9936   37.7549 H         1 K55922      0.0000 
     37 H          19.5248    0.1541   34.3091 H         1 K55922      0.0000 
     38 H          20.1004    0.3694   35.9711 H         1 K55922      0.0000 
     39 H          16.5280    0.2926   36.2094 H         1 K55922      0.0000 
     40 H          18.2763    4.6946   35.2100 H         1 K55922      0.0000 
     41 H          19.6938    2.7523   34.9164 H         1 K55922      0.0000 
     42 H          16.4765    6.0579   34.7491 H         1 K55922      0.0000 
     43 H          17.0081    6.2233   36.4314 H         1 K55922      0.0000 
     44 H          15.2507    7.4746   36.9044 H         1 K55922      0.0000 
     45 H          14.1668    6.1719   36.3865 H         1 K55922      0.0000 
     46 H          15.3205    7.3943   34.0639 H         1 K55922      0.0000 
     47 H          14.6352    8.6498   35.1098 H         1 K55922      0.0000 
     48 H          14.3740    1.0908   36.4431 H         1 K55922      0.0000 
     49 H          13.9743    2.7315   35.9062 H         1 K55922      0.0000 
     50 H          15.0803    2.9441   38.5627 H         1 K55922      0.0000 
     51 H          13.8377    5.0615   42.0728 H         1 K55922      0.0000 
     52 H          11.2153    1.8075   42.6266 H         1 K55922      0.0000 
     53 H          11.5500    1.1776   40.3091 H         1 K55922      0.0000 
     54 H          20.6865   -1.3312   38.5620 H         1 K55922      0.0000 
     55 H          21.1047   -0.7025   37.1421 H         1 K55922      0.0000 
     56 H          19.9440   -0.0133   38.0162 H         1 K55922      0.0000 
     57 H          12.9289    7.6750   33.6648 H         1 K55922      0.0000 
     58 H          13.2021    6.2005   34.2456 H         1 K55922      0.0000 
     59 H          12.5800    7.3373   35.1979 H         1 K55922      0.0000 
@<TRIPOS>BOND
     1    3    1 ar   
     2    3    2 ar   
     3    4    3 1    
     4    5    4 1    
     5    7    4 1    
     6   34    4 1    
     7    6    5 1    
     8   35    5 1    
     9   36    5 1    
    10   54    6 1    
    11   55    6 1    
    12   56    6 1    
    13    8    7 1    
    14   37    7 1    
    15   38    7 1    
    16    9    8 ar   
    17   13    8 ar   
    18   10    9 ar   
    19   39    9 1    
    20   11   10 ar   
    21   19   10 1    
    22   12   11 ar   
    23   14   11 1    
    24   13   12 ar   
    25   40   12 1    
    26   41   13 1    
    27   15   14 1    
    28   16   15 1    
    29   42   15 1    
    30   43   15 1    
    31   17   16 1    
    32   44   16 1    
    33   45   16 1    
    34   18   17 1    
    35   46   17 1    
    36   47   17 1    
    37   57   18 1    
    38   58   18 1    
    39   59   18 1    
    40   20   19 1    
    41   48   19 1    
    42   49   19 1    
    43   21   20 am   
    44   50   20 1    
    45   22   21 2    
    46   23   21 1    
    47   24   23 ar   
    48   28   23 ar   
    49   25   24 ar   
    50   30   24 1    
    51   26   25 ar   
    52   51   25 1    
    53   27   26 ar   
    54   29   26 1    
    55   28   27 ar   
    56   52   27 1    
    57   53   28 1    
    58   31   29 1    
    59   32   29 1    
    60   33   29 1    
@<TRIPOS>SUBSTRUCTURE
     1 K55922      1 GROUP   
@<TRIPOS>SET

