#    Name: 1mzn_BM6_4_INTS_M
#    Modification time : Tue Mar 25 12:17:04 2014

@<TRIPOS>MOLECULE
1mzn_BM6_4_INTS_M
  101     0     9     0     0
SMALL
NO_CHARGES


@<TRIPOS>ATOM
      1 N           6.2565  -25.1620   51.8870 N.am      1 SEC2        0.0000 
      2 N           6.9000  -26.2920   52.9210 N.am      7 SEL2        0.0000 
      3 N           5.6130  -24.0320   50.8530 N.am      4 SEP2        0.0000 
      4 N           6.1700  -26.7630   51.7915 N.am      1 SEC2        0.0000 
      5 N           5.4400  -27.2340   50.6620 N.am      4 SEP2        0.0000 
      6 NZ          7.7590  -24.0075   50.7150 N.4       2 LYC4        0.0000 
      7 NZ          8.3230  -24.8440   51.9940 N.4       8 LYL4        0.0000 
      8 NZ          5.9230  -23.3740   49.7440 N.4       5 LYP4        0.0000 
      9 N           6.9680  -24.4380   51.4235 N.am      1 SEC2        0.0000 
     10 N           8.3230  -24.8440   51.9940 N.am      7 SEL2        0.0000 
     11 N           7.7590  -24.0075   50.7150 N.am      1 SEC2        0.0000 
     12 N           7.1950  -23.1710   49.4360 N.am      4 SEP2        0.0000 
     13 CA          6.2060  -26.7270   55.4390 C.3       3 GLC5        0.0000 
     14 CA          8.0730  -25.9060   55.4210 C.3       9 GLL5        0.0000 
     15 CA          4.3390  -27.5480   55.4570 C.3       6 GLP5        0.0000 
     16 CA         10.3790  -25.7385   52.1600 C.3       3 GLC5        0.0000 
     17 CA         10.0840  -25.2790   54.1710 C.3       9 GLL5        0.0000 
     18 CA         10.6740  -26.1980   50.1490 C.3       6 GLP5        0.0000 
     19 CA         11.6490  -26.5600   56.9725 C.3       3 GLC5        0.0000 
     20 CA         10.9040  -24.8980   57.8920 C.3       9 GLL5        0.0000 
     21 CA         12.3940  -28.2220   56.0530 C.3       6 GLP5        0.0000 
     22 CA          9.4155  -23.5260   57.5255 C.3       3 GLC5        0.0000 
     23 CA          7.9270  -22.1540   57.1590 C.3       6 GLP5        0.0000 
     24 CA         11.5910  -27.4210   57.9230 C.3       3 GLC5        0.0000 
     25 CA         10.7880  -26.6200   59.7930 C.3       9 GLL5        0.0000 
     26 CA          4.6030  -24.8640   62.5255 C.3       3 GLC5        0.0000 
     27 CA          6.7190  -25.1190   62.6860 C.3       9 GLL5        0.0000 
     28 CA          2.4870  -24.6090   62.3650 C.3       6 GLP5        0.0000 
     29 CA          6.4610  -26.6325   65.2715 C.3       3 GLC5        0.0000 
     30 CA          7.6230  -25.8530   63.6640 C.3       9 GLL5        0.0000 
     31 CA          5.2990  -27.4120   66.8790 C.3       6 GLP5        0.0000 
     32 CA         12.7655  -26.3270   57.2045 C.3       3 GLC5        0.0000 
     33 CA         13.1370  -24.4320   58.3560 C.3       9 GLL5        0.0000 
     34 CA         15.0090  -24.8640   58.1465 C.3       3 GLC5        0.0000 
     35 CA         16.8810  -25.2960   57.9370 C.3       6 GLP5        0.0000 
     36 CA         13.7335  -24.3620   56.2430 C.3       3 GLC5        0.0000 
     37 CA         14.3300  -24.2920   54.1300 C.3       6 GLP5        0.0000 
     38 CA         14.0690  -25.4765   59.9870 C.3       3 GLC5        0.0000 
     39 CA         15.0010  -26.5210   61.6180 C.3       6 GLP5        0.0000 
     40 CA         12.5725  -22.7275   56.4365 C.3       3 GLC5        0.0000 
     41 CA         12.3020  -23.1760   58.5280 C.3       9 GLL5        0.0000 
     42 CA         12.8430  -22.2790   54.3450 C.3       6 GLP5        0.0000 
     43 CA         11.5205  -21.6550   58.6280 C.3       3 GLC5        0.0000 
     44 CA         10.7390  -20.1340   58.7280 C.3       6 GLP5        0.0000 
     45 CA          6.9620  -26.2650   59.7065 C.3       3 GLC5        0.0000 
     46 CA          6.3220  -24.3530   60.4680 C.3       9 GLL5        0.0000 
     47 CA          7.6020  -28.1770   58.9450 C.3       6 GLP5        0.0000 
     48 CA          4.8870  -24.5755   59.0165 C.3       3 GLC5        0.0000 
     49 CA          3.4520  -24.7980   57.5650 C.3       6 GLP5        0.0000 
     50 CA          4.4045  -24.4810   61.4165 C.3       3 GLC5        0.0000 
     51 CA          7.8875  -22.1700   63.8675 C.3       3 GLC5        0.0000 
     52 CA          7.7970  -22.9630   61.9190 C.3       9 GLL5        0.0000 
     53 CA          7.9780  -21.3770   65.8160 C.3       6 GLP5        0.0000 
     54 CA          6.9000  -21.2150   61.8555 C.3       3 GLC5        0.0000 
     55 CA          6.0030  -19.4670   61.7920 C.3       6 GLP5        0.0000 
     56 CA          9.9065  -23.3100   61.9935 C.3       3 GLC5        0.0000 
     57 CA         12.0160  -23.6570   62.0680 C.3       6 GLP5        0.0000 
     58 CA         10.9430  -25.1120   63.0710 C.3       3 GLC5        0.0000 
     59 CA          9.8700  -26.5670   64.0740 C.3       9 GLL5        0.0000 
     60 CA         10.8025  -26.4200   65.5750 C.3       3 GLC5        0.0000 
     61 CA         11.7350  -26.2730   67.0760 C.3       6 GLP5        0.0000 
     62 CA          8.3645  -30.1100   63.3195 C.3       3 GLC5        0.0000 
     63 CA          8.2530  -28.1810   63.0030 C.3       9 GLL5        0.0000 
     64 CA          8.4760  -32.0390   63.6360 C.3       6 GLP5        0.0000 
     65 CA          7.9275  -28.1790   60.9740 C.3       3 GLC5        0.0000 
     66 CA          8.1810  -27.7282   54.0847 C.3       3 GLC5        0.0000 
     67 CA          7.9700  -29.6940   53.3590 C.3       6 GLP5        0.0000 
     68 CA         10.7438  -26.9070   54.3757 C.3       3 GLC5        0.0000 
     69 CA          8.7110  -25.6190   54.2000 C.3       9 GLL5        0.0000 
     70 CA         12.0900  -28.3650   54.5660 C.3       6 GLP5        0.0000 
     71 CA          7.3650  -24.0038   54.2512 C.3       3 GLC5        0.0000 
     72 CA          6.3380  -22.2450   53.6920 C.3       6 GLP5        0.0000 
     73 CA          8.4398  -26.8588   57.6345 C.3       3 GLC5        0.0000 
     74 CA         10.1230  -25.2610   56.6270 C.3       9 GLL5        0.0000 
     75 CA         11.2565  -26.7581   56.0285 C.3       3 GLC5        0.0000 
     76 CA          8.7910  -25.7340   56.6210 C.3       9 GLL5        0.0000 
     77 CA         11.6378  -23.7320   54.5613 C.3       3 GLC5        0.0000 
     78 CA         10.7810  -25.0910   55.3840 C.3       9 GLL5        0.0000 
     79 CA          9.0787  -27.0992   59.2212 C.3       3 GLC5        0.0000 
     80 CA         10.3230  -25.4230   59.2020 C.3       9 GLL5        0.0000 
     81 CA         11.2760  -25.2325   61.2467 C.3       3 GLC5        0.0000 
     82 CA         12.0720  -27.6675   61.3092 C.3       3 GLC5        0.0000 
     83 CA         10.2840  -26.9960   61.0580 C.3       9 GLL5        0.0000 
     84 CA         13.6080  -28.5270   62.1930 C.3       6 GLP5        0.0000 
     85 CA          8.6792  -27.4065   60.1562 C.3       3 GLC5        0.0000 
     86 CA         10.4855  -24.6830   61.7092 C.3       3 GLC5        0.0000 
     87 CA          9.2290  -26.2760   61.6770 C.3       9 GLL5        0.0000 
     88 CA          8.3018  -26.5448   59.6930 C.3       3 GLC5        0.0000 
     89 CA          8.6810  -25.1420   61.0240 C.3       9 GLL5        0.0000 
     90 CA         10.9919  -24.2894   60.6352 C.3       3 GLC5        0.0000 
     91 CA          9.3220  -24.6830   59.8580 C.3       9 GLL5        0.0000 
     92 CA          7.0000  -24.4985   64.8170 C.3       3 GLC5        0.0000 
     93 CA          6.8290  -23.5110   66.4590 C.3       6 GLP5        0.0000 
     94 CA         14.2257  -22.3110   58.2880 C.3       3 GLC5        0.0000 
     95 CA         15.7320  -20.8180   58.1340 C.3       6 GLP5        0.0000 
     96 CA         12.3677  -23.7305   60.2550 C.3       3 GLC5        0.0000 
     97 CA          7.0976  -22.7074   59.7062 C.3       3 GLC5        0.0000 
     98 CA          6.8580  -21.7450   57.9530 C.3       6 GLP5        0.0000 
     99 CA          9.7060  -28.7013   64.2982 C.3       3 GLC5        0.0000 
    100 CA          8.7280  -26.7210   63.0620 C.3       9 GLL5        0.0000 
    101 CA         10.6360  -29.9900   65.3110 C.3       6 GLP5        0.0000 
@<TRIPOS>BOND
@<TRIPOS>SUBSTRUCTURE
     1 SEC2        1 GROUP        1 X    SEC  0     ROOT SEC X 2
     2 LYC4        6 GROUP        1 X    LYC  0     **** LYC X 4
     3 GLC5       13 GROUP        1 X    GLC  0     **** GLC X 6
     4 SEP2        3 GROUP        1 Y    SEP  0     ROOT SEP Y 9
     5 LYP4        8 GROUP        1 Y    LYP  0     **** LYP Y 11
     6 GLP5       15 GROUP        1 Y    GLP  0     **** GLP Y 13
     7 SEL2        2 GROUP        1 Z    SEL  0     ROOT SEL Z 16
     8 LYL4        7 GROUP        1 Z    LYL  0     **** LYL Z 18
     9 GLL5       14 GROUP        1 Z    GLL  0     **** GLL Z 20
@<TRIPOS>SET

