#    Name: 1mzn_BM6_4_ligand
#    Modification time : Tue Mar 25 12:17:04 2014

@<TRIPOS>MOLECULE
1mzn_BM6_4_ligand
   55    58     1     0     0
SMALL
NO_CHARGES


@<TRIPOS>ATOM
      1 O1          6.9000  -26.2920   52.9210 O.co2     1 BM63200     0.0000 
      2 O2          8.3230  -24.8440   51.9940 O.co2     1 BM63200     0.0000 
      3 O3         12.2280  -25.3470   57.7770 O.3       1 BM63200     0.0000 
      4 O4         11.0520  -23.4890   57.9370 O.3       1 BM63200     0.0000 
      5 C1          7.8980  -25.6380   52.9830 C.2       1 BM63200     0.0000 
      6 C2          8.7110  -25.6190   54.2000 C.ar      1 BM63200     0.0000 
      7 C3          8.0730  -25.9060   55.4210 C.ar      1 BM63200     0.0000 
      8 C4          8.7910  -25.7340   56.6210 C.ar      1 BM63200     0.0000 
      9 C5         10.1230  -25.2610   56.6270 C.ar      1 BM63200     0.0000 
     10 C6         10.7810  -25.0910   55.3840 C.ar      1 BM63200     0.0000 
     11 C7         10.0840  -25.2790   54.1710 C.ar      1 BM63200     0.0000 
     12 C8         10.9040  -24.8980   57.8920 C.3       1 BM63200     0.0000 
     13 C9         10.3230  -25.4230   59.2020 C.ar      1 BM63200     0.0000 
     14 C10        10.7880  -26.6200   59.7930 C.ar      1 BM63200     0.0000 
     15 C11        10.2840  -26.9960   61.0580 C.ar      1 BM63200     0.0000 
     16 C12         9.2290  -26.2760   61.6770 C.ar      1 BM63200     0.0000 
     17 C13         8.6810  -25.1420   61.0240 C.ar      1 BM63200     0.0000 
     18 C14         9.3220  -24.6830   59.8580 C.ar      1 BM63200     0.0000 
     19 C15         7.4330  -24.4000   61.5320 C.3       1 BM63200     0.0000 
     20 C16         6.7190  -25.1190   62.6860 C.3       1 BM63200     0.0000 
     21 C17         7.6230  -25.8530   63.6640 C.3       1 BM63200     0.0000 
     22 C18         8.7280  -26.7210   63.0620 C.3       1 BM63200     0.0000 
     23 C19        13.1370  -24.4320   58.3560 C.3       1 BM63200     0.0000 
     24 C20        12.3020  -23.1760   58.5280 C.3       1 BM63200     0.0000 
     25 C21         6.3220  -24.3530   60.4680 C.3       1 BM63200     0.0000 
     26 C22         7.7970  -22.9630   61.9190 C.3       1 BM63200     0.0000 
     27 C23         9.8700  -26.5670   64.0740 C.3       1 BM63200     0.0000 
     28 C24         8.2530  -28.1810   63.0030 C.3       1 BM63200     0.0000 
     29 H           7.1122  -26.2313   55.4378 H         1 BM63200     0.0000 
     30 H           8.3342  -25.9587   57.5201 H         1 BM63200     0.0000 
     31 H          11.7714  -24.8293   55.3677 H         1 BM63200     0.0000 
     32 H          10.5648  -25.1710   53.2805 H         1 BM63200     0.0000 
     33 H          11.4704  -27.1975   59.3176 H         1 BM63200     0.0000 
     34 H          10.6885  -27.8090   61.5435 H         1 BM63200     0.0000 
     35 H           9.0444  -23.7594   59.4655 H         1 BM63200     0.0000 
     36 H           5.9931  -25.8393   62.2546 H         1 BM63200     0.0000 
     37 H           6.1142  -24.3734   63.2428 H         1 BM63200     0.0000 
     38 H           6.9915  -26.4937   64.3240 H         1 BM63200     0.0000 
     39 H           8.0936  -25.1063   64.3465 H         1 BM63200     0.0000 
     40 H          13.9612  -24.2029   57.7079 H         1 BM63200     0.0000 
     41 H          13.4779  -24.7455   59.3241 H         1 BM63200     0.0000 
     42 H          12.2171  -22.9684   59.5831 H         1 BM63200     0.0000 
     43 H          12.8034  -22.3650   58.0235 H         1 BM63200     0.0000 
     44 H           6.6236  -23.8864   59.6365 H         1 BM63200     0.0000 
     45 H           6.0264  -25.2696   60.1990 H         1 BM63200     0.0000 
     46 H           5.5117  -23.8689   60.7983 H         1 BM63200     0.0000 
     47 H           8.4867  -22.9366   62.6426 H         1 BM63200     0.0000 
     48 H           8.1665  -22.4517   61.1431 H         1 BM63200     0.0000 
     49 H           7.0025  -22.4557   62.2527 H         1 BM63200     0.0000 
     50 H          10.6612  -27.1274   63.8292 H         1 BM63200     0.0000 
     51 H          10.1882  -25.6209   64.1338 H         1 BM63200     0.0000 
     52 H           9.5903  -26.8409   64.9942 H         1 BM63200     0.0000 
     53 H           8.9890  -28.8002   62.7294 H         1 BM63200     0.0000 
     54 H           7.9173  -28.4985   63.8899 H         1 BM63200     0.0000 
     55 H           7.5082  -28.3030   62.3469 H         1 BM63200     0.0000 
@<TRIPOS>BOND
     1    5    1 ar   
     2    5    2 ar   
     3   12    3 1    
     4   23    3 1    
     5   12    4 1    
     6   24    4 1    
     7    6    5 1    
     8    7    6 ar   
     9   11    6 ar   
    10    8    7 ar   
    11   29    7 1    
    12    9    8 ar   
    13   30    8 1    
    14   10    9 ar   
    15   12    9 1    
    16   11   10 ar   
    17   31   10 1    
    18   32   11 1    
    19   13   12 1    
    20   14   13 ar   
    21   18   13 ar   
    22   15   14 ar   
    23   33   14 1    
    24   16   15 ar   
    25   34   15 1    
    26   17   16 ar   
    27   22   16 1    
    28   18   17 ar   
    29   19   17 1    
    30   35   18 1    
    31   20   19 1    
    32   25   19 1    
    33   26   19 1    
    34   21   20 1    
    35   36   20 1    
    36   37   20 1    
    37   22   21 1    
    38   38   21 1    
    39   39   21 1    
    40   27   22 1    
    41   28   22 1    
    42   24   23 1    
    43   40   23 1    
    44   41   23 1    
    45   42   24 1    
    46   43   24 1    
    47   44   25 1    
    48   45   25 1    
    49   46   25 1    
    50   47   26 1    
    51   48   26 1    
    52   49   26 1    
    53   50   27 1    
    54   51   27 1    
    55   52   27 1    
    56   53   28 1    
    57   54   28 1    
    58   55   28 1    
@<TRIPOS>SUBSTRUCTURE
     1 BM63200     1 GROUP   
@<TRIPOS>SET

