#    Name: 2ax6_HFT_1_INTS_M
#    Modification time : Mon Mar 24 19:41:29 2014

@<TRIPOS>MOLECULE
2ax6_HFT_1_INTS_M
   66     0     9     0     0
SMALL
NO_CHARGES


@<TRIPOS>ATOM
      1 CA         24.4955    1.7125    6.1245 C.3       3 GLC5        0.0000 
      2 CA         23.7050    2.4100    4.2940 C.3       9 GLL5        0.0000 
      3 CA         25.2860    1.0150    7.9550 C.3       6 GLP5        0.0000 
      4 CA         24.3895    2.5250    6.8070 C.3       3 GLC5        0.0000 
      5 CA         23.4930    4.0350    5.6590 C.3       9 GLL5        0.0000 
      6 CA         21.6535    4.4670    5.2400 C.3       3 GLC5        0.0000 
      7 CA         23.0170    4.2710    3.5520 C.3       9 GLL5        0.0000 
      8 CA         20.2900    4.6630    6.9280 C.3       6 GLP5        0.0000 
      9 CA         21.6450    4.4615    2.4785 C.3       3 GLC5        0.0000 
     10 CA         20.2730    4.6520    1.4050 C.3       6 GLP5        0.0000 
     11 CA         25.8030    2.0950    6.0555 C.3       3 GLC5        0.0000 
     12 CA         26.3200    3.1750    4.1560 C.3       9 GLL5        0.0000 
     13 N          25.9275    8.8405    3.8620 N.am      2 SEC2        0.0000 
     14 N          25.3250    7.8050    3.6280 N.am      8 SEL2        0.0000 
     15 N          26.5300    9.8760    4.0960 N.am      5 SEP2        0.0000 
     16 CA         29.5065    5.4765    4.6800 C.3       3 GLC5        0.0000 
     17 CA         27.9990    4.7820    3.5890 C.3       9 GLL5        0.0000 
     18 CA         31.0140    6.1710    5.7710 C.3       6 GLP5        0.0000 
     19 O          29.8920    3.4485    3.2445 O.2       1 ALC1        0.0000 
     20 O          28.6290    2.5590    3.8920 O.2       7 ALL1        0.0000 
     21 O          31.1550    4.3380    2.5970 O.2       4 ALP1        0.0000 
     22 CA         31.1080    1.7135    5.3260 C.3       3 GLC5        0.0000 
     23 CA         29.8200    0.4790    4.1130 C.3       9 GLL5        0.0000 
     24 CA         32.3960    2.9480    6.5390 C.3       6 GLP5        0.0000 
     25 CA         28.4800    0.0270    6.8835 C.3       3 GLC5        0.0000 
     26 CA         30.1840    0.0020    5.5200 C.3       9 GLL5        0.0000 
     27 CA         26.7760    0.0520    8.2470 C.3       6 GLP5        0.0000 
     28 CA         29.9370   -1.6765    6.3240 C.3       3 GLC5        0.0000 
     29 CA         29.6900   -3.3550    7.1280 C.3       6 GLP5        0.0000 
     30 CA         31.8510    0.7860    6.0280 C.3       3 GLC5        0.0000 
     31 CA         33.5180    1.5700    6.5360 C.3       6 GLP5        0.0000 
     32 CA         30.1620   -1.3300    1.3675 C.3       3 GLC5        0.0000 
     33 CA         29.6390   -0.7210    3.1810 C.3       9 GLL5        0.0000 
     34 CA         30.6850   -1.9390   -0.4460 C.3       6 GLP5        0.0000 
     35 CA         27.7285   -1.2555    2.2420 C.3       3 GLC5        0.0000 
     36 CA         25.8180   -1.7900    1.3030 C.3       6 GLP5        0.0000 
     37 CA         29.0880   -2.5560    2.3160 C.3       3 GLC5        0.0000 
     38 CA         28.5370   -4.3910    1.4510 C.3       6 GLP5        0.0000 
     39 N          32.0025    0.8055    3.4220 N.am      2 SEC2        0.0000 
     40 N          30.8470    1.3380    3.6120 N.am      8 SEL2        0.0000 
     41 N          33.1580    0.2730    3.2320 N.am      5 SEP2        0.0000 
     42 CA         24.0135    4.9998    6.5198 C.3       3 GLC5        0.0000 
     43 CA         23.8630    3.7240    4.4200 C.3       9 GLL5        0.0000 
     44 CA         24.3490    6.1200    8.0000 C.3       6 GLP5        0.0000 
     45 CA         22.2822    2.8955    6.1160 C.3       3 GLC5        0.0000 
     46 CA         20.9260    2.2400    7.2240 C.3       6 GLP5        0.0000 
     47 CA         22.9757    1.6345    5.3620 C.3       3 GLC5        0.0000 
     48 CA         22.3130   -0.2820    5.7160 C.3       6 GLP5        0.0000 
     49 CA         23.7417    3.6935    2.2237 C.3       3 GLC5        0.0000 
     50 CA         24.0830    3.7180    0.4930 C.3       6 GLP5        0.0000 
     51 CA         21.8327    2.6820    3.5678 C.3       3 GLC5        0.0000 
     52 CA         20.2650    1.6950    3.1810 C.3       6 GLP5        0.0000 
     53 CA         26.4477    4.0758    5.9220 C.3       3 GLC5        0.0000 
     54 CA         25.3210    4.1520    4.1660 C.3       9 GLL5        0.0000 
     55 CA         27.0750    4.4880    7.6830 C.3       6 GLP5        0.0000 
     56 CA         26.7365    5.9417    5.6267 C.3       3 GLC5        0.0000 
     57 CA         25.6930    5.4710    3.8920 C.3       9 GLL5        0.0000 
     58 CA         27.1160    6.2630    7.5080 C.3       6 GLP5        0.0000 
     59 CA         27.7980    6.7135    2.3365 C.3       3 GLC5        0.0000 
     60 CA         27.0210    5.7700    3.5990 C.3       9 GLL5        0.0000 
     61 CA         28.0860    8.1510    1.0790 C.3       6 GLP5        0.0000 
     62 CA         27.8008    3.7778    1.7350 C.3       3 GLC5        0.0000 
     63 CA         27.7760    3.4310   -0.2620 C.3       6 GLP5        0.0000 
     64 CA         27.4503    4.3063    5.7075 C.3       3 GLC5        0.0000 
     65 CA         29.8738    1.1445    1.9150 C.3       3 GLC5        0.0000 
     66 CA         30.0180    2.4100    0.1830 C.3       6 GLP5        0.0000 
@<TRIPOS>BOND
@<TRIPOS>SUBSTRUCTURE
     1 ALC1       19 GROUP        1 X    ALC  0     ROOT ALC X 1
     2 SEC2       13 GROUP        1 X    SEC  0     **** SEC X 2
     3 GLC5        1 GROUP        1 X    GLC  0     **** GLC X 6
     4 ALP1       21 GROUP        1 Y    ALP  0     ROOT ALP Y 8
     5 SEP2       15 GROUP        1 Y    SEP  0     **** SEP Y 9
     6 GLP5        3 GROUP        1 Y    GLP  0     **** GLP Y 13
     7 ALL1       20 GROUP        1 Z    ALL  0     ROOT ALL Z 15
     8 SEL2       14 GROUP        1 Z    SEL  0     **** SEL Z 16
     9 GLL5        2 GROUP        1 Z    GLL  0     **** GLL Z 20
@<TRIPOS>SET

