#    Name: 2ax6_HFT_1_ligand
#    Modification time : Mon Mar 24 19:41:29 2014

@<TRIPOS>MOLECULE
2ax6_HFT_1_ligand
   31    31     1     0     0
SMALL
NO_CHARGES


@<TRIPOS>ATOM
      1 F1         23.7050    2.4100    4.2940 F         1 HFT1        0.0000 
      2 C7         23.8630    3.7240    4.4200 C.3       1 HFT1        0.0000 
      3 F2         23.4930    4.0350    5.6590 F         1 HFT1        0.0000 
      4 F3         23.0170    4.2710    3.5520 F         1 HFT1        0.0000 
      5 C3         25.3210    4.1520    4.1660 C.ar      1 HFT1        0.0000 
      6 C2         26.3200    3.1750    4.1560 C.ar      1 HFT1        0.0000 
      7 C4         25.6930    5.4710    3.8920 C.ar      1 HFT1        0.0000 
      8 N1         24.8750    6.5160    4.0200 N.pl3     1 HFT1        0.0000 
      9 O2         25.3250    7.8050    3.6280 O.2       1 HFT1        0.0000 
     10 O1         23.5390    6.4050    4.4870 O.2       1 HFT1        0.0000 
     11 C5         27.0210    5.7700    3.5990 C.ar      1 HFT1        0.0000 
     12 C6         27.9990    4.7820    3.5890 C.ar      1 HFT1        0.0000 
     13 C1         27.6520    3.4670    3.8750 C.ar      1 HFT1        0.0000 
     14 N9         28.6290    2.5590    3.8920 N.am      1 HFT1        0.0000 
     15 C10        28.5070    1.2640    4.1760 C.2       1 HFT1        0.0000 
     16 O10        27.4530    0.7050    4.4780 O.2       1 HFT1        0.0000 
     17 C11        29.8200    0.4790    4.1130 C.3       1 HFT1        0.0000 
     18 C12        30.1840    0.0020    5.5200 C.3       1 HFT1        0.0000 
     19 C13        29.6390   -0.7210    3.1810 C.3       1 HFT1        0.0000 
     20 O11        30.8470    1.3380    3.6120 O.3       1 HFT1        0.0000 
     21 H          26.0546    2.1865    4.3681 H         1 HFT1        0.0000 
     22 H          27.2849    6.7499    3.3840 H         1 HFT1        0.0000 
     23 H          28.9726    5.0228    3.3714 H         1 HFT1        0.0000 
     24 H          29.6331    2.9159    3.6474 H         1 HFT1        0.0000 
     25 H          31.0361   -0.5214    5.5259 H         1 HFT1        0.0000 
     26 H          30.3059    0.7675    6.1517 H         1 HFT1        0.0000 
     27 H          29.4752   -0.5876    5.9073 H         1 HFT1        0.0000 
     28 H          30.4761   -1.2630    3.1066 H         1 HFT1        0.0000 
     29 H          28.9192   -1.3360    3.5029 H         1 HFT1        0.0000 
     30 H          29.3899   -0.4377    2.2549 H         1 HFT1        0.0000 
     31 H          30.7532    1.3004    2.6171 H         1 HFT1        0.0000 
@<TRIPOS>BOND
     1    2    1 1    
     2    3    2 1    
     3    4    2 1    
     4    5    2 1    
     5    6    5 ar   
     6    7    5 ar   
     7   13    6 ar   
     8   21    6 1    
     9    8    7 1    
    10   11    7 ar   
    11    9    8 2    
    12   10    8 2    
    13   12   11 ar   
    14   22   11 1    
    15   13   12 ar   
    16   23   12 1    
    17   14   13 1    
    18   15   14 am   
    19   24   14 1    
    20   16   15 2    
    21   17   15 1    
    22   18   17 1    
    23   19   17 1    
    24   20   17 1    
    25   25   18 1    
    26   26   18 1    
    27   27   18 1    
    28   28   19 1    
    29   29   19 1    
    30   30   19 1    
    31   31   20 1    
@<TRIPOS>SUBSTRUCTURE
     1 HFT1        1 GROUP   
@<TRIPOS>SET

