#    Name: 2chx_090_1_INTS_M
#    Modification time : Mon Mar 24 23:50:43 2014

@<TRIPOS>MOLECULE
2chx_090_1_INTS_M
   63     0     6     0     0
SMALL
NO_CHARGES


@<TRIPOS>ATOM
      1 CA         42.4420   13.3815   31.1495 C.3       2 GLC5        0.0000 
      2 CA         42.0440   11.8030   32.3370 C.3       6 GLL5        0.0000 
      3 CA         42.8400   14.9600   29.9620 C.3       4 GLP5        0.0000 
      4 CA         41.7765    9.4715   30.0545 C.3       2 GLC5        0.0000 
      5 CA         41.4530   10.8220   31.5430 C.3       6 GLL5        0.0000 
      6 CA         42.1000    8.1210   28.5660 C.3       4 GLP5        0.0000 
      7 CA         41.6960   12.0955   29.8225 C.3       2 GLC5        0.0000 
      8 CA         41.9390   13.3690   28.1020 C.3       4 GLP5        0.0000 
      9 CA         39.7700   11.7375   30.7900 C.3       2 GLC5        0.0000 
     10 CA         38.0870   12.6530   30.0370 C.3       4 GLP5        0.0000 
     11 OD1        38.6675    9.7855   30.7995 O.co2     1 ASC3        0.0000 
     12 OD1        40.2450   10.3360   31.8800 O.co2     5 ASL3        0.0000 
     13 OD1        37.0900    9.2350   29.7190 O.co2     3 ASP3        0.0000 
     14 OD1        38.6900   11.4550   32.2340 O.co2     1 ASC3        0.0000 
     15 OD1        37.1350   12.5740   32.5880 O.co2     3 ASP3        0.0000 
     16 CA         38.8420   11.7055   31.5110 C.3       2 GLC5        0.0000 
     17 CA         39.5970   10.7580   32.9850 C.3       6 GLL5        0.0000 
     18 CA         45.9340   11.3360   32.3795 C.3       2 GLC5        0.0000 
     19 CA         45.3760   11.9880   30.7450 C.3       6 GLL5        0.0000 
     20 CA         46.4920   10.6840   34.0140 C.3       4 GLP5        0.0000 
     21 CA         45.9755   13.5220   29.4185 C.3       2 GLC5        0.0000 
     22 CA         46.5750   15.0560   28.0920 C.3       4 GLP5        0.0000 
     23 CA         44.1080   13.4740   30.3535 C.3       2 GLC5        0.0000 
     24 CA         46.9330   11.9730   32.5590 C.3       2 GLC5        0.0000 
     25 CA         47.3740   13.2620   31.1040 C.3       6 GLL5        0.0000 
     26 CA         47.2565   16.0850   30.3910 C.3       2 GLC5        0.0000 
     27 CA         46.5530   16.1210   32.2100 C.3       6 GLL5        0.0000 
     28 CA         47.9600   16.0490   28.5720 C.3       4 GLP5        0.0000 
     29 CA         44.6965   15.5405   31.0860 C.3       2 GLC5        0.0000 
     30 CA         48.5600    9.9140   30.0855 C.3       2 GLC5        0.0000 
     31 CA         47.3610   11.4980   29.4700 C.3       6 GLL5        0.0000 
     32 CA         49.7590    8.3300   30.7010 C.3       4 GLP5        0.0000 
     33 CA         44.6575    8.7130   30.3180 C.3       2 GLC5        0.0000 
     34 CA         45.4950   10.1250   28.9960 C.3       6 GLL5        0.0000 
     35 CA         43.8200    7.3010   31.6400 C.3       4 GLP5        0.0000 
     36 CA         44.3585   11.5515   28.1810 C.3       2 GLC5        0.0000 
     37 CA         43.2220   12.9780   27.3660 C.3       4 GLP5        0.0000 
     38 CA         48.2370    9.0495   29.4245 C.3       2 GLC5        0.0000 
     39 CA         46.7150    9.7690   28.1480 C.3       6 GLL5        0.0000 
     40 CA         47.8260    9.2675   26.8495 C.3       2 GLC5        0.0000 
     41 CA         48.9370    8.7660   25.5510 C.3       4 GLP5        0.0000 
     42 CA         51.7960   14.4155   32.6695 C.3       2 GLC5        0.0000 
     43 CA         51.3320   16.0090   31.8240 C.3       6 GLL5        0.0000 
     44 CA         52.2600   12.8220   33.5150 C.3       4 GLP5        0.0000 
     45 CA         39.6769   12.8375   32.1876 C.3       2 GLC5        0.0000 
     46 CA         40.1490   11.7060   33.8320 C.3       6 GLL5        0.0000 
     47 CA         38.4210   13.8150   30.9990 C.3       4 GLP5        0.0000 
     48 CA         40.0975   11.7353   35.4071 C.3       2 GLC5        0.0000 
     49 CA         39.5640   11.7420   37.3580 C.3       4 GLP5        0.0000 
     50 CA         48.3255   15.2473   30.1067 C.3       2 GLC5        0.0000 
     51 CA         48.0250   14.2850   31.7910 C.3       6 GLL5        0.0000 
     52 CA         47.0566   13.6260   29.0664 C.3       2 GLC5        0.0000 
     53 CA         45.5530    8.4525   27.5065 C.3       2 GLC5        0.0000 
     54 CA         45.0010    6.9580   26.4410 C.3       4 GLP5        0.0000 
     55 CA         50.7193   11.6038   30.7718 C.3       2 GLC5        0.0000 
     56 CA         49.3980   12.8300   29.8200 C.3       6 GLL5        0.0000 
     57 CA         51.7160    9.8640   31.3800 C.3       4 GLP5        0.0000 
     58 CA         50.3498   13.6807   28.1988 C.3       2 GLC5        0.0000 
     59 CA         50.9770   14.0180   26.2340 C.3       4 GLP5        0.0000 
     60 CA         48.8413   14.6962   29.3678 C.3       2 GLC5        0.0000 
     61 CA         41.2804    9.7472   33.5911 C.3       2 GLC5        0.0000 
     62 CA         41.3890   12.2250   33.5040 C.3       6 GLL5        0.0000 
     63 CA         41.8400    7.9940   34.1170 C.3       4 GLP5        0.0000 
@<TRIPOS>BOND
@<TRIPOS>SUBSTRUCTURE
     1 ASC3       11 GROUP        1 X    ASC  0     ROOT ASC X 3
     2 GLC5        1 GROUP        1 X    GLC  0     **** GLC X 6
     3 ASP3       13 GROUP        1 Y    ASP  0     ROOT ASP Y 10
     4 GLP5        3 GROUP        1 Y    GLP  0     **** GLP Y 13
     5 ASL3       12 GROUP        1 Z    ASL  0     ROOT ASL Z 17
     6 GLL5        2 GROUP        1 Z    GLL  0     **** GLL Z 20
@<TRIPOS>SET

