#    Name: 2chx_090_1_ligand
#    Modification time : Mon Mar 24 23:50:43 2014

@<TRIPOS>MOLECULE
2chx_090_1_ligand
   47    50     1     0     0
SMALL
NO_CHARGES


@<TRIPOS>ATOM
      1 OAU        43.9370   13.1730   32.7120 O.2       1 0902093     0.0000 
      2 CAO        43.4190   12.3190   32.0050 C.2       1 0902093     0.0000 
      3 CAP        42.0440   11.8030   32.3370 C.3       1 0902093     0.0000 
      4 CAQ        41.4530   10.8220   31.5430 C.3       1 0902093     0.0000 
      5 NAR        40.2450   10.3360   31.8800 N.4       1 0902093     0.0000 
      6 CAX        39.5970   10.7580   32.9850 C.3       1 0902093     0.0000 
      7 CAW        40.1490   11.7060   33.8320 C.3       1 0902093     0.0000 
      8 CAV        41.3890   12.2250   33.5040 C.3       1 0902093     0.0000 
      9 NAN        44.1030   11.6770   31.0610 N.am      1 0902093     0.0000 
     10 CAM        45.3760   11.9880   30.7450 C.ar      1 0902093     0.0000 
     11 NAL        46.0670   12.9780   31.3930 N.ar      1 0902093     0.0000 
     12 CAK        47.3740   13.2620   31.1040 C.ar      1 0902093     0.0000 
     13 CAJ        48.0250   14.2850   31.7910 C.ar      1 0902093     0.0000 
     14 OAT        47.3320   15.0180   32.7090 O.3       1 0902093     0.0000 
     15 CAZ        46.5530   16.1210   32.2100 C.3       1 0902093     0.0000 
     16 CAE        48.0570   12.5260   30.1190 C.ar      1 0902093     0.0000 
     17 CAF        47.3610   11.4980   29.4700 C.ar      1 0902093     0.0000 
     18 NAG        46.0380   11.2310   29.7700 N.pl3     1 0902093     0.0000 
     19 CAH        45.4950   10.1250   28.9960 C.2       1 0902093     0.0000 
     20 CAB        46.7150    9.7690   28.1480 C.2       1 0902093     0.0000 
     21 NAA        47.7870   10.6690   28.5230 N.pl3     1 0902093     0.0000 
     22 CAD        49.3980   12.8300   29.8200 C.ar      1 0902093     0.0000 
     23 CAC        50.0470   13.8570   30.5070 C.ar      1 0902093     0.0000 
     24 CAI        49.3570   14.6060   31.4920 C.ar      1 0902093     0.0000 
     25 OAS        49.9880   15.6380   32.1650 O.3       1 0902093     0.0000 
     26 CAY        51.3320   16.0090   31.8240 C.3       1 0902093     0.0000 
     27 H          41.4520   12.8435   31.5744 H         1 0902093     0.0000 
     28 H          42.2115    9.9503   31.4230 H         1 0902093     0.0000 
     29 H          41.4332   11.2086   30.4477 H         1 0902093     0.0000 
     30 H          39.2908    9.8313   33.6325 H         1 0902093     0.0000 
     31 H          38.5230   11.1205   32.6900 H         1 0902093     0.0000 
     32 H          40.1858   11.2817   34.9015 H         1 0902093     0.0000 
     33 H          39.4007   12.5697   33.9716 H         1 0902093     0.0000 
     34 H          41.3246   13.3825   33.4890 H         1 0902093     0.0000 
     35 H          42.1102   12.0815   34.4003 H         1 0902093     0.0000 
     36 H          43.6322   10.8847   30.5298 H         1 0902093     0.0000 
     37 H          44.7282    9.7500   28.9838 H         1 0902093     0.0000 
     38 H          46.7221    9.1046   27.5314 H         1 0902093     0.0000 
     39 H          48.6513   10.6194   28.1093 H         1 0902093     0.0000 
     40 H          49.8918   12.2963   29.0996 H         1 0902093     0.0000 
     41 H          51.0276   14.0777   30.3047 H         1 0902093     0.0000 
     42 H          47.1217   16.7923   31.7347 H         1 0902093     0.0000 
     43 H          45.8533   15.8187   31.5626 H         1 0902093     0.0000 
     44 H          46.0811   16.6056   32.9465 H         1 0902093     0.0000 
     45 H          51.9705   15.2500   31.9514 H         1 0902093     0.0000 
     46 H          51.4067   16.2978   30.8695 H         1 0902093     0.0000 
     47 H          51.6620   16.7672   32.3864 H         1 0902093     0.0000 
@<TRIPOS>BOND
     1    2    1 2    
     2    3    2 1    
     3    9    2 am   
     4    4    3 1    
     5    8    3 1    
     6   27    3 1    
     7    5    4 1    
     8   28    4 1    
     9   29    4 1    
    10    6    5 1    
    11    7    6 1    
    12   30    6 1    
    13   31    6 1    
    14    8    7 1    
    15   32    7 1    
    16   33    7 1    
    17   34    8 1    
    18   35    8 1    
    19   10    9 1    
    20   36    9 1    
    21   11   10 ar   
    22   18   10 ar   
    23   12   11 ar   
    24   13   12 ar   
    25   16   12 ar   
    26   14   13 1    
    27   24   13 ar   
    28   15   14 1    
    29   42   15 1    
    30   43   15 1    
    31   44   15 1    
    32   17   16 ar   
    33   22   16 ar   
    34   18   17 ar   
    35   21   17 1    
    36   19   18 1    
    37   20   19 2    
    38   37   19 1    
    39   21   20 1    
    40   38   20 1    
    41   39   21 1    
    42   23   22 ar   
    43   40   22 1    
    44   24   23 ar   
    45   41   23 1    
    46   25   24 1    
    47   26   25 1    
    48   45   26 1    
    49   46   26 1    
    50   47   26 1    
@<TRIPOS>SUBSTRUCTURE
     1 0902093     1 GROUP   
@<TRIPOS>SET

