#    Name: 1s9g_ABZ_1_INTS_M
#    Modification time : Tue Mar 25 02:08:04 2014

@<TRIPOS>MOLECULE
1s9g_ABZ_1_INTS_M
   55     0     3     0     0
SMALL
NO_CHARGES


@<TRIPOS>ATOM
      1 CA        140.5080  -19.6185   74.2195 C.3       1 GLC5        0.0000 
      2 CA        141.2950  -21.6440   74.3190 C.3       3 GLL5        0.0000 
      3 CA        139.7210  -17.5930   74.1200 C.3       2 GLP5        0.0000 
      4 CA        141.9645  -22.9185   78.1200 C.3       1 GLC5        0.0000 
      5 CA        141.8180  -23.1650   76.0770 C.3       3 GLL5        0.0000 
      6 CA        142.1110  -22.6720   80.1630 C.3       2 GLP5        0.0000 
      7 CA        139.5335  -24.8480   71.9140 C.3       1 GLC5        0.0000 
      8 CA        140.9900  -26.0170   70.8940 C.3       3 GLL5        0.0000 
      9 CA        138.0770  -23.6790   72.9340 C.3       2 GLP5        0.0000 
     10 CA        142.0735  -27.4585   70.5270 C.3       1 GLC5        0.0000 
     11 CA        143.1570  -28.9000   70.1600 C.3       2 GLP5        0.0000 
     12 CA        139.2935  -22.0690   69.9225 C.3       1 GLC5        0.0000 
     13 CA        140.2730  -22.4280   68.4120 C.3       3 GLL5        0.0000 
     14 CA        138.3140  -21.7100   71.4330 C.3       2 GLP5        0.0000 
     15 CA        139.6030  -24.7905   64.7595 C.3       1 GLC5        0.0000 
     16 CA        140.0130  -23.0710   65.6130 C.3       3 GLL5        0.0000 
     17 CA        139.1930  -26.5100   63.9060 C.3       2 GLP5        0.0000 
     18 CA        140.8060  -25.5305   66.1240 C.3       1 GLC5        0.0000 
     19 CA        141.1710  -23.4880   66.3540 C.3       3 GLL5        0.0000 
     20 CA        140.4410  -27.5730   65.8940 C.3       2 GLP5        0.0000 
     21 CA        142.6520  -22.3250   65.4725 C.3       1 GLC5        0.0000 
     22 CA        144.1330  -21.1620   64.5910 C.3       2 GLP5        0.0000 
     23 CA        140.4880  -19.0610   73.2815 C.3       1 GLC5        0.0000 
     24 CA        141.2550  -20.5290   72.4430 C.3       3 GLL5        0.0000 
     25 CA        140.4270  -19.6140   70.6780 C.3       1 GLC5        0.0000 
     26 CA        139.5990  -18.6990   68.9130 C.3       2 GLP5        0.0000 
     27 CA        145.0895  -24.9305   76.2145 C.3       1 GLC5        0.0000 
     28 CA        143.6790  -25.1710   75.8390 C.3       3 GLL5        0.0000 
     29 CA        146.5000  -24.6900   76.5900 C.3       2 GLP5        0.0000 
     30 CA        144.0290  -26.7305   76.8210 C.3       1 GLC5        0.0000 
     31 CA        144.3790  -28.2900   77.8030 C.3       2 GLP5        0.0000 
     32 CA        143.9228  -26.2630   72.1538 C.3       1 GLC5        0.0000 
     33 CA        143.6550  -24.4410   72.9740 C.3       3 GLL5        0.0000 
     34 CA        144.5990  -27.8630   71.9250 C.3       2 GLP5        0.0000 
     35 CA        139.7406  -22.8483   73.8529 C.3       1 GLC5        0.0000 
     36 CA        142.1500  -22.3420   73.4700 C.3       3 GLL5        0.0000 
     37 CA        140.6000  -23.7342   76.8260 C.3       1 GLC5        0.0000 
     38 CA        141.0860  -22.0420   75.6490 C.3       3 GLL5        0.0000 
     39 CA        139.7480  -24.8650   77.7890 C.3       2 GLP5        0.0000 
     40 CA        141.4685  -24.6923   76.6557 C.3       1 GLC5        0.0000 
     41 CA        142.6990  -23.8680   75.2060 C.3       3 GLL5        0.0000 
     42 CA        139.9960  -21.3750   71.8710 C.3       1 GLC5        0.0000 
     43 CA        142.1010  -21.5510   72.1750 C.3       3 GLL5        0.0000 
     44 CA        143.3685  -20.4770   71.5940 C.3       1 GLC5        0.0000 
     45 CA        145.0590  -19.9140   70.8790 C.3       2 GLP5        0.0000 
     46 CA        144.8370  -24.0890   72.7470 C.3       1 GLC5        0.0000 
     47 CA        142.8490  -23.5090   73.8520 C.3       3 GLL5        0.0000 
     48 CA        146.6290  -23.7480   72.8920 C.3       2 GLP5        0.0000 
     49 CA        139.6487  -20.4620   68.4787 C.3       1 GLC5        0.0000 
     50 CA        137.4086  -22.5463   67.8713 C.3       1 GLC5        0.0000 
     51 CA        137.8370  -21.8570   65.5430 C.3       3 GLL5        0.0000 
     52 CA        136.3700  -23.0760   69.4820 C.3       2 GLP5        0.0000 
     53 CA        137.6107  -23.4464   65.3342 C.3       1 GLC5        0.0000 
     54 CA        138.9910  -22.3300   66.2790 C.3       3 GLL5        0.0000 
     55 CA        136.5520  -24.6140   64.9240 C.3       2 GLP5        0.0000 
@<TRIPOS>BOND
@<TRIPOS>SUBSTRUCTURE
     1 GLC5        1 GROUP        1 X    GLC  0     ROOT GLC X 6
     2 GLP5        3 GROUP        1 Y    GLP  0     ROOT GLP Y 13
     3 GLL5        2 GROUP        1 Z    GLL  0     ROOT GLL Z 20
@<TRIPOS>SET

