#    Name: 1s9g_ABZ_1_ligand
#    Modification time : Tue Mar 25 02:08:04 2014

@<TRIPOS>MOLECULE
1s9g_ABZ_1_ligand
   41    44     1     0     0
SMALL
NO_CHARGES


@<TRIPOS>ATOM
      1 C1        142.8490  -23.5090   73.8520 C.ar      1 ABZ701      0.0000 
      2 C7        143.6550  -24.4410   72.9740 C.3       1 ABZ701      0.0000 
      3 C2        142.1500  -22.3420   73.4700 C.ar      1 ABZ701      0.0000 
      4 N10       140.7870  -20.5840   73.6840 N.pl3     1 ABZ701      0.0000 
      5 C3        141.2950  -21.6440   74.3190 C.ar      1 ABZ701      0.0000 
      6 C4        141.0860  -22.0420   75.6490 C.ar      1 ABZ701      0.0000 
      7 C5        141.8180  -23.1650   76.0770 C.ar      1 ABZ701      0.0000 
      8 C6        142.6990  -23.8680   75.2060 C.ar      1 ABZ701      0.0000 
      9 C25       142.1010  -21.5510   72.1750 C.2       1 ABZ701      0.0000 
     10 C8        142.8380  -24.8850   71.7910 C.ar      1 ABZ701      0.0000 
     11 N1        143.0450  -24.2270   70.6370 N.ar      1 ABZ701      0.0000 
     12 C9        142.2310  -24.4070   69.6140 C.ar      1 ABZ701      0.0000 
     13 N5        142.4200  -23.6040   68.4820 N.pl3     1 ABZ701      0.0000 
     14 N2        141.1870  -25.3060   69.7140 N.ar      1 ABZ701      0.0000 
     15 C10       140.9900  -26.0170   70.8940 C.ar      1 ABZ701      0.0000 
     16 N4        139.9680  -26.9990   71.0020 N.pl3     1 ABZ701      0.0000 
     17 N3        141.8170  -25.7960   71.9400 N.ar      1 ABZ701      0.0000 
     18 C11       141.3020  -23.1640   67.7570 C.ar      1 ABZ701      0.0000 
     19 C12       140.2730  -22.4280   68.4120 C.ar      1 ABZ701      0.0000 
     20 C13       139.1240  -22.0220   67.6770 C.ar      1 ABZ701      0.0000 
     21 C14       138.9910  -22.3300   66.2790 C.ar      1 ABZ701      0.0000 
     22 C15       140.0130  -23.0710   65.6130 C.ar      1 ABZ701      0.0000 
     23 C16       141.1710  -23.4880   66.3540 C.ar      1 ABZ701      0.0000 
     24 C17       137.8370  -21.8570   65.5430 C.1       1 ABZ701      0.0000 
     25 N6        136.8770  -21.4930   64.9500 N.1       1 ABZ701      0.0000 
     26 C26       141.2550  -20.5290   72.4430 C.2       1 ABZ701      0.0000 
     27 CL        143.6790  -25.1710   75.8390 Cl        1 ABZ701      0.0000 
     28 H         143.9594  -25.3119   73.5567 H         1 ABZ701      0.0000 
     29 H         144.5513  -23.9243   72.6271 H         1 ABZ701      0.0000 
     30 H         140.1586  -19.9413   74.0820 H         1 ABZ701      0.0000 
     31 H         140.4593  -21.5607   76.2530 H         1 ABZ701      0.0000 
     32 H         141.7184  -23.4956   77.0517 H         1 ABZ701      0.0000 
     33 H         142.5727  -21.7933   71.4391 H         1 ABZ701      0.0000 
     34 H         143.3600  -23.3412   68.1868 H         1 ABZ701      0.0000 
     35 H         139.8898  -27.4572   71.8874 H         1 ABZ701      0.0000 
     36 H         139.4134  -27.1488   70.1835 H         1 ABZ701      0.0000 
     37 H         140.3593  -22.1954   69.3951 H         1 ABZ701      0.0000 
     38 H         138.3776  -21.5027   68.1449 H         1 ABZ701      0.0000 
     39 H         139.9273  -23.3010   64.6349 H         1 ABZ701      0.0000 
     40 H         141.9060  -24.0150   65.8921 H         1 ABZ701      0.0000 
     41 H         141.0213  -19.8286   71.7805 H         1 ABZ701      0.0000 
@<TRIPOS>BOND
     1    2    1 1    
     2    3    1 ar   
     3    8    1 ar   
     4   10    2 1    
     5   28    2 1    
     6   29    2 1    
     7    5    3 ar   
     8    9    3 1    
     9    5    4 1    
    10   26    4 1    
    11   30    4 1    
    12    6    5 ar   
    13    7    6 ar   
    14   31    6 1    
    15    8    7 ar   
    16   32    7 1    
    17   27    8 1    
    18   26    9 2    
    19   33    9 1    
    20   11   10 ar   
    21   17   10 ar   
    22   12   11 ar   
    23   13   12 1    
    24   14   12 ar   
    25   18   13 1    
    26   34   13 1    
    27   15   14 ar   
    28   16   15 1    
    29   17   15 ar   
    30   35   16 1    
    31   36   16 1    
    32   19   18 ar   
    33   23   18 ar   
    34   20   19 ar   
    35   37   19 1    
    36   21   20 ar   
    37   38   20 1    
    38   22   21 ar   
    39   24   21 1    
    40   23   22 ar   
    41   39   22 1    
    42   40   23 1    
    43   25   24 3    
    44   41   26 1    
@<TRIPOS>SUBSTRUCTURE
     1 ABZ701      1 GROUP   
@<TRIPOS>SET

