#    Name: 1rzu_ADP_2_INTS_M
#    Modification time : Tue Mar 25 01:41:13 2014

@<TRIPOS>MOLECULE
1rzu_ADP_2_INTS_M
   62     0    12     0     0
SMALL
NO_CHARGES


@<TRIPOS>ATOM
      1 NZ          2.1365   48.1095   26.3950 N.4       3 LYC4        0.0000 
      2 NZ          2.8270   47.2400   25.2050 N.4      11 LYL4        0.0000 
      3 NZ          1.4460   48.9790   27.5850 N.4       7 LYP4        0.0000 
      4 NZ          3.1375   45.8875   28.6405 N.4       3 LYC4        0.0000 
      5 NZ          3.4810   45.8610   27.2420 N.4      11 LYL4        0.0000 
      6 NZ          1.9320   45.0990   30.6210 N.4       7 LYP4        0.0000 
      7 NZ          2.4635   47.4200   27.4135 N.4       3 LYC4        0.0000 
      8 N           3.1375   45.8875   28.6405 N.am      2 SEC2        0.0000 
      9 N           3.4810   45.8610   27.2420 N.am     10 SEL2        0.0000 
     10 N           2.7940   45.9140   30.0390 N.am      6 SEP2        0.0000 
     11 NZ          1.0550   45.0605   28.4610 N.4       3 LYC4        0.0000 
     12 NZ          0.9560   45.8360   27.0520 N.4      11 LYL4        0.0000 
     13 NZ          1.2010   47.4075   27.3185 N.4       3 LYC4        0.0000 
     14 N           1.0550   45.0605   28.4610 N.am      2 SEC2        0.0000 
     15 N           0.9560   45.8360   27.0520 N.am     10 SEL2        0.0000 
     16 N           1.1540   44.2850   29.8700 N.am      6 SEP2        0.0000 
     17 N           1.2010   47.4075   27.3185 N.am      2 SEC2        0.0000 
     18 N           1.4460   48.9790   27.5850 N.am      6 SEP2        0.0000 
     19 CA          2.2125   44.4925   22.3095 C.3       4 GLC5        0.0000 
     20 CA          0.7040   44.0850   23.8570 C.3      12 GLL5        0.0000 
     21 CA          3.7210   44.9000   20.7620 C.3       8 GLP5        0.0000 
     22 CA          0.7490   46.2330   21.4990 C.3       4 GLC5        0.0000 
     23 CA         -0.9480   45.5880   22.6900 C.3      12 GLL5        0.0000 
     24 CA          2.4460   46.8780   20.3080 C.3       8 GLP5        0.0000 
     25 CA         -1.1275   47.4730   21.7200 C.3       4 GLC5        0.0000 
     26 CA         -1.3070   49.3580   20.7500 C.3       8 GLP5        0.0000 
     27 N          -2.3630   47.6720   23.2285 N.am      2 SEC2        0.0000 
     28 N          -3.1230   46.4810   23.4120 N.am     10 SEL2        0.0000 
     29 N          -1.6030   48.8630   23.0450 N.am      6 SEP2        0.0000 
     30 O          -3.8845   47.0340   24.3315 O.2       1 ALC1        0.0000 
     31 O          -3.1230   46.4810   23.4120 O.2       9 ALL1        0.0000 
     32 O          -4.6460   47.5870   25.2510 O.2       5 ALP1        0.0000 
     33 CA         -4.6920   44.7325   23.4690 C.3       4 GLC5        0.0000 
     34 CA         -2.6160   44.0610   23.3820 C.3      12 GLL5        0.0000 
     35 CA         -6.7680   45.4040   23.5560 C.3       8 GLP5        0.0000 
     36 CA         -7.9210   42.4685   25.7455 C.3       4 GLC5        0.0000 
     37 CA         -6.0260   41.8830   26.2020 C.3      12 GLL5        0.0000 
     38 CA         -9.8160   43.0540   25.2890 C.3       8 GLP5        0.0000 
     39 CA         -7.0830   42.9020   27.8390 C.3       4 GLC5        0.0000 
     40 CA         -8.1400   43.9210   29.4760 C.3       8 GLP5        0.0000 
     41 CA         -6.6805   40.0115   26.6460 C.3       4 GLC5        0.0000 
     42 CA         -7.3350   38.1400   27.0900 C.3       8 GLP5        0.0000 
     43 O          -7.6435   41.0310   27.8930 O.2       1 ALC1        0.0000 
     44 O          -6.4450   41.8630   27.5000 O.2       9 ALL1        0.0000 
     45 O          -8.8420   40.1990   28.2860 O.2       5 ALP1        0.0000 
     46 N          -7.3910   39.8320   25.0310 N.am      2 SEC2        0.0000 
     47 N          -6.5530   41.1910   25.2030 N.am     10 SEL2        0.0000 
     48 N          -8.2290   38.4730   24.8590 N.am      6 SEP2        0.0000 
     49 CA         -6.4185   43.3360   23.7495 C.3       4 GLC5        0.0000 
     50 CA         -6.0690   41.2680   23.9430 C.3      12 GLL5        0.0000 
     51 CA         -7.9135   41.9650   23.8890 C.3       4 GLC5        0.0000 
     52 CA         -9.7580   42.6620   23.8350 C.3       8 GLP5        0.0000 
     53 CA         -7.4955   39.6625   23.8055 C.3       4 GLC5        0.0000 
     54 CA         -8.9220   38.0570   23.6680 C.3       8 GLP5        0.0000 
     55 CA         -6.3375   39.9370   22.3570 C.3       4 GLC5        0.0000 
     56 CA         -6.6060   38.6060   20.7710 C.3       8 GLP5        0.0000 
     57 CA         -6.7235   42.1695   22.2925 C.3       4 GLC5        0.0000 
     58 CA         -7.3780   43.0710   20.6420 C.3       8 GLP5        0.0000 
     59 CA         -0.4923   45.0367   20.6280 C.3       4 GLC5        0.0000 
     60 CA         -0.3280   45.1780   18.5210 C.3       8 GLP5        0.0000 
     61 CA         -5.8571   43.9725   24.4150 C.3       4 GLC5        0.0000 
     62 CA         -4.8970   42.7250   25.8760 C.3      12 GLL5        0.0000 
@<TRIPOS>BOND
@<TRIPOS>SUBSTRUCTURE
     1 ALC1       30 GROUP        1 X    ALC  0     ROOT ALC X 1
     2 SEC2        8 GROUP        1 X    SEC  0     **** SEC X 2
     3 LYC4        1 GROUP        1 X    LYC  0     **** LYC X 4
     4 GLC5       19 GROUP        1 X    GLC  0     **** GLC X 6
     5 ALP1       32 GROUP        1 Y    ALP  0     ROOT ALP Y 8
     6 SEP2       10 GROUP        1 Y    SEP  0     **** SEP Y 9
     7 LYP4        3 GROUP        1 Y    LYP  0     **** LYP Y 11
     8 GLP5       21 GROUP        1 Y    GLP  0     **** GLP Y 13
     9 ALL1       31 GROUP        1 Z    ALL  0     ROOT ALL Z 15
    10 SEL2        9 GROUP        1 Z    SEL  0     **** SEL Z 16
    11 LYL4        2 GROUP        1 Z    LYL  0     **** LYL Z 18
    12 GLL5       20 GROUP        1 Z    GLL  0     **** GLL Z 20
@<TRIPOS>SET

