#    Name: 1rzu_ADP_2_ligand
#    Modification time : Tue Mar 25 01:41:13 2014

@<TRIPOS>MOLECULE
1rzu_ADP_2_ligand
   39    41     1     0     0
SMALL
NO_CHARGES


@<TRIPOS>ATOM
      1 PB          3.5190   45.9900   25.7300 P.3       1 ADP2531     0.0000 
      2 O1B         2.8270   47.2400   25.2050 O.co2     1 ADP2531     0.0000 
      3 O2B         4.7550   45.5260   24.9680 O.co2     1 ADP2531     0.0000 
      4 O3B         3.4810   45.8610   27.2420 O.co2     1 ADP2531     0.0000 
      5 PA          1.4310   44.6320   26.3010 P.3       1 ADP2531     0.0000 
      6 O1A         0.9560   45.8360   27.0520 O.co2     1 ADP2531     0.0000 
      7 O2A         0.6570   43.3020   26.3550 O.co2     1 ADP2531     0.0000 
      8 O3A         2.5130   44.8780   25.2110 O.3       1 ADP2531     0.0000 
      9 O5'         0.5230   44.9070   24.9960 O.3       1 ADP2531     0.0000 
     10 C5'         0.7040   44.0850   23.8570 C.3       1 ADP2531     0.0000 
     11 C4'        -0.3650   44.2030   22.7800 C.3       1 ADP2531     0.0000 
     12 O4'        -1.4600   43.3240   23.0320 O.3       1 ADP2531     0.0000 
     13 C3'        -0.9480   45.5880   22.6900 C.3       1 ADP2531     0.0000 
     14 O3'        -1.2920   45.7780   21.3520 O.3       1 ADP2531     0.0000 
     15 C2'        -2.1280   45.4890   23.6170 C.3       1 ADP2531     0.0000 
     16 O2'        -3.1230   46.4810   23.4120 O.3       1 ADP2531     0.0000 
     17 C1'        -2.6160   44.0610   23.3820 C.3       1 ADP2531     0.0000 
     18 N9         -3.3830   43.6120   24.5460 N.pl3     1 ADP2531     0.0000 
     19 C8         -3.2560   44.0940   25.8000 C.2       1 ADP2531     0.0000 
     20 N7         -4.1690   43.5380   26.6110 N.2       1 ADP2531     0.0000 
     21 C5         -4.8970   42.7250   25.8760 C.ar      1 ADP2531     0.0000 
     22 C6         -6.0260   41.8830   26.2020 C.ar      1 ADP2531     0.0000 
     23 N6         -6.4450   41.8630   27.5000 N.pl3     1 ADP2531     0.0000 
     24 N1         -6.5530   41.1910   25.2030 N.ar      1 ADP2531     0.0000 
     25 C2         -6.0690   41.2680   23.9430 C.ar      1 ADP2531     0.0000 
     26 N3         -5.0340   42.0180   23.5710 N.ar      1 ADP2531     0.0000 
     27 C4         -4.4310   42.7780   24.5090 C.ar      1 ADP2531     0.0000 
     28 H           0.7617   43.0002   24.1450 H         1 ADP2531     0.0000 
     29 H           1.6923   44.2893   23.3625 H         1 ADP2531     0.0000 
     30 H           0.0845   43.9683   21.8170 H         1 ADP2531     0.0000 
     31 H          -0.2442   46.2619   23.0738 H         1 ADP2531     0.0000 
     32 H          -1.7261   45.5026   24.6370 H         1 ADP2531     0.0000 
     33 H          -3.2900   44.1395   22.5067 H         1 ADP2531     0.0000 
     34 H          -2.5889   44.7573   26.0755 H         1 ADP2531     0.0000 
     35 H          -5.9152   42.4173   28.1420 H         1 ADP2531     0.0000 
     36 H          -7.2451   41.2958   27.6954 H         1 ADP2531     0.0000 
     37 H          -6.5630   40.6756   23.1906 H         1 ADP2531     0.0000 
     38 H          -2.1953   46.2065   21.3754 H         1 ADP2531     0.0000 
     39 H          -3.1402   47.0094   24.2608 H         1 ADP2531     0.0000 
@<TRIPOS>BOND
     1    2    1 ar   
     2    3    1 ar   
     3    4    1 ar   
     4    8    1 1    
     5    6    5 ar   
     6    7    5 ar   
     7    8    5 1    
     8    9    5 1    
     9   10    9 1    
    10   11   10 1    
    11   28   10 1    
    12   29   10 1    
    13   12   11 1    
    14   13   11 1    
    15   30   11 1    
    16   17   12 1    
    17   14   13 1    
    18   15   13 1    
    19   31   13 1    
    20   38   14 1    
    21   16   15 1    
    22   17   15 1    
    23   32   15 1    
    24   39   16 1    
    25   18   17 1    
    26   33   17 1    
    27   19   18 1    
    28   27   18 1    
    29   20   19 2    
    30   34   19 1    
    31   21   20 1    
    32   22   21 ar   
    33   27   21 ar   
    34   23   22 1    
    35   24   22 ar   
    36   35   23 1    
    37   36   23 1    
    38   25   24 ar   
    39   26   25 ar   
    40   37   25 1    
    41   27   26 ar   
@<TRIPOS>SUBSTRUCTURE
     1 ADP2531     1 GROUP   
@<TRIPOS>SET

