#    Name: 2wqp_WQP_1_INTS_M
#    Modification time : Tue Mar 25 04:36:02 2014

@<TRIPOS>MOLECULE
2wqp_WQP_1_INTS_M
   77     0    15     0     0
SMALL
NO_CHARGES


@<TRIPOS>ATOM
      1 N          95.1395  -19.6345   56.7045 N.am      2 SEC2        0.0000 
      2 N          95.7180  -19.7390   55.4620 N.am     12 SEL2        0.0000 
      3 N          94.5610  -19.5300   57.9470 N.am      7 SEP2        0.0000 
      4 N          96.3045  -20.5120   56.6170 N.am      2 SEC2        0.0000 
      5 N          96.8910  -21.2850   57.7720 N.am      7 SEP2        0.0000 
      6 N          94.2880  -20.2685   55.2165 N.am      2 SEC2        0.0000 
      7 N          92.8580  -20.7980   54.9710 N.am      7 SEP2        0.0000 
      8 NZ         98.0995  -17.3115   54.7275 N.4       3 LYC4        0.0000 
      9 NZ         96.6930  -17.4820   54.7370 N.4      13 LYL4        0.0000 
     10 NZ         99.5060  -17.1410   54.7180 N.4       8 LYP4        0.0000 
     11 N          98.0995  -17.3115   54.7275 N.am      2 SEC2        0.0000 
     12 N          96.6930  -17.4820   54.7370 N.am     12 SEL2        0.0000 
     13 N          99.5060  -17.1410   54.7180 N.am      7 SEP2        0.0000 
     14 N          97.0575  -17.0620   55.8600 N.am      2 SEC2        0.0000 
     15 N          97.4220  -16.6420   56.9830 N.am      7 SEP2        0.0000 
     16 N          96.1625  -16.4475   54.1725 N.am      2 SEC2        0.0000 
     17 N          95.6320  -15.4130   53.6080 N.am      7 SEP2        0.0000 
     18 Zn         95.4895  -18.7295   52.0450 Zn        4 ZIC7        0.0000 
     19 Zn         95.3710  -19.0110   53.0950 Zn       14 ZIL7        0.0000 
     20 Zn         95.6080  -18.4480   50.9950 Zn        9 ZIP7        0.0000 
     21 CA         98.5490  -20.8160   54.8885 C.3       5 GLC5        0.0000 
     22 CA         97.9380  -20.3200   52.7920 C.3      15 GLL5        0.0000 
     23 CA         99.1600  -21.3120   56.9850 C.3      10 GLP5        0.0000 
     24 NZ        101.0375  -19.3180   52.1720 N.4       3 LYC4        0.0000 
     25 NZ        100.1020  -19.6700   53.4430 N.4      13 LYL4        0.0000 
     26 NZ        101.9730  -18.9660   50.9010 N.4       8 LYP4        0.0000 
     27 NZ         99.8040  -18.4055   54.0805 N.4       3 LYC4        0.0000 
     28 N         101.0375  -19.3180   52.1720 N.am      2 SEC2        0.0000 
     29 N         100.1020  -19.6700   53.4430 N.am     12 SEL2        0.0000 
     30 N         101.9730  -18.9660   50.9010 N.am      7 SEP2        0.0000 
     31 N         101.3875  -19.9145   53.2555 N.am      2 SEC2        0.0000 
     32 N         102.6730  -20.1590   53.0680 N.am      7 SEP2        0.0000 
     33 N          99.8040  -18.4055   54.0805 N.am      2 SEC2        0.0000 
     34 NZ        100.9565  -20.1480   51.4505 N.4       3 LYC4        0.0000 
     35 NZ         99.9400  -21.3300   52.0000 N.4      13 LYL4        0.0000 
     36 Zn         95.5105  -19.7305   51.2115 Zn        4 ZIC7        0.0000 
     37 Zn         95.4130  -21.0130   51.4280 Zn       14 ZIL7        0.0000 
     38 N          94.1990  -21.4910   51.7165 N.am      2 SEC2        0.0000 
     39 N          95.4130  -21.0130   51.4280 N.am     12 SEL2        0.0000 
     40 N          92.9850  -21.9690   52.0050 N.am      7 SEP2        0.0000 
     41 O          94.1120  -22.8700   52.1055 O.2       1 ALC1        0.0000 
     42 O          95.2390  -23.7710   52.2060 O.2      11 ALL1        0.0000 
     43 O          92.9850  -21.9690   52.0050 O.2       6 ALP1        0.0000 
     44 CA         93.4310  -24.4380   55.9800 C.3       5 GLC5        0.0000 
     45 CA         94.4740  -24.9830   54.1330 C.3      15 GLL5        0.0000 
     46 CA         92.3880  -23.8930   57.8270 C.3      10 GLP5        0.0000 
     47 N          97.7345  -22.5405   48.8090 N.am      2 SEC2        0.0000 
     48 N          96.3020  -22.9300   48.7410 N.am     12 SEL2        0.0000 
     49 N          99.1670  -22.1510   48.8770 N.am      7 SEP2        0.0000 
     50 O          95.8955  -22.7075   47.5155 O.2       1 ALC1        0.0000 
     51 O          96.3020  -22.9300   48.7410 O.2      11 ALL1        0.0000 
     52 O          95.4890  -22.4850   46.2900 O.2       6 ALP1        0.0000 
     53 CA         96.6105  -26.8430   48.9600 C.3       5 GLC5        0.0000 
     54 CA         95.4180  -25.0540   49.4470 C.3      15 GLL5        0.0000 
     55 CA         97.8030  -28.6320   48.4730 C.3      10 GLP5        0.0000 
     56 O          98.2855  -24.9595   49.0720 O.2       1 ALC1        0.0000 
     57 O          96.7320  -25.6300   49.2750 O.2      11 ALL1        0.0000 
     58 O          99.8390  -24.2890   48.8690 O.2       6 ALP1        0.0000 
     59 N          92.0715  -24.5505   47.3305 N.am      2 SEC2        0.0000 
     60 N          93.3600  -24.5370   48.1780 N.am     12 SEL2        0.0000 
     61 N          90.7830  -24.5640   46.4830 N.am      7 SEP2        0.0000 
     62 O          93.3210  -23.6040   47.2615 O.2       1 ALC1        0.0000 
     63 O          93.3600  -24.5370   48.1780 O.2      11 ALL1        0.0000 
     64 O          93.2820  -22.6710   46.3450 O.2       6 ALP1        0.0000 
     65 CA         94.6330  -28.6795   48.6355 C.3       5 GLC5        0.0000 
     66 CA         94.2630  -26.7630   48.0570 C.3      15 GLL5        0.0000 
     67 CA         95.0030  -30.5960   49.2140 C.3      10 GLP5        0.0000 
     68 CA         96.0330  -27.6975   48.2650 C.3       5 GLC5        0.0000 
     69 O          91.7140  -26.7685   47.1665 O.2       1 ALC1        0.0000 
     70 O          93.2800  -26.9750   47.0410 O.2      11 ALL1        0.0000 
     71 O          90.1480  -26.5620   47.2920 O.2       6 ALP1        0.0000 
     72 CA         93.9515  -22.7085   50.7525 C.3       5 GLC5        0.0000 
     73 CA         95.5570  -23.5740   49.7890 C.3      15 GLL5        0.0000 
     74 CA         92.0350  -21.9560   51.0220 C.3      10 GLP5        0.0000 
     75 CA         95.6637  -25.9627   46.4455 C.3       5 GLC5        0.0000 
     76 CA         94.5900  -25.2840   48.1710 C.3      15 GLL5        0.0000 
     77 CA         96.9010  -25.9020   44.7770 C.3      10 GLP5        0.0000 
@<TRIPOS>BOND
@<TRIPOS>SUBSTRUCTURE
     1 ALC1       41 GROUP        1 X    ALC  0     ROOT ALC X 1
     2 SEC2        1 GROUP        1 X    SEC  0     **** SEC X 2
     3 LYC4        8 GROUP        1 X    LYC  0     **** LYC X 4
     4 ZIC7       18 GROUP        1 X    ZIC  0     **** ZIC X 5
     5 GLC5       21 GROUP        1 X    GLC  0     **** GLC X 6
     6 ALP1       43 GROUP        1 Y    ALP  0     ROOT ALP Y 8
     7 SEP2        3 GROUP        1 Y    SEP  0     **** SEP Y 9
     8 LYP4       10 GROUP        1 Y    LYP  0     **** LYP Y 11
     9 ZIP7       20 GROUP        1 Y    ZIP  0     **** ZIP Y 12
    10 GLP5       23 GROUP        1 Y    GLP  0     **** GLP Y 13
    11 ALL1       42 GROUP        1 Z    ALL  0     ROOT ALL Z 15
    12 SEL2        2 GROUP        1 Z    SEL  0     **** SEL Z 16
    13 LYL4        9 GROUP        1 Z    LYL  0     **** LYL Z 18
    14 ZIL7       19 GROUP        1 Z    ZIL  0     **** ZIL Z 19
    15 GLL5       22 GROUP        1 Z    GLL  0     **** GLL Z 20
@<TRIPOS>SET

