#    Name: 2wqp_WQP_1_ligand
#    Modification time : Tue Mar 25 04:36:03 2014

@<TRIPOS>MOLECULE
2wqp_WQP_1_ligand
   43    42     1     0     0
SMALL
NO_CHARGES


@<TRIPOS>ATOM
      1 OAE        95.7180  -19.7390   55.4620 O.co2     1 WQP1350     0.0000 
      2 PAD        96.2220  -18.8830   54.3400 P.3       1 WQP1350     0.0000 
      3 OAA        96.6930  -17.4820   54.7370 O.co2     1 WQP1350     0.0000 
      4 OAC        95.3710  -19.0110   53.0950 O.co2     1 WQP1350     0.0000 
      5 OAH        97.6280  -19.5900   53.9530 O.3       1 WQP1350     0.0000 
      6 CAN        97.9380  -20.3200   52.7920 C.3       1 WQP1350     0.0000 
      7 CAM        99.4330  -20.4590   52.7460 C.2       1 WQP1350     0.0000 
      8 OAV       100.1020  -19.6700   53.4430 O.co2     1 WQP1350     0.0000 
      9 OAL        99.9400  -21.3300   52.0000 O.co2     1 WQP1350     0.0000 
     10 CAO        97.2590  -21.6850   52.7730 C.3       1 WQP1350     0.0000 
     11 CAP        96.5660  -21.8730   51.4250 C.3       1 WQP1350     0.0000 
     12 OAW        95.4130  -21.0130   51.4280 O.3       1 WQP1350     0.0000 
     13 CAQ        96.1790  -23.3480   51.1770 C.3       1 WQP1350     0.0000 
     14 NAI        95.2390  -23.7710   52.2060 N.am      1 WQP1350     0.0000 
     15 CAF        95.5590  -24.6390   53.1650 C.2       1 WQP1350     0.0000 
     16 CAG        94.4740  -24.9830   54.1330 C.3       1 WQP1350     0.0000 
     17 OAB        96.6610  -25.1380   53.2590 O.2       1 WQP1350     0.0000 
     18 CAR        95.5570  -23.5740   49.7890 C.3       1 WQP1350     0.0000 
     19 OAX        96.3020  -22.9300   48.7410 O.3       1 WQP1350     0.0000 
     20 CAS        95.4180  -25.0540   49.4470 C.3       1 WQP1350     0.0000 
     21 OAJ        96.7320  -25.6300   49.2750 O.3       1 WQP1350     0.0000 
     22 CAT        94.5900  -25.2840   48.1710 C.3       1 WQP1350     0.0000 
     23 OAY        93.3600  -24.5370   48.1780 O.3       1 WQP1350     0.0000 
     24 CAU        94.2630  -26.7630   48.0570 C.3       1 WQP1350     0.0000 
     25 OAK        93.2800  -26.9750   47.0410 O.3       1 WQP1350     0.0000 
     26 H          97.6314  -19.7764   51.8993 H         1 WQP1350     0.0000 
     27 H          96.5244  -21.7340   53.5644 H         1 WQP1350     0.0000 
     28 H          98.0012  -22.4594   52.9064 H         1 WQP1350     0.0000 
     29 H          97.2620  -21.5676   50.6528 H         1 WQP1350     0.0000 
     30 H          97.0848  -23.9442   51.2429 H         1 WQP1350     0.0000 
     31 H          94.2827  -23.3450   52.1449 H         1 WQP1350     0.0000 
     32 H          94.5341  -23.1585   49.8166 H         1 WQP1350     0.0000 
     33 H          94.9041  -25.5453   50.2694 H         1 WQP1350     0.0000 
     34 H          95.2043  -25.0169   47.3216 H         1 WQP1350     0.0000 
     35 H          93.9098  -27.1082   49.0385 H         1 WQP1350     0.0000 
     36 H          95.1956  -27.2997   47.8344 H         1 WQP1350     0.0000 
     37 H          94.7844  -25.6390   54.8210 H         1 WQP1350     0.0000 
     38 H          94.1452  -24.1765   54.6243 H         1 WQP1350     0.0000 
     39 H          93.6834  -25.3901   53.6755 H         1 WQP1350     0.0000 
     40 H          95.9460  -23.3215   47.8925 H         1 WQP1350     0.0000 
     41 H          97.3264  -24.8569   49.0537 H         1 WQP1350     0.0000 
     42 H          93.4776  -23.8384   47.4722 H         1 WQP1350     0.0000 
     43 H          92.4131  -26.7037   47.4592 H         1 WQP1350     0.0000 
@<TRIPOS>BOND
     1    2    1 ar   
     2    3    2 ar   
     3    4    2 ar   
     4    5    2 1    
     5    6    5 1    
     6    7    6 1    
     7   10    6 1    
     8   26    6 1    
     9    8    7 ar   
    10    9    7 ar   
    11   11   10 1    
    12   27   10 1    
    13   28   10 1    
    14   12   11 1    
    15   13   11 1    
    16   29   11 1    
    17   14   13 1    
    18   18   13 1    
    19   30   13 1    
    20   15   14 am   
    21   31   14 1    
    22   16   15 1    
    23   17   15 2    
    24   37   16 1    
    25   38   16 1    
    26   39   16 1    
    27   19   18 1    
    28   20   18 1    
    29   32   18 1    
    30   40   19 1    
    31   21   20 1    
    32   22   20 1    
    33   33   20 1    
    34   41   21 1    
    35   23   22 1    
    36   24   22 1    
    37   34   22 1    
    38   42   23 1    
    39   25   24 1    
    40   35   24 1    
    41   36   24 1    
    42   43   25 1    
@<TRIPOS>SUBSTRUCTURE
     1 WQP1350     1 GROUP   
@<TRIPOS>SET

