#    Name: 2fav_APR_1_INTS_M
#    Modification time : Tue Mar 25 12:26:06 2014

@<TRIPOS>MOLECULE
2fav_APR_1_INTS_M
   83     0     9     0     0
SMALL
NO_CHARGES


@<TRIPOS>ATOM
      1 N          13.4530   16.7660   18.7560 N.am      2 SEC2        0.0000 
      2 N          14.2340   17.9390   18.2740 N.am      8 SEL2        0.0000 
      3 N          12.6720   15.5930   19.2380 N.am      5 SEP2        0.0000 
      4 CA         14.2045   16.2290   17.8210 C.3       3 GLC5        0.0000 
      5 CA         15.5040   17.7150   18.6810 C.3       9 GLL5        0.0000 
      6 CA         12.9050   14.7430   16.9610 C.3       6 GLP5        0.0000 
      7 CA         14.2680   17.1825   20.0895 C.3       3 GLC5        0.0000 
      8 CA         13.0320   16.6500   21.4980 C.3       6 GLP5        0.0000 
      9 CA         17.4110   16.8040   18.5860 C.3       3 GLC5        0.0000 
     10 CA         19.3180   15.8930   18.4910 C.3       6 GLP5        0.0000 
     11 CA         15.8170   17.4125   16.8845 C.3       3 GLC5        0.0000 
     12 CA         16.1300   17.1100   15.0880 C.3       6 GLP5        0.0000 
     13 N          17.3000   17.6930   17.5730 N.am      2 SEC2        0.0000 
     14 N          16.4330   18.7010   18.6690 N.am      8 SEL2        0.0000 
     15 N          18.1670   16.6850   16.4770 N.am      5 SEP2        0.0000 
     16 CA         12.9770   18.5315   19.5340 C.3       3 GLC5        0.0000 
     17 CA         13.7590   19.1460   17.8750 C.3       9 GLL5        0.0000 
     18 CA         12.1950   17.9170   21.1930 C.3       6 GLP5        0.0000 
     19 O          11.7750   18.2360   16.9040 O.2       1 ALC1        0.0000 
     20 O          12.4600   19.3350   17.5230 O.2       7 ALL1        0.0000 
     21 O          11.0900   17.1370   16.2850 O.2       4 ALP1        0.0000 
     22 CA         16.4805   21.2910   19.8895 C.3       3 GLC5        0.0000 
     23 CA         18.1590   21.1720   18.5100 C.3       9 GLL5        0.0000 
     24 CA         14.8020   21.4100   21.2690 C.3       6 GLP5        0.0000 
     25 CA         18.2130   21.0245   21.9165 C.3       3 GLC5        0.0000 
     26 CA         19.2250   22.1770   20.3280 C.3       9 GLL5        0.0000 
     27 CA         17.2010   19.8720   23.5050 C.3       6 GLP5        0.0000 
     28 CA         16.7865   22.4345   21.1660 C.3       3 GLC5        0.0000 
     29 CA         18.7710   23.4590   21.0630 C.3       9 GLL5        0.0000 
     30 CA         19.6135   24.8300   19.6545 C.3       3 GLC5        0.0000 
     31 CA         20.4560   26.2010   18.2460 C.3       6 GLP5        0.0000 
     32 N          14.5895   24.2940   20.4345 N.am      2 SEC2        0.0000 
     33 N          15.8560   24.7160   20.8190 N.am      8 SEL2        0.0000 
     34 N          13.3230   23.8720   20.0500 N.am      5 SEP2        0.0000 
     35 N          18.1925   27.3810   18.8860 N.am      2 SEC2        0.0000 
     36 N          17.1580   26.4940   19.3890 N.am      8 SEL2        0.0000 
     37 N          19.2270   28.2680   18.3830 N.am      5 SEP2        0.0000 
     38 N          20.1410   26.4090   24.1220 N.am      2 SEC2        0.0000 
     39 N          18.8830   27.0020   23.8200 N.am      8 SEL2        0.0000 
     40 N          21.3990   25.8160   24.4240 N.am      5 SEP2        0.0000 
     41 N          20.4805   26.6350   20.4130 N.am      2 SEC2        0.0000 
     42 N          19.7190   27.3690   21.3720 N.am      8 SEL2        0.0000 
     43 N          21.2420   25.9010   19.4540 N.am      5 SEP2        0.0000 
     44 N          20.0780   28.6610   20.8260 N.am      2 SEC2        0.0000 
     45 N          20.4370   29.9530   20.2800 N.am      5 SEP2        0.0000 
     46 CA         17.5970   29.9680   24.1445 C.3       3 GLC5        0.0000 
     47 CA         16.6070   28.8610   23.0220 C.3       9 GLL5        0.0000 
     48 CA         18.5870   31.0750   25.2670 C.3       6 GLP5        0.0000 
     49 N          11.8525   28.4470   19.7650 N.am      2 SEC2        0.0000 
     50 N          12.9910   27.9960   20.9500 N.am      8 SEL2        0.0000 
     51 N          10.7140   28.8980   18.5800 N.am      5 SEP2        0.0000 
     52 CA         14.3980   29.1495   19.6460 C.3       3 GLC5        0.0000 
     53 CA         13.5910   29.2040   21.3810 C.3       9 GLL5        0.0000 
     54 CA         15.2050   29.0950   17.9110 C.3       6 GLP5        0.0000 
     55 N          10.7465   29.9195   22.2760 N.am      2 SEC2        0.0000 
     56 N          12.1110   29.8920   23.2020 N.am      8 SEL2        0.0000 
     57 N           9.3820   29.9470   21.3500 N.am      5 SEP2        0.0000 
     58 N          13.2415   32.2050   23.8960 N.am      2 SEC2        0.0000 
     59 N          14.2850   31.6770   22.9660 N.am      8 SEL2        0.0000 
     60 N          12.1980   32.7330   24.8260 N.am      5 SEP2        0.0000 
     61 O          14.8310   32.8705   23.1985 O.2       1 ALC1        0.0000 
     62 O          14.2850   31.6770   22.9660 O.2       7 ALL1        0.0000 
     63 O          15.3770   34.0640   23.4310 O.2       4 ALP1        0.0000 
     64 CA         14.3215   31.5930   24.8220 C.3       3 GLC5        0.0000 
     65 CA         14.5740   30.3020   23.2570 C.3       9 GLL5        0.0000 
     66 CA         14.0690   32.8840   26.3870 C.3       6 GLP5        0.0000 
     67 CA         16.1745   31.1685   23.9380 C.3       3 GLC5        0.0000 
     68 CA         17.7750   32.0350   24.6190 C.3       6 GLP5        0.0000 
     69 CA         16.4725   30.5805   20.8050 C.3       3 GLC5        0.0000 
     70 CA         15.6710   29.8280   22.3140 C.3       9 GLL5        0.0000 
     71 CA         17.2740   31.3330   19.2960 C.3       6 GLP5        0.0000 
     72 CA         16.8835   31.1145   22.8145 C.3       3 GLC5        0.0000 
     73 CA         18.0960   32.4010   23.3150 C.3       6 GLP5        0.0000 
     74 CA         14.6857   20.5210   19.6155 C.3       3 GLC5        0.0000 
     75 CA         16.0630   19.9620   18.2580 C.3       9 GLL5        0.0000 
     76 CA         15.3498   18.3710   16.5250 C.3       3 GLC5        0.0000 
     77 CA         19.9740   24.3158   18.3837 C.3       3 GLC5        0.0000 
     78 CA         18.9620   22.3490   17.9750 C.3       9 GLL5        0.0000 
     79 CA         21.5303   22.8897   20.2520 C.3       3 GLC5        0.0000 
     80 CA         20.0220   22.5120   19.0680 C.3       9 GLL5        0.0000 
     81 CA         23.4370   23.4350   20.8060 C.3       6 GLP5        0.0000 
     82 CA         12.1860   27.8552   22.8480 C.3       3 GLC5        0.0000 
     83 CA         10.8690   26.4120   23.5670 C.3       6 GLP5        0.0000 
@<TRIPOS>BOND
@<TRIPOS>SUBSTRUCTURE
     1 ALC1       19 GROUP        1 X    ALC  0     ROOT ALC X 1
     2 SEC2        1 GROUP        1 X    SEC  0     **** SEC X 2
     3 GLC5        4 GROUP        1 X    GLC  0     **** GLC X 6
     4 ALP1       21 GROUP        1 Y    ALP  0     ROOT ALP Y 8
     5 SEP2        3 GROUP        1 Y    SEP  0     **** SEP Y 9
     6 GLP5        6 GROUP        1 Y    GLP  0     **** GLP Y 13
     7 ALL1       20 GROUP        1 Z    ALL  0     ROOT ALL Z 15
     8 SEL2        2 GROUP        1 Z    SEL  0     **** SEL Z 16
     9 GLL5        5 GROUP        1 Z    GLL  0     **** GLL Z 20
@<TRIPOS>SET

