#    Name: 2fav_APR_1_ligand
#    Modification time : Tue Mar 25 12:26:06 2014

@<TRIPOS>MOLECULE
2fav_APR_1_ligand
   57    60     1     0     0
SMALL
NO_CHARGES


@<TRIPOS>ATOM
      1 N1         14.2340   17.9390   18.2740 N.ar      1 APR477      0.0000 
      2 C2         15.5040   17.7150   18.6810 C.ar      1 APR477      0.0000 
      3 N3         16.4330   18.7010   18.6690 N.ar      1 APR477      0.0000 
      4 C4         16.0630   19.9620   18.2580 C.ar      1 APR477      0.0000 
      5 C5         14.6970   20.2740   17.8400 C.ar      1 APR477      0.0000 
      6 C6         13.7590   19.1460   17.8750 C.ar      1 APR477      0.0000 
      7 N6         12.4600   19.3350   17.5230 N.pl3     1 APR477      0.0000 
      8 N7         14.6530   21.6060   17.5230 N.2       1 APR477      0.0000 
      9 C8         15.9040   22.0900   17.7090 C.2       1 APR477      0.0000 
     10 N9         16.7390   21.1030   18.1260 N.pl3     1 APR477      0.0000 
     11 C1'        18.1590   21.1720   18.5100 C.3       1 APR477      0.0000 
     12 C2'        18.9620   22.3490   17.9750 C.3       1 APR477      0.0000 
     13 O2'        19.5290   22.0250   16.7070 O.3       1 APR477      0.0000 
     14 C3'        20.0220   22.5120   19.0680 C.3       1 APR477      0.0000 
     15 O3'        21.0800   21.5090   18.9500 O.3       1 APR477      0.0000 
     16 O4'        18.1080   21.3810   19.9160 O.3       1 APR477      0.0000 
     17 C4'        19.2250   22.1770   20.3280 C.3       1 APR477      0.0000 
     18 C5'        18.7710   23.4590   21.0630 C.3       1 APR477      0.0000 
     19 O5'        18.2330   24.3760   20.0980 O.3       1 APR477      0.0000 
     20 PA         17.1260   25.4600   20.5070 P.3       1 APR477      0.0000 
     21 O1A        15.8560   24.7160   20.8190 O.co2     1 APR477      0.0000 
     22 O2A        17.1580   26.4940   19.3890 O.co2     1 APR477      0.0000 
     23 O3A        17.6080   26.0210   21.9310 O.3       1 APR477      0.0000 
     24 PB         18.5780   27.2390   22.3500 P.3       1 APR477      0.0000 
     25 O1B        18.8830   27.0020   23.8200 O.co2     1 APR477      0.0000 
     26 O2B        19.7190   27.3690   21.3720 O.co2     1 APR477      0.0000 
     27 O5D        17.6760   28.5410   22.1180 O.3       1 APR477      0.0000 
     28 C5D        16.6070   28.8610   23.0220 C.3       1 APR477      0.0000 
     29 O4D        15.0200   29.1310   21.2530 O.3       1 APR477      0.0000 
     30 O1D        12.9910   27.9960   20.9500 O.3       1 APR477      0.0000 
     31 C1D        13.5910   29.2040   21.3810 C.3       1 APR477      0.0000 
     32 O2D        12.1110   29.8920   23.2020 O.3       1 APR477      0.0000 
     33 C2D        13.4150   29.3930   22.8770 C.3       1 APR477      0.0000 
     34 O3D        14.2850   31.6770   22.9660 O.3       1 APR477      0.0000 
     35 C3D        14.5740   30.3020   23.2570 C.3       1 APR477      0.0000 
     36 C4D        15.6710   29.8280   22.3140 C.3       1 APR477      0.0000 
     37 H          15.7769   16.7571   19.0135 H         1 APR477      0.0000 
     38 H          11.8595   18.5406   17.6137 H         1 APR477      0.0000 
     39 H          12.2194   20.2519   17.2044 H         1 APR477      0.0000 
     40 H          16.1708   23.0181   17.5643 H         1 APR477      0.0000 
     41 H          18.6619   20.2626   18.3017 H         1 APR477      0.0000 
     42 H          18.3429   23.1995   17.9800 H         1 APR477      0.0000 
     43 H          20.3489   23.4834   19.1160 H         1 APR477      0.0000 
     44 H          19.8729   21.6173   20.9876 H         1 APR477      0.0000 
     45 H          19.6402   23.8692   21.5750 H         1 APR477      0.0000 
     46 H          18.0298   23.1668   21.8054 H         1 APR477      0.0000 
     47 H          16.9753   29.3432   23.9253 H         1 APR477      0.0000 
     48 H          16.0369   27.9766   23.2993 H         1 APR477      0.0000 
     49 H          13.2177   30.0654   20.8960 H         1 APR477      0.0000 
     50 H          13.6100   28.4207   23.3320 H         1 APR477      0.0000 
     51 H          14.8649   30.1122   24.2368 H         1 APR477      0.0000 
     52 H          16.2152   30.6636   21.9617 H         1 APR477      0.0000 
     53 H          20.4172   21.6166   16.9175 H         1 APR477      0.0000 
     54 H          21.9237   21.9950   19.1779 H         1 APR477      0.0000 
     55 H          12.9844   27.4075   21.7585 H         1 APR477      0.0000 
     56 H          12.1484   30.8691   22.9927 H         1 APR477      0.0000 
     57 H          15.0291   32.1931   23.3902 H         1 APR477      0.0000 
@<TRIPOS>BOND
     1    2    1 ar   
     2    6    1 ar   
     3    3    2 ar   
     4   37    2 1    
     5    4    3 ar   
     6    5    4 ar   
     7   10    4 1    
     8    6    5 ar   
     9    8    5 1    
    10    7    6 1    
    11   38    7 1    
    12   39    7 1    
    13    9    8 2    
    14   10    9 1    
    15   40    9 1    
    16   11   10 1    
    17   12   11 1    
    18   16   11 1    
    19   41   11 1    
    20   13   12 1    
    21   14   12 1    
    22   42   12 1    
    23   53   13 1    
    24   15   14 1    
    25   17   14 1    
    26   43   14 1    
    27   54   15 1    
    28   17   16 1    
    29   18   17 1    
    30   44   17 1    
    31   19   18 1    
    32   45   18 1    
    33   46   18 1    
    34   20   19 1    
    35   21   20 ar   
    36   22   20 ar   
    37   23   20 1    
    38   24   23 1    
    39   25   24 ar   
    40   26   24 ar   
    41   27   24 1    
    42   28   27 1    
    43   36   28 1    
    44   47   28 1    
    45   48   28 1    
    46   31   29 1    
    47   36   29 1    
    48   31   30 1    
    49   55   30 1    
    50   33   31 1    
    51   49   31 1    
    52   33   32 1    
    53   56   32 1    
    54   35   33 1    
    55   50   33 1    
    56   35   34 1    
    57   57   34 1    
    58   36   35 1    
    59   51   35 1    
    60   52   36 1    
@<TRIPOS>SUBSTRUCTURE
     1 APR477      1 GROUP   
@<TRIPOS>SET

