#    Name: 9ldb_NAD_2_INTS_M
#    Modification time : Tue Mar 25 14:01:19 2014

@<TRIPOS>MOLECULE
9ldb_NAD_2_INTS_M
   97     0    12     0     0
SMALL
NO_CHARGES


@<TRIPOS>ATOM
      1 NZ          4.8545   28.3730    5.0845 N.4       3 LYC4        0.0000 
      2 NZ          3.7490   27.4440    6.4650 N.4      11 LYL4        0.0000 
      3 NZ          5.9600   29.3020    3.7040 N.4       7 LYP4        0.0000 
      4 N           3.2775   26.0385    6.0500 N.am      2 SEC2        0.0000 
      5 N           3.7490   27.4440    6.4650 N.am     10 SEL2        0.0000 
      6 N           2.8060   24.6330    5.6350 N.am      6 SEP2        0.0000 
      7 CA          2.7330   25.0560   12.2910 C.3       4 GLC5        0.0000 
      8 CA          3.3410   26.9050   11.2630 C.3      12 GLL5        0.0000 
      9 CA          2.1250   23.2070   13.3190 C.3       8 GLP5        0.0000 
     10 CA          2.4805   25.9160    9.5120 C.3       4 GLC5        0.0000 
     11 CA          1.6200   24.9270    7.7610 C.3       8 GLP5        0.0000 
     12 CA          4.7210   25.8925   12.6155 C.3       4 GLC5        0.0000 
     13 CA          6.1010   24.8800   13.9680 C.3       8 GLP5        0.0000 
     14 N           5.5165   27.0760   13.0465 N.am      2 SEC2        0.0000 
     15 N           3.8960   27.1370   12.5820 N.am     10 SEL2        0.0000 
     16 N           7.1370   27.0150   13.5110 N.am      6 SEP2        0.0000 
     17 O           0.5505   26.6530   11.8195 O.2       1 ALC1        0.0000 
     18 O           0.9730   27.4610   10.8240 O.2       9 ALL1        0.0000 
     19 O           0.1280   25.8450   12.8150 O.2       5 ALP1        0.0000 
     20 CA          0.1340   29.4795   12.5500 C.3       4 GLC5        0.0000 
     21 CA          2.1710   28.6630   12.4810 C.3      12 GLL5        0.0000 
     22 CA         -1.9030   30.2960   12.6190 C.3       8 GLP5        0.0000 
     23 O           0.1230   28.2820   13.4910 O.2       1 ALC1        0.0000 
     24 O           0.9540   29.1420   12.9800 O.2       9 ALL1        0.0000 
     25 O          -0.7080   27.4220   14.0020 O.2       5 ALP1        0.0000 
     26 O           0.5410   27.4935   12.8975 O.2       1 ALC1        0.0000 
     27 CA          4.4905   26.2870   13.6660 C.3       4 GLC5        0.0000 
     28 CA          2.8800   27.6940   13.3640 C.3      12 GLL5        0.0000 
     29 CA          1.5825   28.1545   18.6365 C.3       4 GLC5        0.0000 
     30 CA          3.1530   27.4580   18.1820 C.3      12 GLL5        0.0000 
     31 CA          0.0120   28.8510   19.0910 C.3       8 GLP5        0.0000 
     32 CA          3.8910   26.1645   19.5825 C.3       4 GLC5        0.0000 
     33 CA          4.6290   24.8710   20.9830 C.3       8 GLP5        0.0000 
     34 CA          2.9595   23.7485   17.2735 C.3       4 GLC5        0.0000 
     35 CA          2.1150   25.6790   16.9890 C.3      12 GLL5        0.0000 
     36 CA          3.8040   21.8180   17.5580 C.3       8 GLP5        0.0000 
     37 CA          2.1200   24.4430   15.1540 C.3       4 GLC5        0.0000 
     38 CA          0.3335   25.4460   16.4390 C.3       4 GLC5        0.0000 
     39 CA         -1.4480   25.2130   15.8890 C.3       8 GLP5        0.0000 
     40 CA          1.0635   27.2650   18.0400 C.3       4 GLC5        0.0000 
     41 CA          3.8145   25.2110   16.1945 C.3       4 GLC5        0.0000 
     42 CA          5.5140   24.7430   15.4000 C.3       8 GLP5        0.0000 
     43 NZ          5.9525   27.1025    4.7470 N.4       3 LYC4        0.0000 
     44 NZ          6.5750   26.0590    5.5760 N.4      11 LYL4        0.0000 
     45 N           5.9525   27.1025    4.7470 N.am      2 SEC2        0.0000 
     46 N           6.5750   26.0590    5.5760 N.am     10 SEL2        0.0000 
     47 N           5.3300   28.1460    3.9180 N.am      6 SEP2        0.0000 
     48 N           5.1155   23.6210    6.5380 N.am      2 SEC2        0.0000 
     49 N           5.5270   24.7570    7.2730 N.am     10 SEL2        0.0000 
     50 N           4.7040   22.4850    5.8030 N.am      6 SEP2        0.0000 
     51 CA          7.3075   23.4765    8.0015 C.3       4 GLC5        0.0000 
     52 CA          7.8540   25.3430    9.1290 C.3      12 GLL5        0.0000 
     53 CA          6.7610   21.6100    6.8740 C.3       8 GLP5        0.0000 
     54 CA         10.4810   24.0045   11.0185 C.3       4 GLC5        0.0000 
     55 CA          9.2330   25.0470    9.6480 C.3      12 GLL5        0.0000 
     56 CA         11.7290   22.9620   12.3890 C.3       8 GLP5        0.0000 
     57 CA         10.4875   27.8500    8.6175 C.3       4 GLC5        0.0000 
     58 CA         10.2970   26.1550    9.3850 C.3      12 GLL5        0.0000 
     59 CA         10.6780   29.5450    7.8500 C.3       8 GLP5        0.0000 
     60 N          12.2865   25.3360   11.0110 N.am      2 SEC2        0.0000 
     61 N          11.1130   26.3260   10.5570 N.am     10 SEL2        0.0000 
     62 N          13.4600   24.3460   11.4650 N.am      6 SEP2        0.0000 
     63 O          11.1430   27.7495   10.6590 O.2       1 ALC1        0.0000 
     64 O          11.1130   26.3260   10.5570 O.2       9 ALL1        0.0000 
     65 O          11.1730   29.1730   10.7610 O.2       5 ALP1        0.0000 
     66 CA         10.4820   27.2010    7.4960 C.3       4 GLC5        0.0000 
     67 CA         11.1240   25.5420    8.2570 C.3      12 GLL5        0.0000 
     68 CA          9.8400   28.8600    6.7350 C.3       8 GLP5        0.0000 
     69 N          13.6865   25.0880    7.8735 N.am      2 SEC2        0.0000 
     70 N          12.4940   25.8750    8.1660 N.am     10 SEL2        0.0000 
     71 N          14.8790   24.3010    7.5810 N.am      6 SEP2        0.0000 
     72 CA         11.3770   23.5000   10.4600 C.3       4 GLC5        0.0000 
     73 CA         11.0250   24.0380    8.5310 C.3      12 GLL5        0.0000 
     74 CA         11.7660   19.5655    6.4385 C.3       4 GLC5        0.0000 
     75 CA         12.8510   21.3140    6.8710 C.3      12 GLL5        0.0000 
     76 CA         10.6810   17.8170    6.0060 C.3       8 GLP5        0.0000 
     77 O          13.5080   20.5700    9.5285 O.2       1 ALC1        0.0000 
     78 O          14.2670   20.0320    8.4300 O.2       9 ALL1        0.0000 
     79 O          12.7490   21.1080   10.6270 O.2       5 ALP1        0.0000 
     80 CA          1.5615   28.9857   16.6878 C.3       4 GLC5        0.0000 
     81 CA          2.9470   27.3790   15.8390 C.3      12 GLL5        0.0000 
     82 CA         -0.0130   30.2250   16.9850 C.3       8 GLP5        0.0000 
     83 CA          4.3250   26.2447   15.8953 C.3       4 GLC5        0.0000 
     84 CA          3.3250   28.1140   16.9420 C.3      12 GLL5        0.0000 
     85 CA          5.2525   27.6490   17.9305 C.3       4 GLC5        0.0000 
     86 CA          7.2660   27.5120   18.2990 C.3       8 GLP5        0.0000 
     87 CA         12.9838   25.0665    9.0945 C.3       4 GLC5        0.0000 
     88 CA         14.8930   25.3430    9.7950 C.3       8 GLP5        0.0000 
     89 CA         11.5683   20.4592    8.3867 C.3       4 GLC5        0.0000 
     90 CA         12.3800   22.1650    7.8220 C.3      12 GLL5        0.0000 
     91 CA         10.5210   19.1790    9.4270 C.3       8 GLP5        0.0000 
     92 CA         10.7490   20.6208    4.8933 C.3       4 GLC5        0.0000 
     93 CA         12.4930   21.4090    5.5090 C.3      12 GLL5        0.0000 
     94 CA          9.4650   19.3380    4.4130 C.3       8 GLP5        0.0000 
     95 CA          9.4917   22.5742    5.7562 C.3       4 GLC5        0.0000 
     96 CA         11.5730   22.3980    5.2380 C.3      12 GLL5        0.0000 
     97 CA          7.6470   22.2870    5.8250 C.3       8 GLP5        0.0000 
@<TRIPOS>BOND
@<TRIPOS>SUBSTRUCTURE
     1 ALC1       17 GROUP        1 X    ALC  0     ROOT ALC X 1
     2 SEC2        4 GROUP        1 X    SEC  0     **** SEC X 2
     3 LYC4        1 GROUP        1 X    LYC  0     **** LYC X 4
     4 GLC5        7 GROUP        1 X    GLC  0     **** GLC X 6
     5 ALP1       19 GROUP        1 Y    ALP  0     ROOT ALP Y 8
     6 SEP2        6 GROUP        1 Y    SEP  0     **** SEP Y 9
     7 LYP4        3 GROUP        1 Y    LYP  0     **** LYP Y 11
     8 GLP5        9 GROUP        1 Y    GLP  0     **** GLP Y 13
     9 ALL1       18 GROUP        1 Z    ALL  0     ROOT ALL Z 15
    10 SEL2        5 GROUP        1 Z    SEL  0     **** SEL Z 16
    11 LYL4        2 GROUP        1 Z    LYL  0     **** LYL Z 18
    12 GLL5        8 GROUP        1 Z    GLL  0     **** GLL Z 20
@<TRIPOS>SET

