#    Name: 9ldb_NAD_2_ligand
#    Modification time : Tue Mar 25 14:01:19 2014

@<TRIPOS>MOLECULE
9ldb_NAD_2_ligand
   69    73     1     0     0
SMALL
NO_CHARGES


@<TRIPOS>ATOM
      1 PA          4.5640   27.8060    7.6220 P.3       1 NAD401      0.0000 
      2 O1A         3.7490   27.4440    6.4650 O.co2     1 NAD401      0.0000 
      3 O2A         4.5820   29.2860    7.5830 O.co2     1 NAD401      0.0000 
      4 O5B         3.9790   27.2190    8.9520 O.3       1 NAD401      0.0000 
      5 C5B         4.5210   27.2820   10.2990 C.3       1 NAD401      0.0000 
      6 C4B         3.3410   26.9050   11.2630 C.3       1 NAD401      0.0000 
      7 O4B         3.8960   27.1370   12.5820 O.3       1 NAD401      0.0000 
      8 C3B         2.2520   28.0000   11.1110 C.3       1 NAD401      0.0000 
      9 O3B         0.9730   27.4610   10.8240 O.3       1 NAD401      0.0000 
     10 C2B         2.1710   28.6630   12.4810 C.3       1 NAD401      0.0000 
     11 O2B         0.9540   29.1420   12.9800 O.3       1 NAD401      0.0000 
     12 C1B         2.8800   27.6940   13.3640 C.3       1 NAD401      0.0000 
     13 N9A         3.2300   28.1680   14.6960 N.pl3     1 NAD401      0.0000 
     14 C8A         3.8500   29.2720   15.1460 C.2       1 NAD401      0.0000 
     15 N7A         3.9100   29.2650   16.4790 N.2       1 NAD401      0.0000 
     16 C5A         3.3250   28.1140   16.9420 C.ar      1 NAD401      0.0000 
     17 C6A         3.1530   27.4580   18.1820 C.ar      1 NAD401      0.0000 
     18 N6A         3.4480   27.7400   19.4600 N.pl3     1 NAD401      0.0000 
     19 N1A         2.5320   26.2130   18.1650 N.ar      1 NAD401      0.0000 
     20 C2A         2.1150   25.6790   16.9890 C.ar      1 NAD401      0.0000 
     21 N3A         2.3420   26.1690   15.8360 N.ar      1 NAD401      0.0000 
     22 C4A         2.9470   27.3790   15.8390 C.ar      1 NAD401      0.0000 
     23 O3          5.9980   27.1250    7.7070 O.3       1 NAD401      0.0000 
     24 PN          6.5990   25.7770    7.0030 P.3       1 NAD401      0.0000 
     25 O1N         6.5750   26.0590    5.5760 O.co2     1 NAD401      0.0000 
     26 O2N         5.5270   24.7570    7.2730 O.co2     1 NAD401      0.0000 
     27 O5D         7.9580   25.6740    7.7090 O.3       1 NAD401      0.0000 
     28 C5D         7.8540   25.3430    9.1290 C.3       1 NAD401      0.0000 
     29 C4D         9.2330   25.0470    9.6480 C.3       1 NAD401      0.0000 
     30 O4D         9.7170   23.8380    8.9600 O.3       1 NAD401      0.0000 
     31 C3D        10.2970   26.1550    9.3850 C.3       1 NAD401      0.0000 
     32 O3D        11.1130   26.3260   10.5570 O.3       1 NAD401      0.0000 
     33 C2D        11.1240   25.5420    8.2570 C.3       1 NAD401      0.0000 
     34 O2D        12.4940   25.8750    8.1660 O.3       1 NAD401      0.0000 
     35 C1D        11.0250   24.0380    8.5310 C.3       1 NAD401      0.0000 
     36 N1N        11.5490   23.1870    7.4870 N.pl3     1 NAD401      0.0000 
     37 C2N        12.3800   22.1650    7.8220 C.ar      1 NAD401      0.0000 
     38 C3N        12.8510   21.3140    6.8710 C.ar      1 NAD401      0.0000 
     39 C7N        13.9220   20.1710    7.1330 C.2       1 NAD401      0.0000 
     40 O7N        14.4000   19.6180    6.1370 O.2       1 NAD401      0.0000 
     41 N7N        14.2670   20.0320    8.4300 N.am      1 NAD401      0.0000 
     42 C4N        12.4930   21.4090    5.5090 C.ar      1 NAD401      0.0000 
     43 C5N        11.5730   22.3980    5.2380 C.ar      1 NAD401      0.0000 
     44 C6N        11.1000   23.3250    6.1370 C.ar      1 NAD401      0.0000 
     45 H           4.8456   28.2725   10.5595 H         1 NAD401      0.0000 
     46 H           5.3054   26.5644   10.4544 H         1 NAD401      0.0000 
     47 H           2.9992   25.9927   11.0952 H         1 NAD401      0.0000 
     48 H           2.5863   28.7171   10.4152 H         1 NAD401      0.0000 
     49 H           2.9285   29.5313   12.3970 H         1 NAD401      0.0000 
     50 H           2.0947   26.8482   13.5072 H         1 NAD401      0.0000 
     51 H           4.2079   29.9831   14.5689 H         1 NAD401      0.0000 
     52 H           1.5418   24.7559   17.0742 H         1 NAD401      0.0000 
     53 H           7.2238   24.4673    9.2751 H         1 NAD401      0.0000 
     54 H           7.4350   26.1773    9.6892 H         1 NAD401      0.0000 
     55 H           9.2022   24.8547   10.7048 H         1 NAD401      0.0000 
     56 H           9.8165   27.0046    9.0484 H         1 NAD401      0.0000 
     57 H          10.5850   25.6967    7.3266 H         1 NAD401      0.0000 
     58 H          11.6993   23.9136    9.4579 H         1 NAD401      0.0000 
     59 H          12.6596   22.0314    8.8179 H         1 NAD401      0.0000 
     60 H          14.9713   19.3500    8.6273 H         1 NAD401      0.0000 
     61 H          13.7878   20.6233    9.0786 H         1 NAD401      0.0000 
     62 H          12.8773   20.8120    4.8249 H         1 NAD401      0.0000 
     63 H          11.1919   22.4488    4.2354 H         1 NAD401      0.0000 
     64 H          10.4760   24.0642    5.8862 H         1 NAD401      0.0000 
     65 H           0.7569   26.8770   11.6065 H         1 NAD401      0.0000 
     66 H           0.4663   28.3286   13.2969 H         1 NAD401      0.0000 
     67 H           2.9100   27.0917   19.9988 H         1 NAD401      0.0000 
     68 H          11.6166   27.1755   10.3999 H         1 NAD401      0.0000 
     69 H          12.5365   26.6142    7.4939 H         1 NAD401      0.0000 
@<TRIPOS>BOND
     1    2    1 ar   
     2    3    1 ar   
     3    4    1 1    
     4   23    1 1    
     5    5    4 1    
     6    6    5 1    
     7   45    5 1    
     8   46    5 1    
     9    7    6 1    
    10    8    6 1    
    11   47    6 1    
    12   12    7 1    
    13    9    8 1    
    14   10    8 1    
    15   48    8 1    
    16   65    9 1    
    17   11   10 1    
    18   12   10 1    
    19   49   10 1    
    20   66   11 1    
    21   13   12 1    
    22   50   12 1    
    23   14   13 1    
    24   22   13 1    
    25   15   14 2    
    26   51   14 1    
    27   16   15 1    
    28   17   16 ar   
    29   22   16 ar   
    30   18   17 1    
    31   19   17 ar   
    32   67   18 1    
    33   20   19 ar   
    34   21   20 ar   
    35   52   20 1    
    36   22   21 ar   
    37   24   23 1    
    38   25   24 ar   
    39   26   24 ar   
    40   27   24 1    
    41   28   27 1    
    42   29   28 1    
    43   53   28 1    
    44   54   28 1    
    45   30   29 1    
    46   31   29 1    
    47   55   29 1    
    48   35   30 1    
    49   32   31 1    
    50   33   31 1    
    51   56   31 1    
    52   68   32 1    
    53   34   33 1    
    54   35   33 1    
    55   57   33 1    
    56   69   34 1    
    57   36   35 1    
    58   58   35 1    
    59   37   36 ar   
    60   44   36 ar   
    61   38   37 ar   
    62   59   37 1    
    63   39   38 1    
    64   42   38 ar   
    65   40   39 2    
    66   41   39 am   
    67   60   41 1    
    68   61   41 1    
    69   43   42 ar   
    70   62   42 1    
    71   44   43 ar   
    72   63   43 1    
    73   64   44 1    
@<TRIPOS>SUBSTRUCTURE
     1 NAD401      1 GROUP   
@<TRIPOS>SET

