#    Name: 2yiu_SMA_2_INTS_M
#    Modification time : Tue Mar 25 09:22:53 2014

@<TRIPOS>MOLECULE
2yiu_SMA_2_INTS_M
  123     0     9     0     0
SMALL
NO_CHARGES


@<TRIPOS>ATOM
      1 CA         -7.5895  -38.9080    5.7225 C.3       3 GLC5        0.0000 
      2 CA         -9.2510  -39.6450    6.9250 C.3       9 GLL5        0.0000 
      3 CA         -5.9280  -38.1710    4.5200 C.3       6 GLP5        0.0000 
      4 CA        -10.7320  -39.9680    8.5745 C.3       3 GLC5        0.0000 
      5 CA        -12.2130  -40.2910   10.2240 C.3       6 GLP5        0.0000 
      6 CA        -10.1365  -38.5200    9.4460 C.3       3 GLC5        0.0000 
      7 CA         -8.8430  -39.0600    8.1230 C.3       9 GLL5        0.0000 
      8 CA        -11.4300  -37.9800   10.7690 C.3       6 GLP5        0.0000 
      9 CA         -9.8910  -40.5945   10.1930 C.3       3 GLC5        0.0000 
     10 CA         -8.2570  -39.9330    9.2270 C.3       9 GLL5        0.0000 
     11 CA        -11.5250  -41.2560   11.1590 C.3       6 GLP5        0.0000 
     12 CA         -7.7035  -41.5090    9.6765 C.3       3 GLC5        0.0000 
     13 CA         -7.1500  -43.0850   10.1260 C.3       6 GLP5        0.0000 
     14 CA         -9.4510  -32.3485   10.1115 C.3       3 GLC5        0.0000 
     15 CA         -9.9710  -33.6040    8.9840 C.3       9 GLL5        0.0000 
     16 CA         -8.9310  -31.0930   11.2390 C.3       6 GLP5        0.0000 
     17 CA         -8.2505  -33.2530    8.4400 C.3       3 GLC5        0.0000 
     18 CA         -6.5300  -32.9020    7.8960 C.3       6 GLP5        0.0000 
     19 CA        -11.3425  -31.8335    8.9860 C.3       3 GLC5        0.0000 
     20 CA        -12.7140  -30.0630    8.9880 C.3       6 GLP5        0.0000 
     21 CA        -10.8090  -35.1615   10.1220 C.3       3 GLC5        0.0000 
     22 CA        -11.6470  -36.7190   11.2600 C.3       6 GLP5        0.0000 
     23 CA         -8.2070  -34.5020    6.9085 C.3       3 GLC5        0.0000 
     24 CA        -10.3690  -34.7940    6.5140 C.3       9 GLL5        0.0000 
     25 CA         -6.0450  -34.2100    7.3030 C.3       6 GLP5        0.0000 
     26 CA        -12.5565  -36.0955    5.6080 C.3       3 GLC5        0.0000 
     27 CA        -10.8090  -35.4100    5.3500 C.3       9 GLL5        0.0000 
     28 CA        -14.3040  -36.7810    5.8660 C.3       6 GLP5        0.0000 
     29 CA        -13.1575  -31.9960    3.9155 C.3       3 GLC5        0.0000 
     30 CA        -11.6540  -33.3060    4.5870 C.3       9 GLL5        0.0000 
     31 CA        -14.6610  -30.6860    3.2440 C.3       6 GLP5        0.0000 
     32 CA         -9.8095  -33.4785    3.7760 C.3       3 GLC5        0.0000 
     33 CA         -7.9650  -33.6510    2.9650 C.3       6 GLP5        0.0000 
     34 CA        -12.1305  -32.0620    5.6060 C.3       3 GLC5        0.0000 
     35 CA        -12.6070  -30.8180    6.6250 C.3       6 GLP5        0.0000 
     36 CA        -12.1685  -37.2965    5.9945 C.3       3 GLC5        0.0000 
     37 CA        -10.6040  -36.7700    5.1740 C.3       9 GLL5        0.0000 
     38 CA        -13.7330  -37.8230    6.8150 C.3       6 GLP5        0.0000 
     39 CA        -11.6275  -37.2730    7.0545 C.3       3 GLC5        0.0000 
     40 CA         -9.9840  -37.5310    6.1710 C.3       9 GLL5        0.0000 
     41 CA        -13.2710  -37.0150    7.9380 C.3       6 GLP5        0.0000 
     42 CA        -11.0730  -41.4605    5.8820 C.3       3 GLC5        0.0000 
     43 CA         -9.2840  -41.1680    6.6480 C.3       9 GLL5        0.0000 
     44 CA        -12.8620  -41.7530    5.1160 C.3       6 GLP5        0.0000 
     45 CA         -7.5655  -42.4685    8.1750 C.3       3 GLC5        0.0000 
     46 CA         -7.9810  -41.8520    6.2240 C.3       9 GLL5        0.0000 
     47 CA         -3.8065  -44.9430    5.3320 C.3       3 GLC5        0.0000 
     48 CA         -4.7740  -43.9380    3.8470 C.3       9 GLL5        0.0000 
     49 CA         -2.8390  -45.9480    6.8170 C.3       6 GLP5        0.0000 
     50 CA         -3.1315  -43.8830    5.2955 C.3       3 GLC5        0.0000 
     51 CA         -3.7670  -43.1190    3.3500 C.3       9 GLL5        0.0000 
     52 CA         -2.4960  -44.6470    7.2410 C.3       6 GLP5        0.0000 
     53 CA         -4.3630  -43.8190    0.2625 C.3       3 GLC5        0.0000 
     54 CA         -3.4230  -43.1500    1.9980 C.3       9 GLL5        0.0000 
     55 CA         -5.3030  -44.4880   -1.4730 C.3       6 GLP5        0.0000 
     56 CA         -0.9355  -42.0090    2.8750 C.3       3 GLC5        0.0000 
     57 CA         -2.4070  -42.3340    1.5050 C.3       9 GLL5        0.0000 
     58 CA          0.5360  -41.6840    4.2450 C.3       6 GLP5        0.0000 
     59 CA         -3.6990  -43.4255   -0.6565 C.3       3 GLC5        0.0000 
     60 CA         -2.0950  -42.3630    0.1600 C.3       9 GLL5        0.0000 
     61 CA          2.0010  -40.2335   -1.1765 C.3       3 GLC5        0.0000 
     62 CA          0.2890  -40.6460   -2.1980 C.3       9 GLL5        0.0000 
     63 CA          3.7130  -39.8210   -0.1550 C.3       6 GLP5        0.0000 
     64 CA          0.0030  -38.7410   -2.5925 C.3       3 GLC5        0.0000 
     65 CA         -0.2830  -36.8360   -2.9870 C.3       6 GLP5        0.0000 
     66 CA          0.8920  -40.9160   -4.1760 C.3       3 GLC5        0.0000 
     67 CA          1.4950  -41.1860   -6.1540 C.3       6 GLP5        0.0000 
     68 CA         -9.3285  -45.7660    4.8420 C.3       3 GLC5        0.0000 
     69 CA         -9.1900  -44.2060    6.0310 C.3       9 GLL5        0.0000 
     70 CA         -9.4670  -47.3260    3.6530 C.3       6 GLP5        0.0000 
     71 CA         -9.9185  -44.7765    7.6505 C.3       3 GLC5        0.0000 
     72 CA        -10.6470  -45.3470    9.2700 C.3       6 GLP5        0.0000 
     73 CA         -7.2675  -47.0620    5.1860 C.3       3 GLC5        0.0000 
     74 CA         -6.2680  -45.5610    6.2660 C.3       9 GLL5        0.0000 
     75 CA         -8.2670  -48.5630    4.1060 C.3       6 GLP5        0.0000 
     76 CA         -5.8145  -44.2790    8.0480 C.3       3 GLC5        0.0000 
     77 CA         -5.3610  -42.9970    9.8300 C.3       6 GLP5        0.0000 
     78 CA         -4.5535  -45.7545    6.5415 C.3       3 GLC5        0.0000 
     79 CA         -6.7605  -47.2820    6.6360 C.3       3 GLC5        0.0000 
     80 CA         -7.2530  -49.0030    7.0060 C.3       6 GLP5        0.0000 
     81 CA         -6.8360  -41.4680    1.2275 C.3       3 GLC5        0.0000 
     82 CA         -6.5450  -42.4300    2.8360 C.3       9 GLL5        0.0000 
     83 CA         -7.1270  -40.5060   -0.3810 C.3       6 GLP5        0.0000 
     84 CA         -8.4925  -42.4345    2.2335 C.3       3 GLC5        0.0000 
     85 CA        -10.4400  -42.4390    1.6310 C.3       6 GLP5        0.0000 
     86 CA         -4.1820  -47.7620    3.0610 C.3       3 GLC5        0.0000 
     87 CA         -4.3810  -46.0560    2.7610 C.3       9 GLL5        0.0000 
     88 CA         -3.9830  -49.4680    3.3610 C.3       6 GLP5        0.0000 
     89 CA         -6.3350  -46.2195    2.0540 C.3       3 GLC5        0.0000 
     90 CA         -8.2890  -46.3830    1.3470 C.3       6 GLP5        0.0000 
     91 CA         -3.6100  -46.0020    4.7890 C.3       3 GLC5        0.0000 
     92 CA          0.1140  -41.1190    2.3630 C.3       3 GLC5        0.0000 
     93 CA         -0.3080  -40.5540    0.4810 C.3       9 GLL5        0.0000 
     94 CA          1.7025  -40.1875    0.1630 C.3       3 GLC5        0.0000 
     95 N          -8.4070  -36.3740   10.5440 N.am      2 SEC2        0.0000 
     96 N          -8.5420  -37.1450    9.3570 N.am      8 SEL2        0.0000 
     97 N          -8.2720  -35.6030   11.7310 N.am      5 SEP2        0.0000 
     98 O         -11.9315  -37.3120    3.2940 O.2       1 ALC1        0.0000 
     99 O         -11.0390  -37.3840    4.0450 O.2       7 ALL1        0.0000 
    100 O         -12.8240  -37.2400    2.5430 O.2       4 ALP1        0.0000 
    101 CA         -8.2300  -45.5660    4.2865 C.3       3 GLC5        0.0000 
    102 CA         -6.9930  -43.8060    4.9200 C.3       9 GLL5        0.0000 
    103 CA         -7.9325  -35.7945    7.8602 C.3       3 GLC5        0.0000 
    104 CA         -9.5350  -36.8990    7.3460 C.3       9 GLL5        0.0000 
    105 CA         -6.2240  -35.3800    8.2820 C.3       6 GLP5        0.0000 
    106 CA         -9.2770  -34.3765    4.4485 C.3       3 GLC5        0.0000 
    107 CA        -11.6380  -36.2582    7.4571 C.3       3 GLC5        0.0000 
    108 CA         -8.6390  -37.6448    4.5678 C.3       3 GLC5        0.0000 
    109 CA         -6.9840  -38.1390    3.4630 C.3       6 GLP5        0.0000 
    110 CA        -10.2255  -43.4905    4.5873 C.3       3 GLC5        0.0000 
    111 CA         -8.2980  -43.1340    5.3560 C.3       9 GLL5        0.0000 
    112 CA        -11.7070  -43.3110    3.4810 C.3       6 GLP5        0.0000 
    113 CA         -3.4425  -41.0011    2.8613 C.3       3 GLC5        0.0000 
    114 CA         -3.8840  -39.2680    3.6330 C.3       6 GLP5        0.0000 
    115 CA         -3.6430  -41.1098    0.4144 C.3       3 GLC5        0.0000 
    116 CA         -4.7810  -39.6670   -0.1270 C.3       6 GLP5        0.0000 
    117 CA         -2.2855  -39.8435    0.0727 C.3       3 GLC5        0.0000 
    118 CA         -1.1220  -41.5300   -0.3720 C.3       9 GLL5        0.0000 
    119 CA         -3.8560  -38.6450    0.0910 C.3       6 GLP5        0.0000 
    120 CA         -1.4195  -40.9718   -3.4415 C.3       3 GLC5        0.0000 
    121 CA         -0.8270  -41.5830   -1.7220 C.3       9 GLL5        0.0000 
    122 CA         -2.5700  -40.8290   -4.9230 C.3       6 GLP5        0.0000 
    123 CA         -5.0682  -40.9950    3.5555 C.3       3 GLC5        0.0000 
@<TRIPOS>BOND
@<TRIPOS>SUBSTRUCTURE
     1 ALC1       98 GROUP        1 X    ALC  0     ROOT ALC X 1
     2 SEC2       95 GROUP        1 X    SEC  0     **** SEC X 2
     3 GLC5        1 GROUP        1 X    GLC  0     **** GLC X 6
     4 ALP1      100 GROUP        1 Y    ALP  0     ROOT ALP Y 8
     5 SEP2       97 GROUP        1 Y    SEP  0     **** SEP Y 9
     6 GLP5        3 GROUP        1 Y    GLP  0     **** GLP Y 13
     7 ALL1       99 GROUP        1 Z    ALL  0     ROOT ALL Z 15
     8 SEL2       96 GROUP        1 Z    SEL  0     **** SEL Z 16
     9 GLL5        2 GROUP        1 Z    GLL  0     **** GLL Z 20
@<TRIPOS>SET

