#    Name: 2yiu_SMA_2_ligand
#    Modification time : Tue Mar 25 09:22:53 2014

@<TRIPOS>MOLECULE
2yiu_SMA_2_ligand
   79    80     1     0     0
SMALL
NO_CHARGES


@<TRIPOS>ATOM
      1 C2         -9.2510  -39.6450    6.9250 C.2       1 SMA502      0.0000 
      2 C3         -8.8430  -39.0600    8.1230 C.2       1 SMA502      0.0000 
      3 C3M        -8.2570  -39.9330    9.2270 C.3       1 SMA502      0.0000 
      4 C4         -8.9290  -37.6780    8.3170 C.2       1 SMA502      0.0000 
      5 C4A        -9.5350  -36.8990    7.3460 C.ar      1 SMA502      0.0000 
      6 C5         -9.7470  -35.5190    7.5310 C.ar      1 SMA502      0.0000 
      7 C5M        -9.9710  -33.6040    8.9840 C.3       1 SMA502      0.0000 
      8 C6        -10.3690  -34.7940    6.5140 C.ar      1 SMA502      0.0000 
      9 C7        -10.8090  -35.4100    5.3500 C.ar      1 SMA502      0.0000 
     10 C7M       -11.6540  -33.3060    4.5870 C.3       1 SMA502      0.0000 
     11 C8        -10.6040  -36.7700    5.1740 C.ar      1 SMA502      0.0000 
     12 C8A        -9.9840  -37.5310    6.1710 C.ar      1 SMA502      0.0000 
     13 C9         -9.2840  -41.1680    6.6480 C.3       1 SMA502      0.0000 
     14 C10        -7.9810  -41.8520    6.2240 C.3       1 SMA502      0.0000 
     15 C11        -8.2980  -43.1340    5.3560 C.3       1 SMA502      0.0000 
     16 C14        -4.7740  -43.9380    3.8470 C.3       1 SMA502      0.0000 
     17 C15        -3.7670  -43.1190    3.3500 C.2       1 SMA502      0.0000 
     18 C16        -3.4230  -43.1500    1.9980 C.2       1 SMA502      0.0000 
     19 C17        -2.4070  -42.3340    1.5050 C.2       1 SMA502      0.0000 
     20 C18        -2.0950  -42.3630    0.1600 C.2       1 SMA502      0.0000 
     21 C19        -1.1220  -41.5300   -0.3720 C.2       1 SMA502      0.0000 
     22 C20        -0.8270  -41.5830   -1.7220 C.2       1 SMA502      0.0000 
     23 C21         0.2890  -40.6460   -2.1980 C.3       1 SMA502      0.0000 
     24 C22        -9.1900  -44.2060    6.0310 C.3       1 SMA502      0.0000 
     25 C23        -6.2680  -45.5610    6.2660 C.3       1 SMA502      0.0000 
     26 C24        -6.5450  -42.4300    2.8360 C.3       1 SMA502      0.0000 
     27 C25        -4.3810  -46.0560    2.7610 C.3       1 SMA502      0.0000 
     28 C26        -0.3080  -40.5540    0.4810 C.3       1 SMA502      0.0000 
     29 O1         -9.8270  -38.8700    5.9490 O.3       1 SMA502      0.0000 
     30 O4         -8.5420  -37.1450    9.3570 O.2       1 SMA502      0.0000 
     31 O5         -9.3310  -34.8780    8.6770 O.3       1 SMA502      0.0000 
     32 O7        -11.4410  -34.7240    4.3690 O.3       1 SMA502      0.0000 
     33 O8        -11.0390  -37.3840    4.0450 O.3       1 SMA502      0.0000 
     34 O12        -6.3110  -44.1250    6.1380 O.3       1 SMA502      0.0000 
     35 O14        -5.3110  -44.9980    2.9760 O.3       1 SMA502      0.0000 
     36 C12        -6.9930  -43.8060    4.9200 C.3       1 SMA502      0.0000 
     37 C13        -5.9600  -43.0140    4.1200 C.3       1 SMA502      0.0000 
     38 H         -10.5044  -33.7717    6.6330 H         1 SMA502      0.0000 
     39 H         -10.0594  -41.3598    5.8649 H         1 SMA502      0.0000 
     40 H          -9.6729  -41.6773    7.5648 H         1 SMA502      0.0000 
     41 H          -7.4262  -42.1653    7.0956 H         1 SMA502      0.0000 
     42 H          -7.3871  -41.1787    5.6242 H         1 SMA502      0.0000 
     43 H          -8.8036  -42.7988    4.4430 H         1 SMA502      0.0000 
     44 H          -4.5239  -44.3614    4.8202 H         1 SMA502      0.0000 
     45 H          -3.2657  -42.4787    3.9873 H         1 SMA502      0.0000 
     46 H          -3.9263  -43.7835    1.3582 H         1 SMA502      0.0000 
     47 H          -1.8943  -41.7140    2.1451 H         1 SMA502      0.0000 
     48 H          -2.5978  -43.0212   -0.4682 H         1 SMA502      0.0000 
     49 H          -1.2589  -42.1543   -2.3874 H         1 SMA502      0.0000 
     50 H          -7.2149  -44.7261    4.4044 H         1 SMA502      0.0000 
     51 H          -5.6061  -42.1989    4.7510 H         1 SMA502      0.0000 
     52 H          -7.4323  -40.4108    8.9243 H         1 SMA502      0.0000 
     53 H          -8.0055  -39.3952   10.0317 H         1 SMA502      0.0000 
     54 H          -8.9049  -40.6311    9.5318 H         1 SMA502      0.0000 
     55 H          -9.6159  -33.2041    9.8290 H         1 SMA502      0.0000 
     56 H          -9.8267  -32.9315    8.2582 H         1 SMA502      0.0000 
     57 H         -10.9594  -33.7032    9.0994 H         1 SMA502      0.0000 
     58 H         -10.7913  -32.8155    4.7101 H         1 SMA502      0.0000 
     59 H         -12.1268  -32.8787    3.8164 H         1 SMA502      0.0000 
     60 H         -12.2075  -33.1346    5.4020 H         1 SMA502      0.0000 
     61 H           1.1572  -40.8404   -1.7414 H         1 SMA502      0.0000 
     62 H           0.4499  -40.7296   -3.1814 H         1 SMA502      0.0000 
     63 H           0.0710  -39.6869   -2.0172 H         1 SMA502      0.0000 
     64 H          -9.3507  -44.9881    5.4290 H         1 SMA502      0.0000 
     65 H          -8.7745  -44.5612    6.8684 H         1 SMA502      0.0000 
     66 H         -10.0862  -43.8396    6.2811 H         1 SMA502      0.0000 
     67 H          -5.7878  -45.9879    5.4998 H         1 SMA502      0.0000 
     68 H          -5.7981  -45.8455    7.1016 H         1 SMA502      0.0000 
     69 H          -7.1850  -45.9589    6.2955 H         1 SMA502      0.0000 
     70 H          -5.8707  -41.8893    2.3330 H         1 SMA502      0.0000 
     71 H          -6.8684  -43.1452    2.2164 H         1 SMA502      0.0000 
     72 H          -7.3227  -41.8294    3.0218 H         1 SMA502      0.0000 
     73 H          -3.5392  -45.7290    2.3316 H         1 SMA502      0.0000 
     74 H          -4.1195  -46.5004    3.6178 H         1 SMA502      0.0000 
     75 H          -4.7572  -46.7659    2.1655 H         1 SMA502      0.0000 
     76 H           0.2173  -41.0275    1.1880 H         1 SMA502      0.0000 
     77 H           0.3446  -40.0341   -0.0702 H         1 SMA502      0.0000 
     78 H          -0.8933  -39.8899    0.9461 H         1 SMA502      0.0000 
     79 H         -11.7748  -36.8009    3.7005 H         1 SMA502      0.0000 
@<TRIPOS>BOND
     1    2    1 2    
     2   13    1 1    
     3   29    1 1    
     4    3    2 1    
     5    4    2 1    
     6   52    3 1    
     7   53    3 1    
     8   54    3 1    
     9    5    4 1    
    10   30    4 2    
    11    6    5 ar   
    12   12    5 ar   
    13    8    6 ar   
    14   31    6 1    
    15   31    7 1    
    16   55    7 1    
    17   56    7 1    
    18   57    7 1    
    19    9    8 ar   
    20   38    8 1    
    21   11    9 ar   
    22   32    9 1    
    23   32   10 1    
    24   58   10 1    
    25   59   10 1    
    26   60   10 1    
    27   12   11 ar   
    28   33   11 1    
    29   29   12 1    
    30   14   13 1    
    31   39   13 1    
    32   40   13 1    
    33   15   14 1    
    34   41   14 1    
    35   42   14 1    
    36   24   15 1    
    37   36   15 1    
    38   43   15 1    
    39   17   16 1    
    40   35   16 1    
    41   37   16 1    
    42   44   16 1    
    43   18   17 2    
    44   45   17 1    
    45   19   18 1    
    46   46   18 1    
    47   20   19 2    
    48   47   19 1    
    49   21   20 1    
    50   48   20 1    
    51   22   21 2    
    52   28   21 1    
    53   23   22 1    
    54   49   22 1    
    55   61   23 1    
    56   62   23 1    
    57   63   23 1    
    58   64   24 1    
    59   65   24 1    
    60   66   24 1    
    61   34   25 1    
    62   67   25 1    
    63   68   25 1    
    64   69   25 1    
    65   37   26 1    
    66   70   26 1    
    67   71   26 1    
    68   72   26 1    
    69   35   27 1    
    70   73   27 1    
    71   74   27 1    
    72   75   27 1    
    73   76   28 1    
    74   77   28 1    
    75   78   28 1    
    76   79   33 1    
    77   36   34 1    
    78   37   36 1    
    79   50   36 1    
    80   51   37 1    
@<TRIPOS>SUBSTRUCTURE
     1 SMA502      1 GROUP   
@<TRIPOS>SET

