#    Name: 1a5u_ATP_3_INTS_M
#    Modification time : Mon Mar 24 17:58:07 2014

@<TRIPOS>MOLECULE
1a5u_ATP_3_INTS_M
   73     0    15     0     0
SMALL
NO_CHARGES


@<TRIPOS>ATOM
      1 NZ         -1.3690  140.9395   11.9355 N.4       3 LYC4        0.0000 
      2 NZ         -2.6120  140.9660   12.2470 N.4      13 LYL4        0.0000 
      3 NZ          1.0250  141.2410   12.2560 N.4       8 LYP4        0.0000 
      4 Zn         -3.0480  140.9970   13.2170 Zn        4 ZIC7        0.0000 
      5 Zn         -2.6120  140.9660   12.2470 Zn       14 ZIL7        0.0000 
      6 Zn         -3.4840  141.0280   14.1870 Zn        9 ZIP7        0.0000 
      7 N          -1.3690  140.9395   11.9355 N.am      2 SEC2        0.0000 
      8 N          -2.6120  140.9660   12.2470 N.am     12 SEL2        0.0000 
      9 N          -0.1260  140.9130   11.6240 N.am      7 SEP2        0.0000 
     10 Zn         -4.7600  139.0460   10.8835 Zn        4 ZIC7        0.0000 
     11 Zn         -4.8100  140.1330   11.1910 Zn       14 ZIL7        0.0000 
     12 Zn         -4.7100  137.9590   10.5760 Zn        9 ZIP7        0.0000 
     13 N          -2.4335  142.5070   10.2570 N.am      2 SEC2        0.0000 
     14 N          -3.3470  141.4700   10.0890 N.am     12 SEL2        0.0000 
     15 N          -1.5200  143.5440   10.4250 N.am      7 SEP2        0.0000 
     16 NZ         -6.0340  144.5380   11.3540 N.4       3 LYC4        0.0000 
     17 NZ         -5.7780  144.3530   12.5850 N.4      13 LYL4        0.0000 
     18 NZ         -6.7620  144.1860    9.0070 N.4       8 LYP4        0.0000 
     19 N          -5.2820  145.5910   12.0330 N.am      2 SEC2        0.0000 
     20 N          -5.7780  144.3530   12.5850 N.am     12 SEL2        0.0000 
     21 N          -4.7860  146.8290   11.4810 N.am      7 SEP2        0.0000 
     22 N          -6.0340  144.5380   11.3540 N.am      2 SEC2        0.0000 
     23 N          -6.2900  144.7230   10.1230 N.am      7 SEP2        0.0000 
     24 Zn         -4.2245  141.7485   14.0365 Zn        4 ZIC7        0.0000 
     25 Zn         -4.9650  142.4690   13.8860 Zn       14 ZIL7        0.0000 
     26 N          -5.5800  142.6700   10.2175 N.am      2 SEC2        0.0000 
     27 N          -4.6350  142.4700   11.6630 N.am     12 SEL2        0.0000 
     28 N          -6.5250  142.8700    8.7720 N.am      7 SEP2        0.0000 
     29 N          -5.4625  143.5965   10.8930 N.am      2 SEC2        0.0000 
     30 Zn         -2.8085  141.7720   14.4175 Zn        4 ZIC7        0.0000 
     31 Zn         -2.1330  142.5160   14.6480 Zn       14 ZIL7        0.0000 
     32 N          -0.5895  142.3015   13.9680 N.am      2 SEC2        0.0000 
     33 N          -2.1330  142.5160   14.6480 N.am     12 SEL2        0.0000 
     34 N           0.9540  142.0870   13.2880 N.am      7 SEP2        0.0000 
     35 NZ          0.1015  143.0985   13.3160 N.4       3 LYC4        0.0000 
     36 NZ         -0.7510  144.1100   13.3440 N.4      13 LYL4        0.0000 
     37 N           0.1015  143.0985   13.3160 N.am      2 SEC2        0.0000 
     38 N          -0.7510  144.1100   13.3440 N.am     12 SEL2        0.0000 
     39 N          -1.1355  143.8270   11.8845 N.am      2 SEC2        0.0000 
     40 CA         -2.3945  145.2470   17.7220 C.3       5 GLC5        0.0000 
     41 CA         -3.3700  145.1900   15.9970 C.3      15 GLL5        0.0000 
     42 CA         -1.4190  145.3040   19.4470 C.3      10 GLP5        0.0000 
     43 CA         -3.9965  147.0800   17.9985 C.3       5 GLC5        0.0000 
     44 CA         -3.9490  146.5620   15.9010 C.3      15 GLL5        0.0000 
     45 CA         -4.0440  147.5980   20.0960 C.3      10 GLP5        0.0000 
     46 N          -6.8340  147.0300   15.1025 N.am      2 SEC2        0.0000 
     47 N          -5.8830  146.5110   14.3920 N.am     12 SEL2        0.0000 
     48 N          -7.7850  147.5490   15.8130 N.am      7 SEP2        0.0000 
     49 N          -6.6175  148.2255   15.6035 N.am      2 SEC2        0.0000 
     50 N          -5.4500  148.9020   15.3940 N.am     12 SEL2        0.0000 
     51 O          -5.9500  149.9960   14.6470 O.2       1 ALC1        0.0000 
     52 O          -5.4500  148.9020   15.3940 O.2      11 ALL1        0.0000 
     53 O          -6.4500  151.0900   13.9000 O.2       6 ALP1        0.0000 
     54 CA         -2.5640  148.8050   17.2620 C.3       5 GLC5        0.0000 
     55 CA         -3.0250  148.6090   15.3220 C.3      15 GLL5        0.0000 
     56 CA         -2.1030  149.0010   19.2020 C.3      10 GLP5        0.0000 
     57 CA         -0.6930  152.7145   14.4360 C.3       5 GLC5        0.0000 
     58 CA         -1.6100  152.0990   13.0680 C.3      15 GLL5        0.0000 
     59 CA          0.2240  153.3300   15.8040 C.3      10 GLP5        0.0000 
     60 CA         -1.9600  150.6190   11.4995 C.3       5 GLC5        0.0000 
     61 CA         -2.3100  149.1390    9.9310 C.3      10 GLP5        0.0000 
     62 CA         -2.2350  153.8290   14.1780 C.3       5 GLC5        0.0000 
     63 CA         -2.8600  155.5590   15.2880 C.3      10 GLP5        0.0000 
     64 CA         -3.9893  147.3417   12.7120 C.3       5 GLC5        0.0000 
     65 CA         -4.3530  148.4110   14.6060 C.3      15 GLL5        0.0000 
     66 CA         -3.5600  147.0270   10.8570 C.3      10 GLP5        0.0000 
     67 CA          1.6793  150.4797   13.8178 C.3       5 GLC5        0.0000 
     68 CA         -0.3840  149.7150   13.0060 C.3      15 GLL5        0.0000 
     69 CA          3.4630  150.7190   15.0170 C.3      10 GLP5        0.0000 
     70 CA          0.2051  151.2101   14.2454 C.3       5 GLC5        0.0000 
     71 CA          0.1750  150.7660   12.2310 C.3      15 GLL5        0.0000 
     72 CA          1.2250  152.3100   15.3060 C.3      10 GLP5        0.0000 
     73 CA         -1.5624  149.6246   11.5579 C.3       5 GLC5        0.0000 
@<TRIPOS>BOND
@<TRIPOS>SUBSTRUCTURE
     1 ALC1       51 GROUP        1 X    ALC  0     ROOT ALC X 1
     2 SEC2        7 GROUP        1 X    SEC  0     **** SEC X 2
     3 LYC4        1 GROUP        1 X    LYC  0     **** LYC X 4
     4 ZIC7        4 GROUP        1 X    ZIC  0     **** ZIC X 5
     5 GLC5       40 GROUP        1 X    GLC  0     **** GLC X 6
     6 ALP1       53 GROUP        1 Y    ALP  0     ROOT ALP Y 8
     7 SEP2        9 GROUP        1 Y    SEP  0     **** SEP Y 9
     8 LYP4        3 GROUP        1 Y    LYP  0     **** LYP Y 11
     9 ZIP7        6 GROUP        1 Y    ZIP  0     **** ZIP Y 12
    10 GLP5       42 GROUP        1 Y    GLP  0     **** GLP Y 13
    11 ALL1       52 GROUP        1 Z    ALL  0     ROOT ALL Z 15
    12 SEL2        8 GROUP        1 Z    SEL  0     **** SEL Z 16
    13 LYL4        2 GROUP        1 Z    LYL  0     **** LYL Z 18
    14 ZIL7        5 GROUP        1 Z    ZIL  0     **** ZIL Z 19
    15 GLL5       41 GROUP        1 Z    GLL  0     **** GLL Z 20
@<TRIPOS>SET

