#    Name: 1a5u_ATP_3_ligand
#    Modification time : Mon Mar 24 17:58:07 2014

@<TRIPOS>MOLECULE
1a5u_ATP_3_ligand
   43    45     1     0     0
SMALL
NO_CHARGES


@<TRIPOS>ATOM
      1 PG         -3.6980  141.0470   11.3320 P.3       1 ATP2335     0.0000 
      2 O1G        -2.6120  140.9660   12.2470 O.co2     1 ATP2335     0.0000 
      3 O2G        -4.8100  140.1330   11.1910 O.co2     1 ATP2335     0.0000 
      4 O3G        -3.3470  141.4700   10.0890 O.co2     1 ATP2335     0.0000 
      5 PB         -4.6380  143.4390   12.8150 P.3       1 ATP2335     0.0000 
      6 O1B        -5.7780  144.3530   12.5850 O.co2     1 ATP2335     0.0000 
      7 O2B        -4.9650  142.4690   13.8860 O.co2     1 ATP2335     0.0000 
      8 O3B        -4.6350  142.4700   11.6630 O.3       1 ATP2335     0.0000 
      9 PA         -2.0520  143.8940   14.0180 P.3       1 ATP2335     0.0000 
     10 O1A        -2.1330  142.5160   14.6480 O.co2     1 ATP2335     0.0000 
     11 O2A        -0.7510  144.1100   13.3440 O.co2     1 ATP2335     0.0000 
     12 O3A        -3.3110  144.2910   13.2200 O.3       1 ATP2335     0.0000 
     13 O5'        -2.2160  145.1400   15.1610 O.3       1 ATP2335     0.0000 
     14 C5'        -3.3700  145.1900   15.9970 C.3       1 ATP2335     0.0000 
     15 C4'        -3.9490  146.5620   15.9010 C.3       1 ATP2335     0.0000 
     16 O4'        -2.8790  147.5050   16.1450 O.3       1 ATP2335     0.0000 
     17 C3'        -4.4840  146.9020   14.5280 C.3       1 ATP2335     0.0000 
     18 O3'        -5.8830  146.5110   14.3920 O.3       1 ATP2335     0.0000 
     19 C2'        -4.3530  148.4110   14.6060 C.3       1 ATP2335     0.0000 
     20 O2'        -5.4500  148.9020   15.3940 O.3       1 ATP2335     0.0000 
     21 C1'        -3.0250  148.6090   15.3220 C.3       1 ATP2335     0.0000 
     22 N9         -1.8560  148.7880   14.4160 N.pl3     1 ATP2335     0.0000 
     23 C8         -0.8960  147.8910   14.0280 C.2       1 ATP2335     0.0000 
     24 N7          0.0150  148.4060   13.1790 N.2       1 ATP2335     0.0000 
     25 C5         -0.3840  149.7150   13.0060 C.ar      1 ATP2335     0.0000 
     26 C6          0.1750  150.7660   12.2310 C.ar      1 ATP2335     0.0000 
     27 N6          1.2640  150.6350   11.4880 N.pl3     1 ATP2335     0.0000 
     28 N1         -0.4620  151.9770   12.2860 N.ar      1 ATP2335     0.0000 
     29 C2         -1.6100  152.0990   13.0680 C.ar      1 ATP2335     0.0000 
     30 N3         -2.1970  151.1840   13.8100 N.ar      1 ATP2335     0.0000 
     31 C4         -1.5250  149.9800   13.7510 C.ar      1 ATP2335     0.0000 
     32 H          -3.1169  144.9876   17.0406 H         1 ATP2335     0.0000 
     33 H          -4.1253  144.4668   15.6797 H         1 ATP2335     0.0000 
     34 H          -4.7208  146.6955   16.6249 H         1 ATP2335     0.0000 
     35 H          -3.8471  146.5378   13.8045 H         1 ATP2335     0.0000 
     36 H          -4.3031  148.8016   13.6447 H         1 ATP2335     0.0000 
     37 H          -3.1398  149.5179   15.9373 H         1 ATP2335     0.0000 
     38 H          -0.8827  146.9481   14.3501 H         1 ATP2335     0.0000 
     39 H           1.6979  149.7341   11.4982 H         1 ATP2335     0.0000 
     40 H           1.5535  151.4489   10.9843 H         1 ATP2335     0.0000 
     41 H          -2.0628  153.1009   13.0425 H         1 ATP2335     0.0000 
     42 H          -5.8756  145.7413   13.7537 H         1 ATP2335     0.0000 
     43 H          -5.8069  149.6834   14.8820 H         1 ATP2335     0.0000 
@<TRIPOS>BOND
     1    2    1 ar   
     2    3    1 ar   
     3    4    1 ar   
     4    8    1 1    
     5    6    5 ar   
     6    7    5 ar   
     7    8    5 1    
     8   12    5 1    
     9   10    9 ar   
    10   11    9 ar   
    11   12    9 1    
    12   13    9 1    
    13   14   13 1    
    14   15   14 1    
    15   32   14 1    
    16   33   14 1    
    17   16   15 1    
    18   17   15 1    
    19   34   15 1    
    20   21   16 1    
    21   18   17 1    
    22   19   17 1    
    23   35   17 1    
    24   42   18 1    
    25   20   19 1    
    26   21   19 1    
    27   36   19 1    
    28   43   20 1    
    29   22   21 1    
    30   37   21 1    
    31   23   22 1    
    32   31   22 1    
    33   24   23 2    
    34   38   23 1    
    35   25   24 1    
    36   26   25 ar   
    37   31   25 ar   
    38   27   26 1    
    39   28   26 ar   
    40   39   27 1    
    41   40   27 1    
    42   29   28 ar   
    43   30   29 ar   
    44   41   29 1    
    45   31   30 ar   
@<TRIPOS>SUBSTRUCTURE
     1 ATP2335     1 GROUP   
@<TRIPOS>SET

