#    Name: 3tx1_FAD_1_INTS_M
#    Modification time : Mon Mar 24 21:08:04 2014

@<TRIPOS>MOLECULE
3tx1_FAD_1_INTS_M
  123     0     9     0     0
SMALL
NO_CHARGES


@<TRIPOS>ATOM
      1 N         -19.2120   38.7535   -3.5450 N.am      2 SEC2        0.0000 
      2 N         -20.3050   37.8910   -3.1910 N.am      8 SEL2        0.0000 
      3 N         -18.1190   39.6160   -3.8990 N.am      5 SEP2        0.0000 
      4 N         -21.4435   38.4305   -3.5790 N.am      2 SEC2        0.0000 
      5 N         -22.5820   38.9700   -3.9670 N.am      5 SEP2        0.0000 
      6 N         -23.1725   35.4305   -2.4645 N.am      2 SEC2        0.0000 
      7 N         -21.9280   36.0420   -2.3930 N.am      8 SEL2        0.0000 
      8 N         -24.4170   34.8190   -2.5360 N.am      5 SEP2        0.0000 
      9 CA        -21.3340   33.7005   -1.6960 C.3       3 GLC5        0.0000 
     10 CA        -19.3860   34.6300   -1.5960 C.3       9 GLL5        0.0000 
     11 CA        -23.2820   32.7710   -1.7960 C.3       6 GLP5        0.0000 
     12 CA        -18.5780   32.2000   -0.7885 C.3       3 GLC5        0.0000 
     13 CA        -18.1470   34.2600   -0.8080 C.3       9 GLL5        0.0000 
     14 CA        -19.0090   30.1400   -0.7690 C.3       6 GLP5        0.0000 
     15 CA        -19.2655   36.5860    0.8100 C.3       3 GLC5        0.0000 
     16 CA        -17.7850   35.1770    0.3390 C.3       9 GLL5        0.0000 
     17 CA        -20.7460   37.9950    1.2810 C.3       6 GLP5        0.0000 
     18 O         -15.9380   38.1895    0.0570 O.2       1 ALC1        0.0000 
     19 O         -15.9280   36.9160    0.4530 O.2       7 ALL1        0.0000 
     20 O         -15.9480   39.4630   -0.3390 O.2       4 ALP1        0.0000 
     21 CA        -15.2650   33.6005   -1.1640 C.3       3 GLC5        0.0000 
     22 CA        -16.0550   35.1930   -1.2100 C.3       9 GLL5        0.0000 
     23 CA        -14.4750   32.0080   -1.1180 C.3       6 GLP5        0.0000 
     24 CA        -11.5250   35.4845   -5.7495 C.3       3 GLC5        0.0000 
     25 CA        -12.8680   36.5830   -4.6970 C.3       9 GLL5        0.0000 
     26 CA        -10.1820   34.3860   -6.8020 C.3       6 GLP5        0.0000 
     27 O         -11.2315   37.2670   -6.5935 O.2       1 ALC1        0.0000 
     28 O         -12.6190   37.2310   -5.8690 O.2       7 ALL1        0.0000 
     29 O          -9.8440   37.3030   -7.3180 O.2       4 ALP1        0.0000 
     30 N         -10.4730   35.8680   -4.5800 N.am      2 SEC2        0.0000 
     31 N         -11.8530   35.9830   -4.0390 N.am      8 SEL2        0.0000 
     32 N          -9.0930   35.7530   -5.1210 N.am      5 SEP2        0.0000 
     33 CA        -13.2930   33.6200   -2.7460 C.3       3 GLC5        0.0000 
     34 CA        -12.0240   35.3300   -2.8970 C.3       9 GLL5        0.0000 
     35 CA        -14.5620   31.9100   -2.5950 C.3       6 GLP5        0.0000 
     36 CA        -10.1590   36.0705   -2.9990 C.3       3 GLC5        0.0000 
     37 CA         -8.2940   36.8110   -3.1010 C.3       6 GLP5        0.0000 
     38 CA        -11.1405   34.2905   -4.3415 C.3       3 GLC5        0.0000 
     39 CA        -10.2570   33.2510   -5.7860 C.3       6 GLP5        0.0000 
     40 CA        -14.4345   33.8460   -2.6980 C.3       3 GLC5        0.0000 
     41 CA        -14.3070   35.7820   -2.8010 C.3       9 GLL5        0.0000 
     42 N         -21.9965   25.3610   -6.5610 N.am      2 SEC2        0.0000 
     43 N         -22.9190   26.2580   -5.8500 N.am      8 SEL2        0.0000 
     44 N         -21.0740   24.4640   -7.2720 N.am      5 SEP2        0.0000 
     45 N         -23.2500   24.7280   -5.1000 N.am      2 SEC2        0.0000 
     46 N         -23.5810   23.1980   -4.3500 N.am      5 SEP2        0.0000 
     47 O         -24.2445   24.9080   -7.1615 O.2       1 ALC1        0.0000 
     48 O         -24.8130   26.1100   -6.9510 O.2       7 ALL1        0.0000 
     49 O         -23.6760   23.7060   -7.3720 O.2       4 ALP1        0.0000 
     50 N         -27.2350   26.1030   -9.4605 N.am      2 SEC2        0.0000 
     51 N         -26.7470   25.8680   -8.0750 N.am      8 SEL2        0.0000 
     52 N         -27.7230   26.3380  -10.8460 N.am      5 SEP2        0.0000 
     53 N         -28.0680   26.6275   -8.8790 N.am      2 SEC2        0.0000 
     54 N         -29.3890   27.3870   -9.6830 N.am      5 SEP2        0.0000 
     55 N         -28.4705   27.8970   -8.4325 N.am      2 SEC2        0.0000 
     56 N         -27.5520   28.4070   -7.1820 N.am      8 SEL2        0.0000 
     57 CA        -30.3300   33.9605   -7.3530 C.3       3 GLC5        0.0000 
     58 CA        -30.9510   31.8420   -7.2330 C.3       9 GLL5        0.0000 
     59 CA        -29.7090   36.0790   -7.4730 C.3       6 GLP5        0.0000 
     60 CA        -32.0470   31.3020   -8.8855 C.3       3 GLC5        0.0000 
     61 CA        -33.1430   30.7620  -10.5380 C.3       6 GLP5        0.0000 
     62 CA        -31.9965   30.9240   -6.0675 C.3       3 GLC5        0.0000 
     63 CA        -33.0420   30.0060   -4.9020 C.3       6 GLP5        0.0000 
     64 CA        -29.4065   34.7780   -6.4515 C.3       3 GLC5        0.0000 
     65 CA        -29.1040   33.4770   -5.4300 C.3       9 GLL5        0.0000 
     66 CA        -27.2285   34.4340   -5.6370 C.3       3 GLC5        0.0000 
     67 CA        -25.3530   35.3910   -5.8440 C.3       6 GLP5        0.0000 
     68 CA        -29.2725   33.8780   -3.6725 C.3       3 GLC5        0.0000 
     69 CA        -29.4410   34.2790   -1.9150 C.3       6 GLP5        0.0000 
     70 CA        -26.4230   33.5205   -5.6705 C.3       3 GLC5        0.0000 
     71 CA        -27.4930   31.6500   -5.4970 C.3       9 GLL5        0.0000 
     72 CA        -24.6690   33.4690   -5.6035 C.3       3 GLC5        0.0000 
     73 CA        -23.9850   31.5470   -5.3630 C.3       9 GLL5        0.0000 
     74 O         -24.3975   33.0600   -6.3570 O.2       1 ALC1        0.0000 
     75 O         -24.4400   31.7150   -6.7030 O.2       7 ALL1        0.0000 
     76 O         -24.3550   34.4050   -6.0110 O.2       4 ALP1        0.0000 
     77 CA        -23.0925   30.0705   -7.3470 C.3       3 GLC5        0.0000 
     78 CA        -22.5990   30.9340   -5.4320 C.3       9 GLL5        0.0000 
     79 CA        -23.5860   29.2070   -9.2620 C.3       6 GLP5        0.0000 
     80 CA        -22.2515   32.9075   -3.4720 C.3       3 GLC5        0.0000 
     81 CA        -21.2210   33.0440   -5.1480 C.3       9 GLL5        0.0000 
     82 CA        -19.1965   33.3520   -5.3300 C.3       3 GLC5        0.0000 
     83 CA        -17.1720   33.6600   -5.5120 C.3       6 GLP5        0.0000 
     84 CA        -20.1055   31.6475   -3.8555 C.3       3 GLC5        0.0000 
     85 CA        -18.9900   30.2510   -2.5630 C.3       6 GLP5        0.0000 
     86 N         -20.2185   37.7320   -6.1810 N.am      2 SEC2        0.0000 
     87 N         -19.7100   36.2350   -6.4160 N.am      8 SEL2        0.0000 
     88 N         -20.7270   39.2290   -5.9460 N.am      5 SEP2        0.0000 
     89 N         -19.8725   36.0195   -7.7865 N.am      2 SEC2        0.0000 
     90 N         -20.0350   35.8040   -9.1570 N.am      5 SEP2        0.0000 
     91 N         -18.5015   36.4540   -7.1645 N.am      2 SEC2        0.0000 
     92 N         -17.2930   36.6730   -7.9130 N.am      5 SEP2        0.0000 
     93 N         -21.3945   37.6635   -5.6505 N.am      2 SEC2        0.0000 
     94 N         -22.0620   36.0980   -5.3550 N.am      8 SEL2        0.0000 
     95 N         -23.2025   36.4350   -4.7015 N.am      2 SEC2        0.0000 
     96 N         -24.3430   36.7720   -4.0480 N.am      5 SEP2        0.0000 
     97 N         -23.2085   35.2515   -5.6830 N.am      2 SEC2        0.0000 
     98 N         -24.3550   34.4050   -6.0110 N.am      5 SEP2        0.0000 
     99 CA        -16.6935   33.2353   -0.1838 C.3       3 GLC5        0.0000 
    100 CA        -15.4210   31.7520   -0.1330 C.3       6 GLP5        0.0000 
    101 CA        -19.2005   33.9918    1.3508 C.3       3 GLC5        0.0000 
    102 CA        -20.4350   33.2650    2.9360 C.3       6 GLP5        0.0000 
    103 CA        -13.8447   35.6845   -5.9465 C.3       3 GLC5        0.0000 
    104 CA        -14.2210   36.4890   -4.0890 C.3       9 GLL5        0.0000 
    105 CA        -14.1450   34.8330   -7.5000 C.3       6 GLP5        0.0000 
    106 CA        -15.7180   34.8978   -4.4785 C.3       3 GLC5        0.0000 
    107 CA        -13.5999   37.9230   -3.1550 C.3       3 GLC5        0.0000 
    108 CA        -13.2740   39.6870   -2.7130 C.3       6 GLP5        0.0000 
    109 CA        -29.0272   30.2668   -4.9610 C.3       3 GLC5        0.0000 
    110 CA        -27.9470   29.6140   -6.7510 C.3       9 GLL5        0.0000 
    111 CA        -29.4930   30.6780   -2.9600 C.3       6 GLP5        0.0000 
    112 CA        -28.8803   32.1582   -8.1502 C.3       3 GLC5        0.0000 
    113 CA        -29.6060   31.3370   -6.7800 C.3       9 GLL5        0.0000 
    114 CA        -27.4820   32.7270   -9.2940 C.3       6 GLP5        0.0000 
    115 CA        -29.3116   31.6414   -4.4238 C.3       3 GLC5        0.0000 
    116 CA        -27.8406   32.4766   -7.4388 C.3       3 GLC5        0.0000 
    117 CA        -28.7070   32.1280   -5.9100 C.3       9 GLL5        0.0000 
    118 CA        -28.3882   30.8518   -4.3258 C.3       3 GLC5        0.0000 
    119 CA        -27.2059   30.8251   -7.8965 C.3       3 GLC5        0.0000 
    120 CA        -27.0740   30.4010   -5.8860 C.3       9 GLL5        0.0000 
    121 CA        -26.5940   31.5220   -9.3690 C.3       6 GLP5        0.0000 
    122 CA        -23.4062   31.8951   -3.5006 C.3       3 GLC5        0.0000 
    123 CA        -24.9390   30.6620   -4.5940 C.3       9 GLL5        0.0000 
@<TRIPOS>BOND
@<TRIPOS>SUBSTRUCTURE
     1 ALC1       18 GROUP        1 X    ALC  0     ROOT ALC X 1
     2 SEC2        1 GROUP        1 X    SEC  0     **** SEC X 2
     3 GLC5        9 GROUP        1 X    GLC  0     **** GLC X 6
     4 ALP1       20 GROUP        1 Y    ALP  0     ROOT ALP Y 8
     5 SEP2        3 GROUP        1 Y    SEP  0     **** SEP Y 9
     6 GLP5       11 GROUP        1 Y    GLP  0     **** GLP Y 13
     7 ALL1       19 GROUP        1 Z    ALL  0     ROOT ALL Z 15
     8 SEL2        2 GROUP        1 Z    SEL  0     **** SEL Z 16
     9 GLL5       10 GROUP        1 Z    GLL  0     **** GLL Z 20
@<TRIPOS>SET

