#    Name: 3tx1_FAD_1_ligand
#    Modification time : Mon Mar 24 21:08:04 2014

@<TRIPOS>MOLECULE
3tx1_FAD_1_ligand
   84    89     1     0     0
SMALL
NO_CHARGES


@<TRIPOS>ATOM
      1 PA        -20.5580   36.4630   -2.8420 P.3       1 FAD299      0.0000 
      2 O1A       -20.3050   37.8910   -3.1910 O.co2     1 FAD299      0.0000 
      3 O2A       -21.9280   36.0420   -2.3930 O.co2     1 FAD299      0.0000 
      4 O5B       -19.5930   36.0380   -1.6410 O.3       1 FAD299      0.0000 
      5 C5B       -19.3860   34.6300   -1.5960 C.3       1 FAD299      0.0000 
      6 C4B       -18.1470   34.2600   -0.8080 C.3       1 FAD299      0.0000 
      7 O4B       -17.0090   34.2360   -1.6550 O.3       1 FAD299      0.0000 
      8 C3B       -17.7850   35.1770    0.3390 C.3       1 FAD299      0.0000 
      9 O3B       -17.0370   34.3700    1.2820 O.3       1 FAD299      0.0000 
     10 C2B       -16.8380   36.1510   -0.3610 C.3       1 FAD299      0.0000 
     11 O2B       -15.9280   36.9160    0.4530 O.3       1 FAD299      0.0000 
     12 C1B       -16.0550   35.1930   -1.2100 C.3       1 FAD299      0.0000 
     13 N9A       -15.5820   35.8600   -2.4100 N.pl3     1 FAD299      0.0000 
     14 C8A       -16.3050   36.5190   -3.3280 C.2       1 FAD299      0.0000 
     15 N7A       -15.4810   36.9080   -4.3410 N.2       1 FAD299      0.0000 
     16 C5A       -14.2210   36.4890   -4.0890 C.ar      1 FAD299      0.0000 
     17 C6A       -12.8680   36.5830   -4.6970 C.ar      1 FAD299      0.0000 
     18 N6A       -12.6190   37.2310   -5.8690 N.pl3     1 FAD299      0.0000 
     19 N1A       -11.8530   35.9830   -4.0390 N.ar      1 FAD299      0.0000 
     20 C2A       -12.0240   35.3300   -2.8970 C.ar      1 FAD299      0.0000 
     21 N3A       -13.1950   35.2300   -2.2660 N.ar      1 FAD299      0.0000 
     22 C4A       -14.3070   35.7820   -2.8010 C.ar      1 FAD299      0.0000 
     23 N1        -24.2870   28.0230   -5.6330 N.2       1 FAD299      0.0000 
     24 C2        -24.0040   26.7940   -6.1300 C.2       1 FAD299      0.0000 
     25 O2        -22.9190   26.2580   -5.8500 O.2       1 FAD299      0.0000 
     26 N3        -24.8130   26.1100   -6.9510 N.am      1 FAD299      0.0000 
     27 C4        -26.0010   26.5530   -7.3380 C.2       1 FAD299      0.0000 
     28 O4        -26.7470   25.8680   -8.0750 O.2       1 FAD299      0.0000 
     29 C4X       -26.3800   27.8820   -6.8370 C.2       1 FAD299      0.0000 
     30 N5        -27.5520   28.4070   -7.1820 N.2       1 FAD299      0.0000 
     31 C5X       -27.9470   29.6140   -6.7510 C.ar      1 FAD299      0.0000 
     32 C6        -29.1760   30.0970   -7.1730 C.ar      1 FAD299      0.0000 
     33 C7        -29.6060   31.3370   -6.7800 C.ar      1 FAD299      0.0000 
     34 C7M       -30.9510   31.8420   -7.2330 C.3       1 FAD299      0.0000 
     35 C8        -28.7070   32.1280   -5.9100 C.ar      1 FAD299      0.0000 
     36 C8M       -29.1040   33.4770   -5.4300 C.3       1 FAD299      0.0000 
     37 C9        -27.4930   31.6500   -5.4970 C.ar      1 FAD299      0.0000 
     38 C9A       -27.0740   30.4010   -5.8860 C.ar      1 FAD299      0.0000 
     39 N10       -25.8140   29.8870   -5.4930 N.pl3     1 FAD299      0.0000 
     40 C10       -25.4460   28.6110   -5.9580 C.2       1 FAD299      0.0000 
     41 C1'       -24.9390   30.6620   -4.5940 C.3       1 FAD299      0.0000 
     42 C2'       -23.9850   31.5470   -5.3630 C.3       1 FAD299      0.0000 
     43 O2'       -24.4400   31.7150   -6.7030 O.3       1 FAD299      0.0000 
     44 C3'       -22.5990   30.9340   -5.4320 C.3       1 FAD299      0.0000 
     45 O3'       -22.2090   30.6660   -4.0910 O.3       1 FAD299      0.0000 
     46 C4'       -21.6300   31.9180   -6.0810 C.3       1 FAD299      0.0000 
     47 O4'       -20.4880   31.2440   -6.6290 O.3       1 FAD299      0.0000 
     48 C5'       -21.2210   33.0440   -5.1480 C.3       1 FAD299      0.0000 
     49 O5'       -20.8030   34.1160   -5.9590 O.3       1 FAD299      0.0000 
     50 P         -20.6580   35.6080   -5.4590 P.3       1 FAD299      0.0000 
     51 O1P       -19.7100   36.2350   -6.4160 O.co2     1 FAD299      0.0000 
     52 O2P       -22.0620   36.0980   -5.3550 O.co2     1 FAD299      0.0000 
     53 O3P       -20.0650   35.5050   -4.0140 O.3       1 FAD299      0.0000 
     54 H         -19.2785   34.2051   -2.6137 H         1 FAD299      0.0000 
     55 H         -20.2482   34.1098   -1.1336 H         1 FAD299      0.0000 
     56 H         -18.2910   33.2517   -0.3867 H         1 FAD299      0.0000 
     57 H         -18.5987   35.6471    0.6997 H         1 FAD299      0.0000 
     58 H         -17.4203   36.7510   -1.0348 H         1 FAD299      0.0000 
     59 H         -15.2875   34.7585   -0.6632 H         1 FAD299      0.0000 
     60 H         -17.2554   36.6953   -3.2885 H         1 FAD299      0.0000 
     61 H         -11.6698   37.2221   -6.1837 H         1 FAD299      0.0000 
     62 H         -13.4073   37.6586   -6.3115 H         1 FAD299      0.0000 
     63 H         -11.1707   34.8524   -2.4515 H         1 FAD299      0.0000 
     64 H         -24.4775   25.1591   -7.3088 H         1 FAD299      0.0000 
     65 H         -29.7673   29.5114   -7.7889 H         1 FAD299      0.0000 
     66 H         -26.8866   32.2299   -4.8893 H         1 FAD299      0.0000 
     67 H         -24.3531   29.9824   -3.9562 H         1 FAD299      0.0000 
     68 H         -25.5450   31.2933   -3.9262 H         1 FAD299      0.0000 
     69 H         -23.9065   32.4990   -4.8634 H         1 FAD299      0.0000 
     70 H         -22.6476   30.0464   -6.0178 H         1 FAD299      0.0000 
     71 H         -22.1946   32.3976   -6.9237 H         1 FAD299      0.0000 
     72 H         -20.4244   32.6739   -4.5056 H         1 FAD299      0.0000 
     73 H         -22.0821   33.2992   -4.5335 H         1 FAD299      0.0000 
     74 H         -31.1432   32.7568   -6.8777 H         1 FAD299      0.0000 
     75 H         -31.0109   31.8961   -8.2297 H         1 FAD299      0.0000 
     76 H         -31.6937   31.2466   -6.9266 H         1 FAD299      0.0000 
     77 H         -28.3979   33.8889   -4.8541 H         1 FAD299      0.0000 
     78 H         -29.2683   34.1076   -6.1885 H         1 FAD299      0.0000 
     79 H         -29.9435   33.4460   -4.8875 H         1 FAD299      0.0000 
     80 H         -16.3132   34.9715    1.6201 H         1 FAD299      0.0000 
     81 H         -16.2924   37.8472    0.4431 H         1 FAD299      0.0000 
     82 H         -24.5226   32.7040   -6.8261 H         1 FAD299      0.0000 
     83 H         -21.2430   30.4139   -4.1480 H         1 FAD299      0.0000 
     84 H         -19.7503   31.4113   -5.9749 H         1 FAD299      0.0000 
@<TRIPOS>BOND
     1    2    1 ar   
     2    3    1 ar   
     3    4    1 1    
     4   53    1 1    
     5    5    4 1    
     6    6    5 1    
     7   54    5 1    
     8   55    5 1    
     9    7    6 1    
    10    8    6 1    
    11   56    6 1    
    12   12    7 1    
    13    9    8 1    
    14   10    8 1    
    15   57    8 1    
    16   80    9 1    
    17   11   10 1    
    18   12   10 1    
    19   58   10 1    
    20   81   11 1    
    21   13   12 1    
    22   59   12 1    
    23   14   13 1    
    24   22   13 1    
    25   15   14 2    
    26   60   14 1    
    27   16   15 1    
    28   17   16 ar   
    29   22   16 ar   
    30   18   17 1    
    31   19   17 ar   
    32   61   18 1    
    33   62   18 1    
    34   20   19 ar   
    35   21   20 ar   
    36   63   20 1    
    37   22   21 ar   
    38   24   23 1    
    39   40   23 2    
    40   25   24 2    
    41   26   24 am   
    42   27   26 am   
    43   64   26 1    
    44   28   27 2    
    45   29   27 1    
    46   30   29 2    
    47   40   29 1    
    48   31   30 1    
    49   32   31 ar   
    50   38   31 ar   
    51   33   32 ar   
    52   65   32 1    
    53   34   33 1    
    54   35   33 ar   
    55   74   34 1    
    56   75   34 1    
    57   76   34 1    
    58   36   35 1    
    59   37   35 ar   
    60   77   36 1    
    61   78   36 1    
    62   79   36 1    
    63   38   37 ar   
    64   66   37 1    
    65   39   38 1    
    66   40   39 1    
    67   41   39 1    
    68   42   41 1    
    69   67   41 1    
    70   68   41 1    
    71   43   42 1    
    72   44   42 1    
    73   69   42 1    
    74   82   43 1    
    75   45   44 1    
    76   46   44 1    
    77   70   44 1    
    78   83   45 1    
    79   47   46 1    
    80   48   46 1    
    81   71   46 1    
    82   84   47 1    
    83   49   48 1    
    84   72   48 1    
    85   73   48 1    
    86   50   49 1    
    87   51   50 ar   
    88   52   50 ar   
    89   53   50 1    
@<TRIPOS>SUBSTRUCTURE
     1 FAD299      1 GROUP   
@<TRIPOS>SET

