#    Name: 4bfr_J82_1_INTS_M
#    Modification time : Tue Mar 25 07:36:54 2014

@<TRIPOS>MOLECULE
4bfr_J82_1_INTS_M
   74     0     6     0     0
SMALL
NO_CHARGES


@<TRIPOS>ATOM
      1 CA          2.3665   73.3675   79.2725 C.3       2 GLC5        0.0000 
      2 CA          0.3770   73.5740   79.9420 C.3       6 GLL5        0.0000 
      3 CA          4.3560   73.1610   78.6030 C.3       4 GLP5        0.0000 
      4 CA          0.6930   72.0380   78.8675 C.3       2 GLC5        0.0000 
      5 CA          1.0090   70.5020   77.7930 C.3       4 GLP5        0.0000 
      6 CA          0.9850   74.3415   82.3260 C.3       2 GLC5        0.0000 
      7 CA          2.0940   73.0470   81.6670 C.3       6 GLL5        0.0000 
      8 CA         -0.1240   75.6360   82.9850 C.3       4 GLP5        0.0000 
      9 CA          3.2250   73.1040   80.1350 C.3       2 GLC5        0.0000 
     10 CA          3.1085   72.2025   84.1015 C.3       2 GLC5        0.0000 
     11 CA          2.8780   71.8060   82.0250 C.3       6 GLL5        0.0000 
     12 CA          3.3390   72.5990   86.1780 C.3       4 GLP5        0.0000 
     13 CA          3.9715   71.7080   80.5470 C.3       2 GLC5        0.0000 
     14 CA          5.0650   71.6100   79.0690 C.3       4 GLP5        0.0000 
     15 CA          2.9490   69.9525   80.8610 C.3       2 GLC5        0.0000 
     16 CA          3.0200   68.0990   79.6970 C.3       4 GLP5        0.0000 
     17 N           2.2285   70.1890   83.8905 N.am      1 SEC2        0.0000 
     18 N           2.0570   70.8320   82.6690 N.am      5 SEL2        0.0000 
     19 N           2.4000   69.5460   85.1120 N.am      3 SEP2        0.0000 
     20 CA         -0.2895   69.1070   81.1370 C.3       2 GLC5        0.0000 
     21 CA          0.9850   70.4420   81.8110 C.3       6 GLL5        0.0000 
     22 CA         -1.5640   67.7720   80.4630 C.3       4 GLP5        0.0000 
     23 CA          1.0275   70.9330   83.8705 C.3       2 GLC5        0.0000 
     24 CA          1.0700   71.4240   85.9300 C.3       4 GLP5        0.0000 
     25 CA          1.3760   68.7530   82.6410 C.3       2 GLC5        0.0000 
     26 CA          1.7670   67.0640   83.4710 C.3       4 GLP5        0.0000 
     27 CA          2.0025   69.2705   80.7540 C.3       2 GLC5        0.0000 
     28 CA         -0.0075   73.6270   82.2185 C.3       2 GLC5        0.0000 
     29 CA          0.1090   71.6180   81.4520 C.3       6 GLL5        0.0000 
     30 CA         -1.4835   70.8545   80.9385 C.3       2 GLC5        0.0000 
     31 CA         -3.0760   70.0910   80.4250 C.3       4 GLP5        0.0000 
     32 CA         -1.5265   72.3745   81.9585 C.3       2 GLC5        0.0000 
     33 CA         -3.1620   73.1310   82.4650 C.3       4 GLP5        0.0000 
     34 CA         -0.1650   72.3895   78.0055 C.3       2 GLC5        0.0000 
     35 CA         -0.9130   73.3890   79.3790 C.3       6 GLL5        0.0000 
     36 CA          0.5830   71.3900   76.6320 C.3       4 GLP5        0.0000 
     37 N          -2.2370   73.3685   76.5595 N.am      1 SEC2        0.0000 
     38 N          -2.5780   74.2180   77.9030 N.am      5 SEL2        0.0000 
     39 N          -1.8960   72.5190   75.2160 N.am      3 SEP2        0.0000 
     40 CA          1.5355   75.1805   77.1015 C.3       2 GLC5        0.0000 
     41 CA          1.3580   76.8000   78.3370 C.3       6 GLL5        0.0000 
     42 CA          1.7130   73.5610   75.8660 C.3       4 GLP5        0.0000 
     43 CA         -0.4135   79.2880   82.3005 C.3       2 GLC5        0.0000 
     44 CA          1.2470   80.3190   81.4220 C.3       6 GLL5        0.0000 
     45 CA         -2.0740   78.2570   83.1790 C.3       4 GLP5        0.0000 
     46 CA          4.3350   81.8370   84.0780 C.3       2 GLC5        0.0000 
     47 CA          2.8870   81.7000   82.5320 C.3       6 GLL5        0.0000 
     48 CA          5.7830   81.9740   85.6240 C.3       4 GLP5        0.0000 
     49 CA          5.3555   80.5550   83.1310 C.3       2 GLC5        0.0000 
     50 CA          3.9060   81.0870   81.8190 C.3       6 GLL5        0.0000 
     51 CA          6.8050   80.0230   84.4430 C.3       4 GLP5        0.0000 
     52 CA          2.6500   80.8545   77.4230 C.3       2 GLC5        0.0000 
     53 CA          3.7910   79.2630   77.7570 C.3       6 GLL5        0.0000 
     54 CA          1.5090   82.4460   77.0890 C.3       4 GLP5        0.0000 
     55 CA         -0.1960   74.5587   81.3227 C.3       2 GLC5        0.0000 
     56 CA         -1.7150   73.3062   81.0627 C.3       2 GLC5        0.0000 
     57 CA          3.3235   74.0743   82.6395 C.3       2 GLC5        0.0000 
     58 CA          4.1610   75.7220   83.4330 C.3       4 GLP5        0.0000 
     59 CA          0.7780   70.7660   79.7123 C.3       2 GLC5        0.0000 
     60 CA          3.7302   77.8017   81.2387 C.3       2 GLC5        0.0000 
     61 CA          3.6140   78.5380   79.0850 C.3       6 GLL5        0.0000 
     62 CA          3.3940   76.7500   82.8680 C.3       4 GLP5        0.0000 
     63 CA          2.3847   81.8935   80.1090 C.3       2 GLC5        0.0000 
     64 CA          3.6050   80.0780   80.9110 C.3       6 GLL5        0.0000 
     65 CA          1.8290   83.8920   79.4110 C.3       4 GLP5        0.0000 
     66 CA          1.6183   82.3545   80.6460 C.3       2 GLC5        0.0000 
     67 CA         -0.1457   81.7650   80.9435 C.3       2 GLC5        0.0000 
     68 CA          1.5680   81.3150   82.3400 C.3       6 GLL5        0.0000 
     69 CA         -1.6990   82.7130   80.0060 C.3       4 GLP5        0.0000 
     70 CA          2.3533   83.3158   83.2535 C.3       2 GLC5        0.0000 
     71 CA          2.4790   85.1240   84.0710 C.3       4 GLP5        0.0000 
     72 CA          2.6128   82.6427   80.7933 C.3       2 GLC5        0.0000 
     73 CA          2.7764   80.7551   84.0072 C.3       2 GLC5        0.0000 
     74 CA          2.4860   80.2130   85.8870 C.3       4 GLP5        0.0000 
@<TRIPOS>BOND
@<TRIPOS>SUBSTRUCTURE
     1 SEC2       17 GROUP        1 X    SEC  0     ROOT SEC X 2
     2 GLC5        1 GROUP        1 X    GLC  0     **** GLC X 6
     3 SEP2       19 GROUP        1 Y    SEP  0     ROOT SEP Y 9
     4 GLP5        3 GROUP        1 Y    GLP  0     **** GLP Y 13
     5 SEL2       18 GROUP        1 Z    SEL  0     ROOT SEL Z 16
     6 GLL5        2 GROUP        1 Z    GLL  0     **** GLL Z 20
@<TRIPOS>SET

