#    Name: 4bfr_J82_1_ligand
#    Modification time : Tue Mar 25 07:36:54 2014

@<TRIPOS>MOLECULE
4bfr_J82_1_ligand
   48    51     1     0     0
SMALL
NO_CHARGES


@<TRIPOS>ATOM
      1 C1          0.3770   73.5740   79.9420 C.2       1 J822000     0.0000 
      2 N2          0.9240   72.6840   80.8520 N.3       1 J822000     0.0000 
      3 C3          2.0940   73.0470   81.6670 C.3       1 J822000     0.0000 
      4 C4          2.8780   71.8060   82.0250 C.3       1 J822000     0.0000 
      5 O5          2.0570   70.8320   82.6690 O.3       1 J822000     0.0000 
      6 C6          0.9850   70.4420   81.8110 C.3       1 J822000     0.0000 
      7 C7          0.1090   71.6180   81.4520 C.3       1 J822000     0.0000 
      8 N8          1.1180   74.6600   79.5830 N.2       1 J822000     0.0000 
      9 C9          0.6170   75.5380   78.7130 C.2       1 J822000     0.0000 
     10 N10        -0.6500   75.3860   78.1250 N.am      1 J822000     0.0000 
     11 C11        -1.4640   74.3090   78.4360 C.2       1 J822000     0.0000 
     12 C12        -0.9130   73.3890   79.3790 C.2       1 J822000     0.0000 
     13 O13        -2.5780   74.2180   77.9030 O.2       1 J822000     0.0000 
     14 C14         1.3580   76.8000   78.3370 C.3       1 J822000     0.0000 
     15 C15         1.1470   77.9730   79.2730 C.2       1 J822000     0.0000 
     16 O16         0.0110   78.2210   79.6460 O.2       1 J822000     0.0000 
     17 N17         2.2110   78.7440   79.6640 N.am      1 J822000     0.0000 
     18 C18         4.5190   79.1690   80.1340 C.3       1 J822000     0.0000 
     19 C19         3.6140   78.5380   79.0850 C.3       1 J822000     0.0000 
     20 C20         3.6050   80.0780   80.9110 C.ar      1 J822000     0.0000 
     21 C21         2.2760   79.7120   80.7030 C.ar      1 J822000     0.0000 
     22 C22         1.2470   80.3190   81.4220 C.ar      1 J822000     0.0000 
     23 C23         1.5680   81.3150   82.3400 C.ar      1 J822000     0.0000 
     24 C24         2.8870   81.7000   82.5320 C.ar      1 J822000     0.0000 
     25 C25         3.9060   81.0870   81.8190 C.ar      1 J822000     0.0000 
     26 C26         3.7910   79.2630   77.7570 C.3       1 J822000     0.0000 
     27 H           1.7783   73.5434   82.5886 H         1 J822000     0.0000 
     28 H           2.7461   73.7300   81.1160 H         1 J822000     0.0000 
     29 H           3.7217   72.1107   82.6716 H         1 J822000     0.0000 
     30 H           3.3235   71.4046   81.0959 H         1 J822000     0.0000 
     31 H           0.3482   69.6748   82.2877 H         1 J822000     0.0000 
     32 H           1.3634   69.9989   80.8719 H         1 J822000     0.0000 
     33 H          -0.6605   71.2844   80.7505 H         1 J822000     0.0000 
     34 H          -0.3863   71.9792   82.3574 H         1 J822000     0.0000 
     35 H          -0.9744   76.0984   77.4461 H         1 J822000     0.0000 
     36 H          -1.4710   72.5678   79.6567 H         1 J822000     0.0000 
     37 H           1.0582   77.1025   77.3112 H         1 J822000     0.0000 
     38 H           2.4448   76.5775   78.2817 H         1 J822000     0.0000 
     39 H           5.2817   79.7357   79.6530 H         1 J822000     0.0000 
     40 H           4.9122   78.4100   80.7693 H         1 J822000     0.0000 
     41 H           3.8225   77.5193   79.0089 H         1 J822000     0.0000 
     42 H           0.2784   80.0380   81.2774 H         1 J822000     0.0000 
     43 H           0.8160   81.7703   82.8821 H         1 J822000     0.0000 
     44 H           3.1103   82.4461   83.2087 H         1 J822000     0.0000 
     45 H           4.8821   81.3766   81.9601 H         1 J822000     0.0000 
     46 H           4.7068   79.1274   77.3790 H         1 J822000     0.0000 
     47 H           3.1396   78.9426   77.0692 H         1 J822000     0.0000 
     48 H           3.6560   80.2493   77.8515 H         1 J822000     0.0000 
@<TRIPOS>BOND
     1    2    1 1    
     2    8    1 1    
     3   12    1 2    
     4    3    2 1    
     5    7    2 1    
     6    4    3 1    
     7   27    3 1    
     8   28    3 1    
     9    5    4 1    
    10   29    4 1    
    11   30    4 1    
    12    6    5 1    
    13    7    6 1    
    14   31    6 1    
    15   32    6 1    
    16   33    7 1    
    17   34    7 1    
    18    9    8 2    
    19   10    9 1    
    20   14    9 1    
    21   11   10 am   
    22   35   10 1    
    23   12   11 1    
    24   13   11 2    
    25   36   12 1    
    26   15   14 1    
    27   37   14 1    
    28   38   14 1    
    29   16   15 2    
    30   17   15 am   
    31   19   17 1    
    32   21   17 1    
    33   19   18 1    
    34   20   18 1    
    35   39   18 1    
    36   40   18 1    
    37   26   19 1    
    38   41   19 1    
    39   21   20 ar   
    40   25   20 ar   
    41   22   21 ar   
    42   23   22 ar   
    43   42   22 1    
    44   24   23 ar   
    45   43   23 1    
    46   25   24 ar   
    47   44   24 1    
    48   45   25 1    
    49   46   26 1    
    50   47   26 1    
    51   48   26 1    
@<TRIPOS>SUBSTRUCTURE
     1 J822000     1 GROUP   
@<TRIPOS>SET

