#    Name: 2z1m_GDP_4_INTS_M
#    Modification time : Tue Mar 25 09:53:13 2014

@<TRIPOS>MOLECULE
2z1m_GDP_4_INTS_M
   61     0    12     0     0
SMALL
NO_CHARGES


@<TRIPOS>ATOM
      1 NZ        140.5085   38.1010   43.1570 N.4       3 LYC4        0.0000 
      2 NZ        139.4620   38.4970   43.9690 N.4      11 LYL4        0.0000 
      3 NZ        142.4010   36.6920   42.4590 N.4       7 LYP4        0.0000 
      4 N         140.5085   38.1010   43.1570 N.am      2 SEC2        0.0000 
      5 N         139.4620   38.4970   43.9690 N.am     10 SEL2        0.0000 
      6 N         141.5550   37.7050   42.3450 N.am      6 SEP2        0.0000 
      7 N         139.2280   39.3480   43.0965 N.am      2 SEC2        0.0000 
      8 N         138.9940   40.1990   42.2240 N.am      6 SEP2        0.0000 
      9 NZ        138.1800   41.4310   45.2990 N.4       3 LYC4        0.0000 
     10 NZ        137.7440   39.9040   45.1400 N.4      11 LYL4        0.0000 
     11 NZ        139.3250   43.5000   44.4750 N.4       7 LYP4        0.0000 
     12 N         137.1980   40.1640   46.6350 N.am      2 SEC2        0.0000 
     13 N         137.7440   39.9040   45.1400 N.am     10 SEL2        0.0000 
     14 N         136.6520   40.4240   48.1300 N.am      6 SEP2        0.0000 
     15 N         138.1800   41.4310   45.2990 N.am      2 SEC2        0.0000 
     16 N         138.6160   42.9580   45.4580 N.am      6 SEP2        0.0000 
     17 N         141.4240   36.7515   49.0865 N.am      2 SEC2        0.0000 
     18 N         140.4450   37.5430   48.3510 N.am     10 SEL2        0.0000 
     19 N         142.4030   35.9600   49.8220 N.am      6 SEP2        0.0000 
     20 N         141.5405   36.0345   44.8260 N.am      2 SEC2        0.0000 
     21 N         140.8770   36.2900   46.2450 N.am     10 SEL2        0.0000 
     22 N         142.2040   35.7790   43.4070 N.am      6 SEP2        0.0000 
     23 CA        140.1300   41.9785   47.2245 C.3       4 GLC5        0.0000 
     24 CA        141.1220   40.1600   46.7020 C.3      12 GLL5        0.0000 
     25 CA        139.1380   43.7970   47.7470 C.3       8 GLP5        0.0000 
     26 CA        143.3685   41.9530   47.4050 C.3       4 GLC5        0.0000 
     27 CA        142.2250   40.9720   46.0310 C.3      12 GLL5        0.0000 
     28 CA        144.5120   42.9340   48.7790 C.3       8 GLP5        0.0000 
     29 O         142.3580   41.9170   42.2510 O.2       1 ALC1        0.0000 
     30 O         142.4270   41.8430   43.7560 O.2       9 ALL1        0.0000 
     31 O         142.2890   41.9910   40.7460 O.2       5 ALP1        0.0000 
     32 O         144.2975   41.2635   42.2500 O.2       1 ALC1        0.0000 
     33 O         144.2450   40.1650   43.1340 O.2       9 ALL1        0.0000 
     34 O         144.3500   42.3620   41.3660 O.2       5 ALP1        0.0000 
     35 CA        144.7990   39.5215   47.6160 C.3       4 GLC5        0.0000 
     36 CA        144.4400   40.4260   45.5900 C.3      12 GLL5        0.0000 
     37 CA        145.1580   38.6170   49.6420 C.3       8 GLP5        0.0000 
     38 CA        144.0910   42.5040   45.3070 C.3       4 GLC5        0.0000 
     39 CA        143.7420   44.5820   45.0240 C.3       8 GLP5        0.0000 
     40 CA        144.4760   41.6800   47.1845 C.3       4 GLC5        0.0000 
     41 N         148.7830   38.6920   46.0485 N.am      2 SEC2        0.0000 
     42 N         147.5310   38.7180   46.4790 N.am     10 SEL2        0.0000 
     43 N         150.0350   38.6660   45.6180 N.am      6 SEP2        0.0000 
     44 CA        147.6620   37.6330   48.1855 C.3       4 GLC5        0.0000 
     45 CA        146.7200   37.6570   46.4820 C.3      12 GLL5        0.0000 
     46 CA        148.6040   37.6090   49.8890 C.3       8 GLP5        0.0000 
     47 CA        148.4065   38.4690   45.3930 C.3       4 GLC5        0.0000 
     48 CA        150.0930   39.2810   44.3040 C.3       8 GLP5        0.0000 
     49 CA        148.0645   36.7200   45.0545 C.3       4 GLC5        0.0000 
     50 CA        149.4090   35.7830   43.6270 C.3       8 GLP5        0.0000 
     51 N         148.5395   34.5825   47.5665 N.am      2 SEC2        0.0000 
     52 N         147.9850   35.7420   47.0300 N.am     10 SEL2        0.0000 
     53 N         149.0940   33.4230   48.1030 N.am      6 SEP2        0.0000 
     54 O         143.1600   33.8150   47.1045 O.2       1 ALC1        0.0000 
     55 O         143.4840   35.1150   46.2390 O.2       9 ALL1        0.0000 
     56 O         142.8360   32.5150   47.9700 O.2       5 ALP1        0.0000 
     57 CA        142.2142   39.8860   48.1778 C.3       4 GLC5        0.0000 
     58 CA        142.7550   39.2060   49.9890 C.3       8 GLP5        0.0000 
     59 CA        143.0097   42.6980   45.1553 C.3       4 GLC5        0.0000 
     60 CA        145.6037   38.2597   47.9757 C.3       4 GLC5        0.0000 
     61 CA        145.3790   38.1480   46.1370 C.3      12 GLL5        0.0000 
@<TRIPOS>BOND
@<TRIPOS>SUBSTRUCTURE
     1 ALC1       29 GROUP        1 X    ALC  0     ROOT ALC X 1
     2 SEC2        4 GROUP        1 X    SEC  0     **** SEC X 2
     3 LYC4        1 GROUP        1 X    LYC  0     **** LYC X 4
     4 GLC5       23 GROUP        1 X    GLC  0     **** GLC X 6
     5 ALP1       31 GROUP        1 Y    ALP  0     ROOT ALP Y 8
     6 SEP2        6 GROUP        1 Y    SEP  0     **** SEP Y 9
     7 LYP4        3 GROUP        1 Y    LYP  0     **** LYP Y 11
     8 GLP5       25 GROUP        1 Y    GLP  0     **** GLP Y 13
     9 ALL1       30 GROUP        1 Z    ALL  0     ROOT ALL Z 15
    10 SEL2        5 GROUP        1 Z    SEL  0     **** SEL Z 16
    11 LYL4        2 GROUP        1 Z    LYL  0     **** LYL Z 18
    12 GLL5       24 GROUP        1 Z    GLL  0     **** GLL Z 20
@<TRIPOS>SET

