#    Name: 2z1m_GDP_4_ligand
#    Modification time : Tue Mar 25 09:53:13 2014

@<TRIPOS>MOLECULE
2z1m_GDP_4_ligand
   40    42     1     0     0
SMALL
NO_CHARGES


@<TRIPOS>ATOM
      1 PB        138.3640   38.5060   45.0050 P.3       1 GDP1102     0.0000 
      2 O1B       137.2700   37.5440   44.5920 O.co2     1 GDP1102     0.0000 
      3 O2B       139.4620   38.4970   43.9690 O.co2     1 GDP1102     0.0000 
      4 O3B       137.7440   39.9040   45.1400 O.co2     1 GDP1102     0.0000 
      5 O3A       138.8740   37.9740   46.4400 O.3       1 GDP1102     0.0000 
      6 PA        140.3930   37.5960   46.8390 P.3       1 GDP1102     0.0000 
      7 O1A       140.4450   37.5430   48.3510 O.co2     1 GDP1102     0.0000 
      8 O2A       140.8770   36.2900   46.2450 O.co2     1 GDP1102     0.0000 
      9 O5'       141.2410   38.8140   46.2270 O.3       1 GDP1102     0.0000 
     10 C5'       141.1220   40.1600   46.7020 C.3       1 GDP1102     0.0000 
     11 C4'       142.2250   40.9720   46.0310 C.3       1 GDP1102     0.0000 
     12 O4'       143.4720   40.5990   46.6270 O.3       1 GDP1102     0.0000 
     13 C3'       142.3300   40.6560   44.5420 C.3       1 GDP1102     0.0000 
     14 O3'       142.4270   41.8430   43.7560 O.3       1 GDP1102     0.0000 
     15 C2'       143.6330   39.9100   44.4000 C.3       1 GDP1102     0.0000 
     16 O2'       144.2450   40.1650   43.1340 O.3       1 GDP1102     0.0000 
     17 C1'       144.4400   40.4260   45.5900 C.3       1 GDP1102     0.0000 
     18 N9        145.5080   39.4700   45.9640 N.pl3     1 GDP1102     0.0000 
     19 C8        146.7930   39.8020   46.1640 C.2       1 GDP1102     0.0000 
     20 N7        147.5310   38.7180   46.4790 N.2       1 GDP1102     0.0000 
     21 C5        146.7200   37.6570   46.4820 C.2       1 GDP1102     0.0000 
     22 C6        146.8680   36.2100   46.7370 C.2       1 GDP1102     0.0000 
     23 O6        147.9850   35.7420   47.0300 O.2       1 GDP1102     0.0000 
     24 N1        145.7740   35.4380   46.6320 N.am      1 GDP1102     0.0000 
     25 C2        144.5570   35.9440   46.3150 C.2       1 GDP1102     0.0000 
     26 N2        143.4840   35.1150   46.2390 N.pl3     1 GDP1102     0.0000 
     27 N3        144.3550   37.2650   46.0760 N.2       1 GDP1102     0.0000 
     28 C4        145.3790   38.1480   46.1370 C.2       1 GDP1102     0.0000 
     29 H         141.2613   40.2242   47.7763 H         1 GDP1102     0.0000 
     30 H         140.1674   40.6011   46.4342 H         1 GDP1102     0.0000 
     31 H         142.0306   42.0086   46.1570 H         1 GDP1102     0.0000 
     32 H         141.5410   40.0230   44.2606 H         1 GDP1102     0.0000 
     33 H         143.4302   38.8702   44.5739 H         1 GDP1102     0.0000 
     34 H         144.8595   41.3734   45.3016 H         1 GDP1102     0.0000 
     35 H         147.1529   40.7153   46.0912 H         1 GDP1102     0.0000 
     36 H         145.8595   34.3971   46.8017 H         1 GDP1102     0.0000 
     37 H         142.6085   35.5472   46.0228 H         1 GDP1102     0.0000 
     38 H         143.6642   34.1456   46.4059 H         1 GDP1102     0.0000 
     39 H         142.3883   41.5290   42.8074 H         1 GDP1102     0.0000 
     40 H         144.1025   41.1411   42.9696 H         1 GDP1102     0.0000 
@<TRIPOS>BOND
     1    2    1 ar   
     2    3    1 ar   
     3    4    1 ar   
     4    5    1 1    
     5    6    5 1    
     6    7    6 ar   
     7    8    6 ar   
     8    9    6 1    
     9   10    9 1    
    10   11   10 1    
    11   29   10 1    
    12   30   10 1    
    13   12   11 1    
    14   13   11 1    
    15   31   11 1    
    16   17   12 1    
    17   14   13 1    
    18   15   13 1    
    19   32   13 1    
    20   39   14 1    
    21   16   15 1    
    22   17   15 1    
    23   33   15 1    
    24   40   16 1    
    25   18   17 1    
    26   34   17 1    
    27   19   18 1    
    28   28   18 1    
    29   20   19 2    
    30   35   19 1    
    31   21   20 1    
    32   22   21 1    
    33   28   21 2    
    34   23   22 2    
    35   24   22 am   
    36   25   24 1    
    37   36   24 1    
    38   26   25 1    
    39   27   25 2    
    40   37   26 1    
    41   38   26 1    
    42   28   27 1    
@<TRIPOS>SUBSTRUCTURE
     1 GDP1102     1 GROUP   
@<TRIPOS>SET

