#    Name: 2q54_MU1_1_INTS_M
#    Modification time : Mon Mar 24 20:45:01 2014

@<TRIPOS>MOLECULE
2q54_MU1_1_INTS_M
   85     0     9     0     0
SMALL
NO_CHARGES


@<TRIPOS>ATOM
      1 N          22.8155    4.8700   18.0845 N.am      2 SEC2        0.0000 
      2 N          21.9950    4.1030   19.0340 N.am      8 SEL2        0.0000 
      3 N          23.6360    5.6370   17.1350 N.am      5 SEP2        0.0000 
      4 O          21.9760    1.3165   21.2285 O.2       1 ALC1        0.0000 
      5 O          22.0460    2.0390   19.8830 O.2       7 ALL1        0.0000 
      6 O          21.9060    0.5940   22.5740 O.2       4 ALP1        0.0000 
      7 CA         22.6820    2.6325   17.0910 C.3       3 GLC5        0.0000 
      8 CA         22.3640    1.3790   18.6270 C.3       9 GLL5        0.0000 
      9 CA         23.0000    3.8860   15.5550 C.3       6 GLP5        0.0000 
     10 CA         24.8480   -1.3090   16.3040 C.3       3 GLC5        0.0000 
     11 CA         24.0060   -0.0890   17.4180 C.3       9 GLL5        0.0000 
     12 CA         25.6900   -2.5290   15.1900 C.3       6 GLP5        0.0000 
     13 CA         26.4095    3.2435   19.1165 C.3       3 GLC5        0.0000 
     14 CA         24.8440    1.7510   18.9380 C.3       9 GLL5        0.0000 
     15 CA         27.9750    4.7360   19.2950 C.3       6 GLP5        0.0000 
     16 CA         26.6730    1.0230   18.8350 C.3       3 GLC5        0.0000 
     17 CA         28.5020    0.2950   18.7320 C.3       6 GLP5        0.0000 
     18 CA         26.0320    0.8545   20.4700 C.3       3 GLC5        0.0000 
     19 CA         27.2200   -0.0420   22.0020 C.3       6 GLP5        0.0000 
     20 O          20.3515    2.0955   16.5975 O.2       1 ALC1        0.0000 
     21 O          20.4190    0.8130   17.3670 O.2       7 ALL1        0.0000 
     22 O          20.2840    3.3780   15.8280 O.2       4 ALP1        0.0000 
     23 CA         16.2565    0.1960   16.8975 C.3       3 GLC5        0.0000 
     24 CA         17.9180    0.8490   17.4210 C.3       9 GLL5        0.0000 
     25 CA         14.5950   -0.4570   16.3740 C.3       6 GLP5        0.0000 
     26 CA         16.4505    0.5105   22.3715 C.3       3 GLC5        0.0000 
     27 CA         17.8820    1.0220   21.2130 C.3       9 GLL5        0.0000 
     28 CA         15.0190   -0.0010   23.5300 C.3       6 GLP5        0.0000 
     29 CA         16.3225    1.8740   22.5315 C.3       3 GLC5        0.0000 
     30 CA         18.1760    2.3660   21.4320 C.3       9 GLL5        0.0000 
     31 CA         14.4690    1.3820   23.6310 C.3       6 GLP5        0.0000 
     32 CA         17.4590    3.7995   17.4280 C.3       3 GLC5        0.0000 
     33 CA         18.2880    2.7120   19.0560 C.3       9 GLL5        0.0000 
     34 CA         16.6300    4.8870   15.8000 C.3       6 GLP5        0.0000 
     35 CA         19.4110    2.0000   14.5290 C.3       3 GLC5        0.0000 
     36 CA         19.0840    0.0230   15.4800 C.3       9 GLL5        0.0000 
     37 CA         19.7380    3.9770   13.5780 C.3       6 GLP5        0.0000 
     38 N          20.9175    0.6735   12.7290 N.am      2 SEC2        0.0000 
     39 N          20.1560   -0.1430   13.3740 N.am      8 SEL2        0.0000 
     40 N          21.6790    1.4900   12.0840 N.am      5 SEP2        0.0000 
     41 O          18.8425    0.3150   13.2405 O.2       1 ALC1        0.0000 
     42 O          20.1560   -0.1430   13.3740 O.2       7 ALL1        0.0000 
     43 O          17.5290    0.7730   13.1070 O.2       4 ALP1        0.0000 
     44 CA         22.8660   -3.8480   11.7415 C.3       3 GLC5        0.0000 
     45 CA         21.9940   -4.6770   13.3350 C.3       9 GLL5        0.0000 
     46 CA         23.7380   -3.0190   10.1480 C.3       6 GLP5        0.0000 
     47 CA         23.7520   -7.8940   15.5055 C.3       3 GLC5        0.0000 
     48 CA         22.4970   -6.6080   14.6880 C.3       9 GLL5        0.0000 
     49 CA         25.0070   -9.1800   16.3230 C.3       6 GLP5        0.0000 
     50 CA         23.5280   -7.1610   16.6675 C.3       3 GLC5        0.0000 
     51 CA         22.6100   -5.7840   15.8060 C.3       9 GLL5        0.0000 
     52 CA         24.4460   -8.5380   17.5290 C.3       6 GLP5        0.0000 
     53 CA         23.5085   -4.2250   17.5750 C.3       3 GLC5        0.0000 
     54 CA         22.4180   -4.4100   15.6990 C.3       9 GLL5        0.0000 
     55 CA         24.5990   -4.0400   19.4510 C.3       6 GLP5        0.0000 
     56 O          19.7920   -2.7985   12.7930 O.2       1 ALC1        0.0000 
     57 O          19.4970   -2.8280   14.4180 O.2       7 ALL1        0.0000 
     58 O          20.0870   -2.7690   11.1680 O.2       4 ALP1        0.0000 
     59 CA         17.6650   -3.6330   12.4615 C.3       3 GLC5        0.0000 
     60 CA         17.9480   -4.7220   14.3540 C.3       9 GLL5        0.0000 
     61 CA         17.3820   -2.5440   10.5690 C.3       6 GLP5        0.0000 
     62 CA         19.3395   -6.5310   16.4205 C.3       3 GLC5        0.0000 
     63 CA         18.4220   -6.1510   14.6110 C.3       9 GLL5        0.0000 
     64 CA         20.2570   -6.9110   18.2300 C.3       6 GLP5        0.0000 
     65 N          17.5730   -5.2705   10.2575 N.am      2 SEC2        0.0000 
     66 N          18.3490   -5.9640   11.1580 N.am      8 SEL2        0.0000 
     67 N          16.7970   -4.5770    9.3570 N.am      5 SEP2        0.0000 
     68 CA         17.3965   -7.8015   10.1955 C.3       3 GLC5        0.0000 
     69 CA         18.4250   -8.7490   11.9420 C.3       9 GLL5        0.0000 
     70 CA         16.3680   -6.8540    8.4490 C.3       6 GLP5        0.0000 
     71 CA         24.5907   -1.2255   18.6515 C.3       3 GLC5        0.0000 
     72 CA         25.3080   -2.7650   19.2500 C.3       6 GLP5        0.0000 
     73 CA         24.2029    1.9573   16.8188 C.3       3 GLC5        0.0000 
     74 CA         24.0470    2.8820   15.1420 C.3       6 GLP5        0.0000 
     75 CA         19.1228   -0.4728   21.2517 C.3       3 GLC5        0.0000 
     76 CA         17.7930    0.5270   19.9120 C.3       9 GLL5        0.0000 
     77 CA         20.4080   -1.7200   21.9410 C.3       6 GLP5        0.0000 
     78 CA         17.5123   -1.3187   20.7802 C.3       3 GLC5        0.0000 
     79 CA         17.1870   -3.4120   20.9980 C.3       6 GLP5        0.0000 
     80 CA         16.4205    3.5945   20.3639 C.3       3 GLC5        0.0000 
     81 CA         14.5590    4.4390   20.7540 C.3       6 GLP5        0.0000 
     82 CA         24.1096   -5.7553   13.3405 C.3       3 GLC5        0.0000 
     83 CA         25.9260   -5.5240   12.6410 C.3       6 GLP5        0.0000 
     84 CA         23.9505   -3.1439   15.1206 C.3       3 GLC5        0.0000 
     85 CA         21.3714   -6.1070   16.8515 C.3       3 GLC5        0.0000 
@<TRIPOS>BOND
@<TRIPOS>SUBSTRUCTURE
     1 ALC1        4 GROUP        1 X    ALC  0     ROOT ALC X 1
     2 SEC2        1 GROUP        1 X    SEC  0     **** SEC X 2
     3 GLC5        7 GROUP        1 X    GLC  0     **** GLC X 6
     4 ALP1        6 GROUP        1 Y    ALP  0     ROOT ALP Y 8
     5 SEP2        3 GROUP        1 Y    SEP  0     **** SEP Y 9
     6 GLP5        9 GROUP        1 Y    GLP  0     **** GLP Y 13
     7 ALL1        5 GROUP        1 Z    ALL  0     ROOT ALL Z 15
     8 SEL2        2 GROUP        1 Z    SEL  0     **** SEL Z 16
     9 GLL5        8 GROUP        1 Z    GLL  0     **** GLL Z 20
@<TRIPOS>SET

