#    Name: 2q54_MU1_1_ligand
#    Modification time : Mon Mar 24 20:45:01 2014

@<TRIPOS>MOLECULE
2q54_MU1_1_ligand
   92    95     1     0     0
SMALL
NO_CHARGES


@<TRIPOS>ATOM
      1 O1         21.9950    4.1030   19.0340 O.2       1 MU1200      0.0000 
      2 C3         21.9140    3.3640   19.9990 C.2       1 MU1200      0.0000 
      3 C2         21.6800    3.8920   21.3880 C.3       1 MU1200      0.0000 
      4 N1         22.0460    2.0390   19.8830 N.am      1 MU1200      0.0000 
      5 C10        22.3640    1.3790   18.6270 C.3       1 MU1200      0.0000 
      6 C13        23.7410    0.7170   18.6880 C.3       1 MU1200      0.0000 
      7 C14        24.0060   -0.0890   17.4180 C.3       1 MU1200      0.0000 
      8 C15        24.8440    1.7510   18.9380 C.3       1 MU1200      0.0000 
      9 C11        21.2890    0.3830   18.2760 C.2       1 MU1200      0.0000 
     10 O2         21.2460   -0.7000   18.8380 O.2       1 MU1200      0.0000 
     11 N3         20.4190    0.8130   17.3670 N.am      1 MU1200      0.0000 
     12 C12        19.1950    0.1150   16.9830 C.3       1 MU1200      0.0000 
     13 C22        17.9180    0.8490   17.4210 C.3       1 MU1200      0.0000 
     14 C20        18.0050    1.3720   18.8350 C.ar      1 MU1200      0.0000 
     15 C21        17.7930    0.5270   19.9120 C.ar      1 MU1200      0.0000 
     16 C16        17.8820    1.0220   21.2130 C.ar      1 MU1200      0.0000 
     17 C17        18.1760    2.3660   21.4320 C.ar      1 MU1200      0.0000 
     18 C18        18.3760    3.2100   20.3510 C.ar      1 MU1200      0.0000 
     19 C19        18.2880    2.7120   19.0560 C.ar      1 MU1200      0.0000 
     20 C23        19.0840    0.0230   15.4800 C.3       1 MU1200      0.0000 
     21 C24        20.3240   -0.4710   14.7690 C.3       1 MU1200      0.0000 
     22 O4         20.1560   -0.1430   13.3740 O.3       1 MU1200      0.0000 
     23 C25        20.5530   -1.9740   14.9720 C.3       1 MU1200      0.0000 
     24 C29        21.8940   -2.3610   14.3460 C.3       1 MU1200      0.0000 
     25 C4         22.1140   -3.8540   14.4610 C.ar      1 MU1200      0.0000 
     26 C5         21.9940   -4.6770   13.3350 C.ar      1 MU1200      0.0000 
     27 C6         22.1850   -6.0530   13.4490 C.ar      1 MU1200      0.0000 
     28 C7         22.4970   -6.6080   14.6880 C.ar      1 MU1200      0.0000 
     29 C8         22.6100   -5.7840   15.8060 C.ar      1 MU1200      0.0000 
     30 C9         22.4180   -4.4100   15.6990 C.ar      1 MU1200      0.0000 
     31 N4         19.4970   -2.8280   14.4180 N.am      1 MU1200      0.0000 
     32 C26        18.8020   -3.7360   15.1240 C.2       1 MU1200      0.0000 
     33 O5         18.8420   -3.8510   16.3450 O.2       1 MU1200      0.0000 
     34 C27        17.9480   -4.7220   14.3540 C.3       1 MU1200      0.0000 
     35 C32        18.4220   -6.1510   14.6110 C.3       1 MU1200      0.0000 
     36 O28        18.0250   -4.5340   12.9350 O.3       1 MU1200      0.0000 
     37 C30        18.3380   -5.8110   12.3450 C.2       1 MU1200      0.0000 
     38 O30        18.3490   -5.9640   11.1580 O.2       1 MU1200      0.0000 
     39 N31        18.5660   -6.7030   13.2790 N.am      1 MU1200      0.0000 
     40 C33        18.9390   -8.0430   13.0270 C.ar      1 MU1200      0.0000 
     41 C38        18.4250   -8.7490   11.9420 C.ar      1 MU1200      0.0000 
     42 C37        18.8120  -10.0690   11.7190 C.ar      1 MU1200      0.0000 
     43 C36        19.7060  -10.7120   12.5770 C.ar      1 MU1200      0.0000 
     44 C34        19.8410   -8.6960   13.8800 C.ar      1 MU1200      0.0000 
     45 C35        20.2320  -10.0250   13.6680 C.ar      1 MU1200      0.0000 
     46 C39        21.2010  -10.6950   14.6150 C.2       1 MU1200      0.0000 
     47 O39        21.5190  -10.1410   15.6630 O.2       1 MU1200      0.0000 
     48 C40        21.7700  -12.0480   14.2840 C.3       1 MU1200      0.0000 
     49 H          21.9237    1.4026   20.7093 H         1 MU1200      0.0000 
     50 H          22.3989    2.1291   17.8238 H         1 MU1200      0.0000 
     51 H          23.7375    0.0189   19.5333 H         1 MU1200      0.0000 
     52 H          20.5804    1.7295   16.8514 H         1 MU1200      0.0000 
     53 H          19.1555   -0.8803   17.3806 H         1 MU1200      0.0000 
     54 H          17.0702    0.1574   17.3352 H         1 MU1200      0.0000 
     55 H          17.7393    1.6825   16.7299 H         1 MU1200      0.0000 
     56 H          17.5701   -0.4645   19.7571 H         1 MU1200      0.0000 
     57 H          17.7301    0.3927   22.0119 H         1 MU1200      0.0000 
     58 H          18.2435    2.7264   22.3907 H         1 MU1200      0.0000 
     59 H          18.5895    4.2045   20.5047 H         1 MU1200      0.0000 
     60 H          18.4345    3.3450   18.2539 H         1 MU1200      0.0000 
     61 H          18.8140    1.0235   15.0767 H         1 MU1200      0.0000 
     62 H          18.2327   -0.6442   15.2217 H         1 MU1200      0.0000 
     63 H          21.1766    0.0660   15.1736 H         1 MU1200      0.0000 
     64 H          20.6498   -2.1533   16.0494 H         1 MU1200      0.0000 
     65 H          22.6923   -1.8321   14.8617 H         1 MU1200      0.0000 
     66 H          21.8936   -2.0702   13.2980 H         1 MU1200      0.0000 
     67 H          21.7644   -4.2630   12.4230 H         1 MU1200      0.0000 
     68 H          22.0960   -6.6547   12.6230 H         1 MU1200      0.0000 
     69 H          22.6430   -7.6192   14.7772 H         1 MU1200      0.0000 
     70 H          22.8388   -6.1985   16.7239 H         1 MU1200      0.0000 
     71 H          22.5002   -3.8119   16.5274 H         1 MU1200      0.0000 
     72 H          19.3059   -2.6822   13.3883 H         1 MU1200      0.0000 
     73 H          16.9272   -4.6572   14.6952 H         1 MU1200      0.0000 
     74 H          17.6723   -6.6630   15.1746 H         1 MU1200      0.0000 
     75 H          19.3561   -6.1127   15.1286 H         1 MU1200      0.0000 
     76 H          17.7582   -8.2954   11.3037 H         1 MU1200      0.0000 
     77 H          18.4314  -10.5814   10.9052 H         1 MU1200      0.0000 
     78 H          19.9733  -11.6865   12.4031 H         1 MU1200      0.0000 
     79 H          20.2300   -8.1792   14.6920 H         1 MU1200      0.0000 
     80 H          21.6406    3.1557   22.0635 H         1 MU1200      0.0000 
     81 H          22.4072    4.5152   21.6758 H         1 MU1200      0.0000 
     82 H          20.8189    4.3962   21.4535 H         1 MU1200      0.0000 
     83 H          24.9019   -0.5327   17.4399 H         1 MU1200      0.0000 
     84 H          23.3252   -0.8096   17.2866 H         1 MU1200      0.0000 
     85 H          23.9843    0.4873   16.6011 H         1 MU1200      0.0000 
     86 H          25.7486    1.3266   18.9789 H         1 MU1200      0.0000 
     87 H          24.8766    2.4414   18.2153 H         1 MU1200      0.0000 
     88 H          24.7088    2.2368   19.8016 H         1 MU1200      0.0000 
     89 H          22.2843  -12.0349   13.4265 H         1 MU1200      0.0000 
     90 H          22.3938  -12.3726   14.9950 H         1 MU1200      0.0000 
     91 H          21.0532  -12.7383   14.1854 H         1 MU1200      0.0000 
     92 H          19.1769   -0.2476   13.1998 H         1 MU1200      0.0000 
@<TRIPOS>BOND
     1    2    1 2    
     2    3    2 1    
     3    4    2 am   
     4   80    3 1    
     5   81    3 1    
     6   82    3 1    
     7    5    4 1    
     8   49    4 1    
     9    6    5 1    
    10    9    5 1    
    11   50    5 1    
    12    7    6 1    
    13    8    6 1    
    14   51    6 1    
    15   83    7 1    
    16   84    7 1    
    17   85    7 1    
    18   86    8 1    
    19   87    8 1    
    20   88    8 1    
    21   10    9 2    
    22   11    9 am   
    23   12   11 1    
    24   52   11 1    
    25   13   12 1    
    26   20   12 1    
    27   53   12 1    
    28   14   13 1    
    29   54   13 1    
    30   55   13 1    
    31   15   14 ar   
    32   19   14 ar   
    33   16   15 ar   
    34   56   15 1    
    35   17   16 ar   
    36   57   16 1    
    37   18   17 ar   
    38   58   17 1    
    39   19   18 ar   
    40   59   18 1    
    41   60   19 1    
    42   21   20 1    
    43   61   20 1    
    44   62   20 1    
    45   22   21 1    
    46   23   21 1    
    47   63   21 1    
    48   92   22 1    
    49   24   23 1    
    50   31   23 1    
    51   64   23 1    
    52   25   24 1    
    53   65   24 1    
    54   66   24 1    
    55   26   25 ar   
    56   30   25 ar   
    57   27   26 ar   
    58   67   26 1    
    59   28   27 ar   
    60   68   27 1    
    61   29   28 ar   
    62   69   28 1    
    63   30   29 ar   
    64   70   29 1    
    65   71   30 1    
    66   32   31 am   
    67   72   31 1    
    68   33   32 2    
    69   34   32 1    
    70   35   34 1    
    71   36   34 1    
    72   73   34 1    
    73   39   35 1    
    74   74   35 1    
    75   75   35 1    
    76   37   36 1    
    77   38   37 2    
    78   39   37 am   
    79   40   39 1    
    80   41   40 ar   
    81   44   40 ar   
    82   42   41 ar   
    83   76   41 1    
    84   43   42 ar   
    85   77   42 1    
    86   45   43 ar   
    87   78   43 1    
    88   45   44 ar   
    89   79   44 1    
    90   46   45 1    
    91   47   46 2    
    92   48   46 1    
    93   89   48 1    
    94   90   48 1    
    95   91   48 1    
@<TRIPOS>SUBSTRUCTURE
     1 MU1200      1 GROUP   
@<TRIPOS>SET

