#    Name: 1DP2_1_CAVITY_N1_ALL.mol2
#    Modification time : Mon Mar 10 18:53:30 2014

@<TRIPOS>MOLECULE
1DP2_1_CAVITY_N1_ALL.mol2
   71     0     6     0     0
SMALL
NO_CHARGES


@<TRIPOS>ATOM
      1 CA         42.5117   17.1486   33.6572 C.3       5 GLY6        0.0000 
      2 OG         41.3124   18.0356   33.4993 O.2       1 SER1        0.0000 
      3 O          42.4847   12.5435   36.4930 O.2       2 ALA2        0.0000 
      4 CA         41.6762   11.5997   37.3330 C.3       5 GLY6        0.0000 
      5 CA         40.8677   10.6560   38.1731 C.3       5 GLY6        0.0000 
      6 OG         43.7176   18.8491   34.0498 O.2       1 SER1        0.0000 
      7 CA         44.1084   17.0184   35.0477 C.3       5 GLY6        0.0000 
      8 OG         42.9091   17.9053   34.8898 O.2       1 SER1        0.0000 
      9 O          43.2999   16.0746   35.8877 O.2       2 ALA2        0.0000 
     10 DU         42.1005   16.9616   35.7298 H         6 CUB7        0.0000 
     11 OG         40.9012   17.8486   35.5719 O.2       1 SER1        0.0000 
     12 O          42.4913   15.1309   36.7277 O.2       2 ALA2        0.0000 
     13 DU         41.2920   16.0179   36.5699 H         6 CUB7        0.0000 
     14 O          41.6828   14.1872   37.5678 O.2       2 ALA2        0.0000 
     15 DU         40.4835   15.0741   37.4099 H         6 CUB7        0.0000 
     16 CA         43.2729   11.4695   38.7236 C.3       5 GLY6        0.0000 
     17 CA         42.0736   12.3565   38.5657 C.3       5 GLY6        0.0000 
     18 DU         40.8743   13.2435   38.4078 H         6 CUB7        0.0000 
     19 DU         39.6749   14.1304   38.2499 H         6 CUB7        0.0000 
     20 CA         41.2651   11.4128   39.4057 C.3       5 GLY6        0.0000 
     21 CA         40.0657   12.2997   39.2478 C.3       5 GLY6        0.0000 
     22 CA         40.4565   10.4690   40.2458 C.3       5 GLY6        0.0000 
     23 CA         39.2572   11.3560   40.0879 C.3       5 GLY6        0.0000 
     24 OD1        45.3143   18.7189   35.4403 O.3       3 ASP3        0.0000 
     25 OD1        44.1150   19.6058   35.2824 O.3       3 ASP3        0.0000 
     26 O          44.5058   17.7751   36.2803 O.2       2 ALA2        0.0000 
     27 OG         43.3065   18.6621   36.1225 O.2       1 SER1        0.0000 
     28 OG         42.1071   19.5491   35.9646 O.2       1 SER1        0.0000 
     29 O          43.6972   16.8314   37.1204 O.2       2 ALA2        0.0000 
     30 DU         42.4979   17.7184   36.9625 H         6 CUB7        0.0000 
     31 OG         41.2986   18.6053   36.8046 O.2       1 SER1        0.0000 
     32 O          42.8887   15.8877   37.9604 O.2       2 ALA2        0.0000 
     33 CZ         41.6894   16.7746   37.8025 C.ar      4 PHE5        0.0000 
     34 CZ         40.4901   17.6616   37.6446 C.ar      4 PHE5        0.0000 
     35 O          44.4788   13.1700   39.1162 O.2       2 ALA2        0.0000 
     36 O          43.2795   14.0570   38.9583 O.2       2 ALA2        0.0000 
     37 O          42.0802   14.9439   38.8004 O.2       2 ALA2        0.0000 
     38 CZ         40.8809   15.8309   38.6425 C.ar      4 PHE5        0.0000 
     39 CZ         39.6815   16.7179   38.4846 C.ar      4 PHE5        0.0000 
     40 O          43.6703   12.2263   39.9562 O.2       2 ALA2        0.0000 
     41 CZ         42.4710   13.1132   39.7983 C.ar      4 PHE5        0.0000 
     42 CZ         41.2716   14.0002   39.6405 C.ar      4 PHE5        0.0000 
     43 CZ         40.0723   14.8872   39.4826 C.ar      4 PHE5        0.0000 
     44 O          42.8618   11.2825   40.7963 O.2       2 ALA2        0.0000 
     45 CZ         41.6624   12.1695   40.6384 C.ar      4 PHE5        0.0000 
     46 CA         40.4631   13.0565   40.4805 C.3       5 GLY6        0.0000 
     47 CA         39.2638   13.9434   40.3226 C.3       5 GLY6        0.0000 
     48 CA         46.1025   17.6449   37.6709 C.3       5 GLY6        0.0000 
     49 CA         44.9031   18.5319   37.5130 C.3       5 GLY6        0.0000 
     50 CA         43.7038   19.4188   37.3551 C.3       5 GLY6        0.0000 
     51 CZ         42.5045   20.3058   37.1972 C.ar      4 PHE5        0.0000 
     52 O          46.4933   15.8142   38.6688 O.2       2 ALA2        0.0000 
     53 O          45.2939   16.7012   38.5109 O.2       2 ALA2        0.0000 
     54 CZ         44.0946   17.5881   38.3530 C.ar      4 PHE5        0.0000 
     55 CZ         42.8953   18.4751   38.1951 C.ar      4 PHE5        0.0000 
     56 CZ         41.6960   19.3621   38.0372 C.ar      4 PHE5        0.0000 
     57 O          45.6847   14.8705   39.5088 O.2       2 ALA2        0.0000 
     58 O          44.4854   15.7575   39.3509 O.2       2 ALA2        0.0000 
     59 CZ         43.2861   16.6444   39.1930 C.ar      4 PHE5        0.0000 
     60 CZ         44.8762   13.9268   40.3489 C.ar      4 PHE5        0.0000 
     61 CZ         43.6769   14.8137   40.1910 C.ar      4 PHE5        0.0000 
     62 CZ         42.4776   15.7007   40.0331 C.ar      4 PHE5        0.0000 
     63 CA         46.4998   18.4017   38.9035 C.3       5 GLY6        0.0000 
     64 CA         45.3005   19.2886   38.7456 C.3       5 GLY6        0.0000 
     65 CA         44.1012   20.1756   38.5877 C.3       5 GLY6        0.0000 
     66 CA         46.8906   16.5710   39.9015 C.3       5 GLY6        0.0000 
     67 CA         45.6913   17.4579   39.7436 C.3       5 GLY6        0.0000 
     68 CZ         44.4920   18.3449   39.5857 C.ar      4 PHE5        0.0000 
     69 CZ         42.0933   20.1188   39.2699 C.ar      4 PHE5        0.0000 
     70 OG         46.0821   15.6272   40.7415 O.2       1 SER1        0.0000 
     71 CA         44.8828   16.5142   40.5836 C.3       5 GLY6        0.0000 
@<TRIPOS>BOND
@<TRIPOS>SUBSTRUCTURE
     1 SER1        2 GROUP   
     2 ALA2        3 GROUP   
     3 ASP3       24 GROUP   
     4 PHE5       33 GROUP   
     5 GLY6        1 GROUP   
     6 CUB7       10 GROUP   
@<TRIPOS>SET

