#    Name: 1dp2_LPB_1_ligand
#    Modification time : Mon Mar 24 22:15:53 2014

@<TRIPOS>MOLECULE
1dp2_LPB_1_ligand
   25    25     1     0     0
SMALL
NO_CHARGES


@<TRIPOS>ATOM
      1 O1         42.0910   11.3360   36.0580 O.co2     1 LPB900      0.0000 
      2 O2         42.0720   12.9790   37.4180 O.co2     1 LPB900      0.0000 
      3 C1         41.7700   12.4800   36.3390 C.2       1 LPB900      0.0000 
      4 C2         40.9710   13.2580   35.3040 C.3       1 LPB900      0.0000 
      5 C3         41.4630   14.6270   34.8920 C.3       1 LPB900      0.0000 
      6 C4         41.0230   15.6440   35.9170 C.3       1 LPB900      0.0000 
      7 C5         42.0360   16.7530   35.8630 C.3       1 LPB900      0.0000 
      8 C6         42.4540   17.2880   37.2200 C.3       1 LPB900      0.0000 
      9 C7         42.6590   16.1710   38.2560 C.3       1 LPB900      0.0000 
     10 C8         44.0830   15.9560   38.7530 C.3       1 LPB900      0.0000 
     11 S8         45.2810   16.8850   37.7640 S.3       1 LPB900      0.0000 
     12 S6         43.9930   18.1940   36.9490 S.3       1 LPB900      0.0000 
     13 H          39.9134   13.3547   35.6766 H         1 LPB900      0.0000 
     14 H          40.8746   12.6196   34.3821 H         1 LPB900      0.0000 
     15 H          41.0483   14.8845   33.9219 H         1 LPB900      0.0000 
     16 H          42.5472   14.6188   34.8289 H         1 LPB900      0.0000 
     17 H          41.0195   15.1968   36.8934 H         1 LPB900      0.0000 
     18 H          40.0511   16.0214   35.6596 H         1 LPB900      0.0000 
     19 H          41.6300   17.5901   35.2607 H         1 LPB900      0.0000 
     20 H          42.9390   16.3977   35.3276 H         1 LPB900      0.0000 
     21 H          41.8014   18.0426   37.5599 H         1 LPB900      0.0000 
     22 H          42.2820   15.2176   37.8215 H         1 LPB900      0.0000 
     23 H          42.0008   16.3793   39.1297 H         1 LPB900      0.0000 
     24 H          44.4275   14.9500   38.6453 H         1 LPB900      0.0000 
     25 H          44.2554   16.3347   39.7375 H         1 LPB900      0.0000 
@<TRIPOS>BOND
     1    3    1 ar   
     2    3    2 ar   
     3    4    3 1    
     4    5    4 1    
     5   13    4 1    
     6   14    4 1    
     7    6    5 1    
     8   15    5 1    
     9   16    5 1    
    10    7    6 1    
    11   17    6 1    
    12   18    6 1    
    13    8    7 1    
    14   19    7 1    
    15   20    7 1    
    16    9    8 1    
    17   12    8 1    
    18   21    8 1    
    19   10    9 1    
    20   22    9 1    
    21   23    9 1    
    22   11   10 1    
    23   24   10 1    
    24   25   10 1    
    25   12   11 1    
@<TRIPOS>SUBSTRUCTURE
     1 LPB900      1 GROUP   
@<TRIPOS>SET

