#    Name: 3t9f_ADP_1_INTS_M
#    Modification time : Mon Mar 24 19:24:15 2014

@<TRIPOS>MOLECULE
3t9f_ADP_1_INTS_M
   69     0    15     0     0
SMALL
NO_CHARGES


@<TRIPOS>ATOM
      1 N           0.0950   11.0235   11.4780 N.am      2 SEC2        0.0000 
      2 N           1.2320   10.3420   11.2730 N.am     12 SEL2        0.0000 
      3 N          -1.0420   11.7050   11.6830 N.am      7 SEP2        0.0000 
      4 NZ         -0.4115    9.2230    9.4405 N.4       3 LYC4        0.0000 
      5 NZ          0.5390   10.3730    8.8880 N.4      13 LYL4        0.0000 
      6 NZ         -1.1020    7.3620    8.9020 N.4       8 LYP4        0.0000 
      7 N           0.1195    9.1205    8.4255 N.am      2 SEC2        0.0000 
      8 N           0.5390   10.3730    8.8880 N.am     12 SEL2        0.0000 
      9 N          -0.3000    7.8680    7.9630 N.am      7 SEP2        0.0000 
     10 N          -0.4115    9.2230    9.4405 N.am      2 SEC2        0.0000 
     11 N          -1.3620    8.0730    9.9930 N.am      7 SEP2        0.0000 
     12 N          -0.2515   11.0390   10.2855 N.am      2 SEC2        0.0000 
     13 Zn          3.2820   11.8720    8.7990 Zn        4 ZIC7        0.0000 
     14 Zn          2.6230   11.7050    9.5880 Zn       14 ZIL7        0.0000 
     15 Zn          3.9410   12.0390    8.0100 Zn        9 ZIP7        0.0000 
     16 NZ          3.9675    6.3400    7.4345 N.4       3 LYC4        0.0000 
     17 NZ          3.6450    7.6610    7.8650 N.4      13 LYL4        0.0000 
     18 NZ          4.2900    5.0190    7.0040 N.4       8 LYP4        0.0000 
     19 N           3.9675    6.3400    7.4345 N.am      2 SEC2        0.0000 
     20 N           3.6450    7.6610    7.8650 N.am     12 SEL2        0.0000 
     21 N           4.2900    5.0190    7.0040 N.am      7 SEP2        0.0000 
     22 Zn          4.2245   11.0340    8.1065 Zn        4 ZIC7        0.0000 
     23 Zn          4.5080   10.0290    8.2030 Zn       14 ZIL7        0.0000 
     24 N           4.9005   11.1950    7.3870 N.am      2 SEC2        0.0000 
     25 N           4.5080   10.0290    8.2030 N.am     12 SEL2        0.0000 
     26 N           5.2930   12.3610    6.5710 N.am      7 SEP2        0.0000 
     27 CA          7.6365   10.6895   12.3375 C.3       5 GLC5        0.0000 
     28 CA          6.8220    9.2450   11.0380 C.3      15 GLL5        0.0000 
     29 CA          8.4510   12.1340   13.6370 C.3      10 GLP5        0.0000 
     30 CA          7.2995    8.9360    7.6455 C.3       5 GLC5        0.0000 
     31 CA          7.4920    9.5830    9.7040 C.3      15 GLL5        0.0000 
     32 CA          7.1070    8.2890    5.5870 C.3      10 GLP5        0.0000 
     33 O           8.7070   11.8160    9.7550 O.2       1 ALC1        0.0000 
     34 O           7.6750   10.9950    9.5930 O.2      11 ALL1        0.0000 
     35 O           9.7390   12.6370    9.9170 O.2       6 ALP1        0.0000 
     36 CA          9.9500    8.6040    8.0505 C.3       5 GLC5        0.0000 
     37 CA          8.8320    8.8850    9.8650 C.3      15 GLL5        0.0000 
     38 CA         11.0680    8.3230    6.2360 C.3      10 GLP5        0.0000 
     39 O          10.4860   10.4000    9.9815 O.2       1 ALC1        0.0000 
     40 O           9.7160    9.6360   10.7110 O.2      11 ALL1        0.0000 
     41 O          11.2560   11.1640    9.2520 O.2       6 ALP1        0.0000 
     42 CA          7.5160    7.9630   12.5865 C.3       5 GLC5        0.0000 
     43 CA          8.4530    7.6080   10.6100 C.3      15 GLL5        0.0000 
     44 CA          6.5790    8.3180   14.5630 C.3      10 GLP5        0.0000 
     45 CA         10.4735    1.9695    8.3925 C.3       5 GLC5        0.0000 
     46 CA          9.2820    3.6480    7.8700 C.3      15 GLL5        0.0000 
     47 CA         11.6650    0.2910    8.9150 C.3      10 GLP5        0.0000 
     48 CA         10.5950    3.1355    6.2845 C.3       5 GLC5        0.0000 
     49 CA         11.9080    2.6230    4.6990 C.3      10 GLP5        0.0000 
     50 O           7.3815    2.7705    6.7205 O.2       1 ALC1        0.0000 
     51 O           8.6990    2.7480    7.0690 O.2      11 ALL1        0.0000 
     52 O           6.0640    2.7930    6.3720 O.2       6 ALP1        0.0000 
     53 O           9.2375    1.4060    6.9740 O.2       1 ALC1        0.0000 
     54 O           9.7760    0.0640    6.8790 O.2       6 ALP1        0.0000 
     55 N          11.6500    2.7340    7.7845 N.am      2 SEC2        0.0000 
     56 N          10.5960    3.5790    8.1530 N.am     12 SEL2        0.0000 
     57 N          12.7040    1.8890    7.4160 N.am      7 SEP2        0.0000 
     58 CA          9.6890    3.0880    9.8680 C.3       5 GLC5        0.0000 
     59 CA         11.1610    4.4740    8.9670 C.3      15 GLL5        0.0000 
     60 CA          8.2170    1.7020   10.7690 C.3      10 GLP5        0.0000 
     61 CA         11.4130    2.3825    8.9410 C.3       5 GLC5        0.0000 
     62 CA         12.4495    3.4350    7.7375 C.3       5 GLC5        0.0000 
     63 CA         13.7380    2.3960    6.5080 C.3      10 GLP5        0.0000 
     64 CA         10.7555    5.2525    7.2285 C.3       5 GLC5        0.0000 
     65 CA         10.3500    6.0310    5.4900 C.3      10 GLP5        0.0000 
     66 CA          6.3142    8.7810   12.7847 C.3       5 GLC5        0.0000 
     67 CA          8.6214    3.2916    9.7319 C.3       5 GLC5        0.0000 
     68 CA          8.5250    4.6770    8.4130 C.3      15 GLL5        0.0000 
     69 CA          9.6879    5.4561    7.0924 C.3       5 GLC5        0.0000 
@<TRIPOS>BOND
@<TRIPOS>SUBSTRUCTURE
     1 ALC1       33 GROUP        1 X    ALC  0     ROOT ALC X 1
     2 SEC2        1 GROUP        1 X    SEC  0     **** SEC X 2
     3 LYC4        4 GROUP        1 X    LYC  0     **** LYC X 4
     4 ZIC7       13 GROUP        1 X    ZIC  0     **** ZIC X 5
     5 GLC5       27 GROUP        1 X    GLC  0     **** GLC X 6
     6 ALP1       35 GROUP        1 Y    ALP  0     ROOT ALP Y 8
     7 SEP2        3 GROUP        1 Y    SEP  0     **** SEP Y 9
     8 LYP4        6 GROUP        1 Y    LYP  0     **** LYP Y 11
     9 ZIP7       15 GROUP        1 Y    ZIP  0     **** ZIP Y 12
    10 GLP5       29 GROUP        1 Y    GLP  0     **** GLP Y 13
    11 ALL1       34 GROUP        1 Z    ALL  0     ROOT ALL Z 15
    12 SEL2        2 GROUP        1 Z    SEL  0     **** SEL Z 16
    13 LYL4        5 GROUP        1 Z    LYL  0     **** LYL Z 18
    14 ZIL7       14 GROUP        1 Z    ZIL  0     **** ZIL Z 19
    15 GLL5       28 GROUP        1 Z    GLL  0     **** GLL Z 20
@<TRIPOS>SET

