#    Name: 3t9f_ADP_1_ligand
#    Modification time : Mon Mar 24 19:24:15 2014

@<TRIPOS>MOLECULE
3t9f_ADP_1_ligand
   39    41     1     0     0
SMALL
NO_CHARGES


@<TRIPOS>ATOM
      1 PB          1.7310   10.4260    9.8620 P.3       1 ADP401      0.0000 
      2 O1B         1.2320   10.3420   11.2730 O.co2     1 ADP401      0.0000 
      3 O2B         0.5390   10.3730    8.8880 O.co2     1 ADP401      0.0000 
      4 O3B         2.6230   11.7050    9.5880 O.co2     1 ADP401      0.0000 
      5 PA          3.9090    8.7820    8.7740 P.3       1 ADP401      0.0000 
      6 O1A         3.6450    7.6610    7.8650 O.co2     1 ADP401      0.0000 
      7 O2A         4.5080   10.0290    8.2030 O.co2     1 ADP401      0.0000 
      8 O3A         2.5480    9.0330    9.5320 O.3       1 ADP401      0.0000 
      9 O5'         4.8070    8.2950    9.9950 O.3       1 ADP401      0.0000 
     10 C5'         5.2770    9.2430   10.9750 C.3       1 ADP401      0.0000 
     11 C4'         6.8220    9.2450   11.0380 C.3       1 ADP401      0.0000 
     12 O4'         7.2590    7.9090   11.3570 O.3       1 ADP401      0.0000 
     13 C3'         7.4920    9.5830    9.7040 C.3       1 ADP401      0.0000 
     14 O3'         7.6750   10.9950    9.5930 O.3       1 ADP401      0.0000 
     15 C2'         8.8320    8.8850    9.8650 C.3       1 ADP401      0.0000 
     16 O2'         9.7160    9.6360   10.7110 O.3       1 ADP401      0.0000 
     17 C1'         8.4530    7.6080   10.6100 C.3       1 ADP401      0.0000 
     18 N9          8.2410    6.4950    9.6550 N.pl3     1 ADP401      0.0000 
     19 C8          6.9360    6.1610    9.0760 C.2       1 ADP401      0.0000 
     20 N7          7.2360    4.9830    8.2730 N.2       1 ADP401      0.0000 
     21 C5          8.5250    4.6770    8.4130 C.ar      1 ADP401      0.0000 
     22 C6          9.2820    3.6480    7.8700 C.ar      1 ADP401      0.0000 
     23 N6          8.6990    2.7480    7.0690 N.pl3     1 ADP401      0.0000 
     24 N1         10.5960    3.5790    8.1530 N.ar      1 ADP401      0.0000 
     25 C2         11.1610    4.4740    8.9670 C.ar      1 ADP401      0.0000 
     26 N3         10.4610    5.4750    9.5080 N.ar      1 ADP401      0.0000 
     27 C4          9.1480    5.6000    9.2480 C.ar      1 ADP401      0.0000 
     28 H           4.9074    9.0028   11.9792 H         1 ADP401      0.0000 
     29 H           4.9564   10.2641   10.7355 H         1 ADP401      0.0000 
     30 H           7.1475    9.9330   11.7799 H         1 ADP401      0.0000 
     31 H           6.9589    9.1377    8.9346 H         1 ADP401      0.0000 
     32 H           9.2209    8.6341    8.9386 H         1 ADP401      0.0000 
     33 H           9.2663    7.3734   11.2795 H         1 ADP401      0.0000 
     34 H           6.1643    6.5744    9.1893 H         1 ADP401      0.0000 
     35 H           9.1241    1.8433    7.0409 H         1 ADP401      0.0000 
     36 H           7.8906    3.0609    6.5706 H         1 ADP401      0.0000 
     37 H          12.1926    4.3882    9.1901 H         1 ADP401      0.0000 
     38 H           8.4789   11.1965   10.1526 H         1 ADP401      0.0000 
     39 H          10.5412    9.7758   10.1636 H         1 ADP401      0.0000 
@<TRIPOS>BOND
     1    2    1 ar   
     2    3    1 ar   
     3    4    1 ar   
     4    8    1 1    
     5    6    5 ar   
     6    7    5 ar   
     7    8    5 1    
     8    9    5 1    
     9   10    9 1    
    10   11   10 1    
    11   28   10 1    
    12   29   10 1    
    13   12   11 1    
    14   13   11 1    
    15   30   11 1    
    16   17   12 1    
    17   14   13 1    
    18   15   13 1    
    19   31   13 1    
    20   38   14 1    
    21   16   15 1    
    22   17   15 1    
    23   32   15 1    
    24   39   16 1    
    25   18   17 1    
    26   33   17 1    
    27   19   18 1    
    28   27   18 1    
    29   20   19 2    
    30   34   19 1    
    31   21   20 1    
    32   22   21 ar   
    33   27   21 ar   
    34   23   22 1    
    35   24   22 ar   
    36   35   23 1    
    37   36   23 1    
    38   25   24 ar   
    39   26   25 ar   
    40   37   25 1    
    41   27   26 ar   
@<TRIPOS>SUBSTRUCTURE
     1 ADP401      1 GROUP   
@<TRIPOS>SET

