#    Name: 2czc_NAD_1_INTS_M
#    Modification time : Tue Mar 25 01:22:49 2014

@<TRIPOS>MOLECULE
2czc_NAD_1_INTS_M
   77     0     9     0     0
SMALL
NO_CHARGES


@<TRIPOS>ATOM
      1 N          33.6750    9.4525   -4.3010 N.am      2 SEC2        0.0000 
      2 N          34.7440    8.4880   -4.9100 N.am      8 SEL2        0.0000 
      3 N          32.6060   10.4170   -3.6920 N.am      5 SEP2        0.0000 
      4 CA         38.4905   12.1855   -1.5590 C.3       3 GLC5        0.0000 
      5 CA         38.4910   10.8140   -3.0030 C.3       9 GLL5        0.0000 
      6 CA         38.4900   13.5570   -0.1150 C.3       6 GLP5        0.0000 
      7 CA         39.4590   12.6995   -1.7105 C.3       3 GLC5        0.0000 
      8 CA         40.4280   11.8420   -3.3060 C.3       9 GLL5        0.0000 
      9 CA         40.8430    9.9885   -2.7020 C.3       3 GLC5        0.0000 
     10 CA         41.2580    8.1350   -2.0980 C.3       6 GLP5        0.0000 
     11 CA         44.4895   14.3390   -1.5680 C.3       3 GLC5        0.0000 
     12 CA         44.7040   12.1940   -1.4920 C.3       9 GLL5        0.0000 
     13 CA         44.2750   16.4840   -1.6440 C.3       6 GLP5        0.0000 
     14 CA         44.8640   10.2905   -0.4975 C.3       3 GLC5        0.0000 
     15 CA         45.0240    8.3870    0.4970 C.3       6 GLP5        0.0000 
     16 CA         43.6325   14.9250   -1.0400 C.3       3 GLC5        0.0000 
     17 CA         42.9900   13.3660   -0.4360 C.3       9 GLL5        0.0000 
     18 CA         42.3065   12.1340    0.3790 C.3       3 GLC5        0.0000 
     19 CA         41.6230   10.9020    1.1940 C.3       6 GLP5        0.0000 
     20 N          32.8980    8.8160   -1.6075 N.am      2 SEC2        0.0000 
     21 N          34.2340    8.1260   -1.9840 N.am      8 SEL2        0.0000 
     22 N          31.5620    9.5060   -1.2310 N.am      5 SEP2        0.0000 
     23 CA         38.4735    6.1505   -1.0255 C.3       3 GLC5        0.0000 
     24 CA         36.3820    6.4270   -0.4800 C.3       9 GLL5        0.0000 
     25 CA         40.5650    5.8740   -1.5710 C.3       6 GLP5        0.0000 
     26 CA         38.9470    3.5080    0.6190 C.3       3 GLC5        0.0000 
     27 CA         36.9440    4.3690    0.8710 C.3       9 GLL5        0.0000 
     28 CA         40.9500    2.6470    0.3670 C.3       6 GLP5        0.0000 
     29 N          37.2030    2.6115    2.8540 N.am      2 SEC2        0.0000 
     30 N          37.4970    3.9320    2.1120 N.am      8 SEL2        0.0000 
     31 N          36.9090    1.2910    3.5960 N.am      5 SEP2        0.0000 
     32 O          38.5745    4.5015    2.3970 O.2       1 ALC1        0.0000 
     33 O          37.4970    3.9320    2.1120 O.2       7 ALL1        0.0000 
     34 O          39.6520    5.0710    2.6820 O.2       4 ALP1        0.0000 
     35 CA         33.1060    5.6435    0.8970 C.3       3 GLC5        0.0000 
     36 CA         34.6360    4.2490    1.3240 C.3       9 GLL5        0.0000 
     37 CA         31.5760    7.0380    0.4700 C.3       6 GLP5        0.0000 
     38 O          30.3440    4.0360   -4.2085 O.2       1 ALC1        0.0000 
     39 O          30.0690    3.3010   -2.6980 O.2       7 ALL1        0.0000 
     40 O          30.6190    4.7710   -5.7190 O.2       4 ALP1        0.0000 
     41 O          28.9410    3.5700   -1.7095 O.2       1 ALC1        0.0000 
     42 O          27.8130    3.8390   -0.7210 O.2       4 ALP1        0.0000 
     43 CA         29.8775    1.6075    1.3015 C.3       3 GLC5        0.0000 
     44 CA         31.1580    2.8040    1.3560 C.3       9 GLL5        0.0000 
     45 CA         28.5970    0.4110    1.2470 C.3       6 GLP5        0.0000 
     46 CA         30.0345    3.0415    3.1720 C.3       3 GLC5        0.0000 
     47 CA         28.9110    3.2790    4.9880 C.3       6 GLP5        0.0000 
     48 CA         31.9875    5.1440    1.1335 C.3       3 GLC5        0.0000 
     49 CA         32.3990    3.2500    1.7970 C.3       9 GLL5        0.0000 
     50 CA         32.2060    1.4925    3.1855 C.3       3 GLC5        0.0000 
     51 CA         32.0130   -0.2650    4.5740 C.3       6 GLP5        0.0000 
     52 CA         39.0703    9.6175   -1.2785 C.3       3 GLC5        0.0000 
     53 CA         37.7580    9.4800   -2.9830 C.3       9 GLL5        0.0000 
     54 CA         40.0160    9.0880    0.4360 C.3       6 GLP5        0.0000 
     55 CA         39.6912    9.1410   -2.5455 C.3       3 GLC5        0.0000 
     56 CA         36.3551   11.4225   -3.5723 C.3       3 GLC5        0.0000 
     57 CA         34.4200   12.0430   -3.4510 C.3       6 GLP5        0.0000 
     58 CA         41.6508   13.1792   -4.4570 C.3       3 GLC5        0.0000 
     59 CA         39.8910   11.8610   -4.7260 C.3       9 GLL5        0.0000 
     60 CA         43.1420   14.5070   -4.8980 C.3       6 GLP5        0.0000 
     61 CA         42.2103   10.0358   -2.2292 C.3       3 GLC5        0.0000 
     62 CA         42.5130   12.1480   -2.2850 C.3       9 GLL5        0.0000 
     63 CA         43.2638   13.2804   -3.5112 C.3       3 GLC5        0.0000 
     64 CA         42.5042   11.4779   -0.4653 C.3       3 GLC5        0.0000 
     65 CA         37.1322    2.3860    1.6935 C.3       3 GLC5        0.0000 
     66 CA         37.9340    0.8200    2.6940 C.3       6 GLP5        0.0000 
     67 CA         31.9525    5.3665   -0.1103 C.3       3 GLC5        0.0000 
     68 CA         32.9500    3.9210   -0.4750 C.3       9 GLL5        0.0000 
     69 CA         30.5427    1.3788   -0.1210 C.3       3 GLC5        0.0000 
     70 CA         31.7080    3.4690   -0.9060 C.3       9 GLL5        0.0000 
     71 CA         29.8210   -0.4330    0.2060 C.3       6 GLP5        0.0000 
     72 CA         30.5288    4.8250    0.5700 C.3       3 GLC5        0.0000 
     73 CA         30.8210    2.9120    0.0100 C.3       9 GLL5        0.0000 
     74 CA         30.0680    6.7920    0.4570 C.3       6 GLP5        0.0000 
     75 CA         35.7466    4.8931    2.6824 C.3       3 GLC5        0.0000 
     76 CA         35.7170    3.5350    0.5150 C.3       9 GLL5        0.0000 
     77 CA         35.5840    5.3030    4.4600 C.3       6 GLP5        0.0000 
@<TRIPOS>BOND
@<TRIPOS>SUBSTRUCTURE
     1 ALC1       32 GROUP        1 X    ALC  0     ROOT ALC X 1
     2 SEC2        1 GROUP        1 X    SEC  0     **** SEC X 2
     3 GLC5        4 GROUP        1 X    GLC  0     **** GLC X 6
     4 ALP1       34 GROUP        1 Y    ALP  0     ROOT ALP Y 8
     5 SEP2        3 GROUP        1 Y    SEP  0     **** SEP Y 9
     6 GLP5        6 GROUP        1 Y    GLP  0     **** GLP Y 13
     7 ALL1       33 GROUP        1 Z    ALL  0     ROOT ALL Z 15
     8 SEL2        2 GROUP        1 Z    SEL  0     **** SEL Z 16
     9 GLL5        5 GROUP        1 Z    GLL  0     **** GLL Z 20
@<TRIPOS>SET

