#    Name: 2czc_NAD_1_ligand
#    Modification time : Tue Mar 25 01:22:49 2014

@<TRIPOS>MOLECULE
2czc_NAD_1_ligand
   70    74     1     0     0
SMALL
NO_CHARGES


@<TRIPOS>ATOM
      1 PA         36.1520    8.1810   -4.5910 P.3       1 NAD501      0.0000 
      2 O1A        34.7440    8.4880   -4.9100 O.co2     1 NAD501      0.0000 
      3 O2A        36.9770    7.5440   -5.6310 O.co2     1 NAD501      0.0000 
      4 O5B        36.8050    9.5290   -4.0330 O.3       1 NAD501      0.0000 
      5 C5B        37.7580    9.4800   -2.9830 C.3       1 NAD501      0.0000 
      6 C4B        38.4910   10.8140   -3.0030 C.3       1 NAD501      0.0000 
      7 O4B        39.8810   10.6630   -2.7240 O.3       1 NAD501      0.0000 
      8 C3B        38.4560   11.4570   -4.3940 C.3       1 NAD501      0.0000 
      9 O3B        37.6240   12.6180   -4.3370 O.3       1 NAD501      0.0000 
     10 C2B        39.8910   11.8610   -4.7260 C.3       1 NAD501      0.0000 
     11 O2B        39.9170   13.2000   -5.2260 O.3       1 NAD501      0.0000 
     12 C1B        40.4280   11.8420   -3.3060 C.3       1 NAD501      0.0000 
     13 N9A        41.8490   11.5900   -3.2610 N.pl3     1 NAD501      0.0000 
     14 C8A        42.6580   10.8540   -3.9950 C.2       1 NAD501      0.0000 
     15 N7A        43.8810   10.9300   -3.4900 N.2       1 NAD501      0.0000 
     16 C5A        43.8120   11.7250   -2.4360 C.ar      1 NAD501      0.0000 
     17 C6A        44.7040   12.1940   -1.4920 C.ar      1 NAD501      0.0000 
     18 N6A        45.9790   11.8390   -1.5730 N.pl3     1 NAD501      0.0000 
     19 N1A        44.2540   12.9990   -0.5210 N.ar      1 NAD501      0.0000 
     20 C2A        42.9900   13.3660   -0.4360 C.ar      1 NAD501      0.0000 
     21 N3A        42.1030   12.9520   -1.3130 N.ar      1 NAD501      0.0000 
     22 C4A        42.5130   12.1480   -2.2850 C.ar      1 NAD501      0.0000 
     23 O3         36.1780    7.1920   -3.3300 O.3       1 NAD501      0.0000 
     24 PN         34.8150    6.8800   -2.5290 P.3       1 NAD501      0.0000 
     25 O1N        34.2340    8.1260   -1.9840 O.co2     1 NAD501      0.0000 
     26 O2N        33.9310    6.0050   -3.3270 O.co2     1 NAD501      0.0000 
     27 O5D        35.3100    5.9670   -1.3030 O.3       1 NAD501      0.0000 
     28 C5D        36.3820    6.4270   -0.4800 C.3       1 NAD501      0.0000 
     29 C4D        36.3400    5.7800    0.9090 C.3       1 NAD501      0.0000 
     30 O4D        34.9410    5.6550    1.2450 O.3       1 NAD501      0.0000 
     31 C3D        36.9440    4.3690    0.8710 C.3       1 NAD501      0.0000 
     32 O3D        37.4970    3.9320    2.1120 O.3       1 NAD501      0.0000 
     33 C2D        35.7170    3.5350    0.5150 C.3       1 NAD501      0.0000 
     34 O2D        35.8410    2.1720    0.9210 O.3       1 NAD501      0.0000 
     35 C1D        34.6360    4.2490    1.3240 C.3       1 NAD501      0.0000 
     36 N1N        33.2960    3.8080    0.8770 N.pl3     1 NAD501      0.0000 
     37 C2N        32.9500    3.9210   -0.4750 C.ar      1 NAD501      0.0000 
     38 C3N        31.7080    3.4690   -0.9060 C.ar      1 NAD501      0.0000 
     39 C7N        31.3250    3.5990   -2.3820 C.2       1 NAD501      0.0000 
     40 O7N        32.2170    4.0110   -3.3220 O.2       1 NAD501      0.0000 
     41 N7N        30.0690    3.3010   -2.6980 N.am      1 NAD501      0.0000 
     42 C4N        30.8210    2.9120    0.0100 C.ar      1 NAD501      0.0000 
     43 C5N        31.1580    2.8040    1.3560 C.ar      1 NAD501      0.0000 
     44 C6N        32.3990    3.2500    1.7970 C.ar      1 NAD501      0.0000 
     45 H          38.4896    8.6925   -3.1284 H         1 NAD501      0.0000 
     46 H          37.2921    9.3672   -2.0100 H         1 NAD501      0.0000 
     47 H          38.0316   11.4962   -2.3184 H         1 NAD501      0.0000 
     48 H          38.1244   10.7403   -5.0915 H         1 NAD501      0.0000 
     49 H          40.3365   11.1409   -5.2797 H         1 NAD501      0.0000 
     50 H          40.1469   12.6920   -2.7891 H         1 NAD501      0.0000 
     51 H          42.4026   10.3345   -4.7846 H         1 NAD501      0.0000 
     52 H          46.2281   11.2688   -2.3558 H         1 NAD501      0.0000 
     53 H          46.5761   12.1736   -0.8439 H         1 NAD501      0.0000 
     54 H          42.6867   14.0053    0.3533 H         1 NAD501      0.0000 
     55 H          36.3454    7.5199   -0.3370 H         1 NAD501      0.0000 
     56 H          37.3645    6.1944   -0.9236 H         1 NAD501      0.0000 
     57 H          36.8568    6.3787    1.5960 H         1 NAD501      0.0000 
     58 H          37.6109    4.3184    0.0474 H         1 NAD501      0.0000 
     59 H          35.5033    3.6759   -0.5079 H         1 NAD501      0.0000 
     60 H          34.7964    3.9033    2.3698 H         1 NAD501      0.0000 
     61 H          33.6109    4.3347   -1.1387 H         1 NAD501      0.0000 
     62 H          29.4854    2.9991   -1.9442 H         1 NAD501      0.0000 
     63 H          29.8209    3.4056   -3.6611 H         1 NAD501      0.0000 
     64 H          29.8988    2.5737   -0.3136 H         1 NAD501      0.0000 
     65 H          30.4910    2.3956    2.0218 H         1 NAD501      0.0000 
     66 H          32.6589    3.1734    2.7829 H         1 NAD501      0.0000 
     67 H          37.0112   12.5359   -5.1230 H         1 NAD501      0.0000 
     68 H          39.0255   13.5835   -4.9848 H         1 NAD501      0.0000 
     69 H          38.4828    4.0725    2.0197 H         1 NAD501      0.0000 
     70 H          36.5925    2.1660    1.5808 H         1 NAD501      0.0000 
@<TRIPOS>BOND
     1    2    1 ar   
     2    3    1 ar   
     3    4    1 1    
     4   23    1 1    
     5    5    4 1    
     6    6    5 1    
     7   45    5 1    
     8   46    5 1    
     9    7    6 1    
    10    8    6 1    
    11   47    6 1    
    12   12    7 1    
    13    9    8 1    
    14   10    8 1    
    15   48    8 1    
    16   67    9 1    
    17   11   10 1    
    18   12   10 1    
    19   49   10 1    
    20   68   11 1    
    21   13   12 1    
    22   50   12 1    
    23   14   13 1    
    24   22   13 1    
    25   15   14 2    
    26   51   14 1    
    27   16   15 1    
    28   17   16 ar   
    29   22   16 ar   
    30   18   17 1    
    31   19   17 ar   
    32   52   18 1    
    33   53   18 1    
    34   20   19 ar   
    35   21   20 ar   
    36   54   20 1    
    37   22   21 ar   
    38   24   23 1    
    39   25   24 ar   
    40   26   24 ar   
    41   27   24 1    
    42   28   27 1    
    43   29   28 1    
    44   55   28 1    
    45   56   28 1    
    46   30   29 1    
    47   31   29 1    
    48   57   29 1    
    49   35   30 1    
    50   32   31 1    
    51   33   31 1    
    52   58   31 1    
    53   69   32 1    
    54   34   33 1    
    55   35   33 1    
    56   59   33 1    
    57   70   34 1    
    58   36   35 1    
    59   60   35 1    
    60   37   36 ar   
    61   44   36 ar   
    62   38   37 ar   
    63   61   37 1    
    64   39   38 1    
    65   42   38 ar   
    66   40   39 2    
    67   41   39 am   
    68   62   41 1    
    69   63   41 1    
    70   43   42 ar   
    71   64   42 1    
    72   44   43 ar   
    73   65   43 1    
    74   66   44 1    
@<TRIPOS>SUBSTRUCTURE
     1 NAD501      1 GROUP   
@<TRIPOS>SET

