#    Name: 2e2q_ADP_1_INTS_M
#    Modification time : Tue Mar 25 10:33:12 2014

@<TRIPOS>MOLECULE
2e2q_ADP_1_INTS_M
   75     0    15     0     0
SMALL
NO_CHARGES


@<TRIPOS>ATOM
      1 N           9.9850   36.5330   26.8080 N.am      2 SEC2        0.0000 
      2 N           9.5360   37.7990   27.0790 N.am     12 SEL2        0.0000 
      3 N          10.4340   35.2670   26.5370 N.am      7 SEP2        0.0000 
      4 N          10.0735   39.0575   27.9470 N.am      2 SEC2        0.0000 
      5 N          10.6110   40.3160   28.8150 N.am      7 SEP2        0.0000 
      6 N           9.9915   37.6910   28.3750 N.am      2 SEC2        0.0000 
      7 N          10.4470   37.5830   29.6710 N.am      7 SEP2        0.0000 
      8 NZ          6.0800   37.2960   25.5220 N.4       3 LYC4        0.0000 
      9 NZ          7.5450   38.2090   25.6330 N.4      13 LYL4        0.0000 
     10 NZ          4.6150   36.3830   25.4110 N.4       8 LYP4        0.0000 
     11 Zn          7.6260   38.6425   24.7340 Zn        4 ZIC7        0.0000 
     12 Zn          7.5450   38.2090   25.6330 Zn       14 ZIL7        0.0000 
     13 Zn          7.7070   39.0760   23.8350 Zn        9 ZIP7        0.0000 
     14 NZ          6.0245   36.4205   26.4495 N.4       3 LYC4        0.0000 
     15 NZ          7.4340   36.4580   27.4880 N.4      13 LYL4        0.0000 
     16 N           8.3625   35.6010   28.2260 N.am      2 SEC2        0.0000 
     17 N           7.4340   36.4580   27.4880 N.am     12 SEL2        0.0000 
     18 N           9.2910   34.7440   28.9640 N.am      7 SEP2        0.0000 
     19 N           7.0570   35.0960   28.0815 N.am      2 SEC2        0.0000 
     20 N           6.6800   33.7340   28.6750 N.am      7 SEP2        0.0000 
     21 N           5.7475   42.1020   27.7000 N.am      2 SEC2        0.0000 
     22 N           6.0930   40.8040   27.1760 N.am     12 SEL2        0.0000 
     23 N           5.4020   43.4000   28.2240 N.am      7 SEP2        0.0000 
     24 NZ          4.8485   37.5375   26.8025 N.4       3 LYC4        0.0000 
     25 NZ          5.0820   38.6920   28.1940 N.4      13 LYL4        0.0000 
     26 N           9.0980   39.6425   28.4040 N.am      2 SEC2        0.0000 
     27 N           7.5850   38.9690   27.9930 N.am     12 SEL2        0.0000 
     28 N           5.8985   41.9480   28.8890 N.am      2 SEC2        0.0000 
     29 N           6.3950   40.4960   29.5540 N.am     12 SEL2        0.0000 
     30 CA          7.1245   37.7460   30.8475 C.3       5 GLC5        0.0000 
     31 CA          6.3430   39.8470   30.8620 C.3      15 GLL5        0.0000 
     32 CA          7.9060   35.6450   30.8330 C.3      10 GLP5        0.0000 
     33 O           9.0150   38.3400   33.7115 O.2       1 ALC1        0.0000 
     34 O           8.9630   39.6280   33.3300 O.2      11 ALL1        0.0000 
     35 O           9.0670   37.0520   34.0930 O.2       6 ALP1        0.0000 
     36 CA          8.1130   39.7480   35.7925 C.3       5 GLC5        0.0000 
     37 CA          6.9450   40.8040   34.2510 C.3      15 GLL5        0.0000 
     38 CA          9.2810   38.6920   37.3340 C.3      10 GLP5        0.0000 
     39 CA          5.7465   41.4265   35.8635 C.3       5 GLC5        0.0000 
     40 CA          4.5480   42.0490   37.4760 C.3      10 GLP5        0.0000 
     41 O           9.1075   40.8540   35.6685 O.2       1 ALC1        0.0000 
     42 O           7.7480   40.9920   35.4220 O.2      11 ALL1        0.0000 
     43 O          10.4670   40.7160   35.9150 O.2       6 ALP1        0.0000 
     44 CA          8.3200   43.0565   34.7905 C.3       5 GLC5        0.0000 
     45 CA          6.7920   42.1350   33.5260 C.3      15 GLL5        0.0000 
     46 CA          9.8480   43.9780   36.0550 C.3      10 GLP5        0.0000 
     47 CA          3.2735   44.6495   36.7520 C.3       5 GLC5        0.0000 
     48 CA          3.8280   45.6870   35.2470 C.3      15 GLL5        0.0000 
     49 CA          2.7190   43.6120   38.2570 C.3      10 GLP5        0.0000 
     50 CA          4.5070   46.8340   36.7975 C.3       5 GLC5        0.0000 
     51 CA          5.1860   47.9810   38.3480 C.3      10 GLP5        0.0000 
     52 CA          3.7815   47.6845   34.6760 C.3       5 GLC5        0.0000 
     53 CA          3.7350   49.6820   34.1050 C.3      10 GLP5        0.0000 
     54 O           2.8000   47.2405   36.5620 O.2       1 ALC1        0.0000 
     55 O           2.6450   46.1320   35.4990 O.2      11 ALL1        0.0000 
     56 O           2.9550   48.3490   37.6250 O.2       6 ALP1        0.0000 
     57 CA          8.0470   45.0150   35.6940 C.3       5 GLC5        0.0000 
     58 CA          6.2460   46.0520   35.3330 C.3      15 GLL5        0.0000 
     59 CA          6.1945   44.8615   36.9930 C.3       5 GLC5        0.0000 
     60 CA          6.1430   43.6710   38.6530 C.3      10 GLP5        0.0000 
     61 CA          5.7160   47.0165   36.8405 C.3       5 GLC5        0.0000 
     62 CA          7.8780   46.7725   34.2880 C.3       5 GLC5        0.0000 
     63 CA          9.5100   47.4930   33.2430 C.3      10 GLP5        0.0000 
     64 CA          5.7395   47.8465   34.8770 C.3       5 GLC5        0.0000 
     65 CA          5.2330   49.6410   34.4210 C.3      10 GLP5        0.0000 
     66 CA          5.8833   41.8117   30.4760 C.3       5 GLC5        0.0000 
     67 CA          7.3040   40.5140   31.8420 C.3      15 GLL5        0.0000 
     68 CA          4.9430   43.4430   29.6000 C.3      10 GLP5        0.0000 
     69 CA          4.6858   43.1508   36.0120 C.3       5 GLC5        0.0000 
     70 CA          5.4930   44.1010   34.4520 C.3      15 GLL5        0.0000 
     71 CA          2.8795   45.5012   33.4843 C.3       5 GLC5        0.0000 
     72 CA          4.1540   44.4040   34.6440 C.3      15 GLL5        0.0000 
     73 CA          1.7680   45.9570   32.0230 C.3      10 GLP5        0.0000 
     74 CA          8.9720   41.5883   32.9704 C.3       5 GLC5        0.0000 
     75 CA         10.7980   42.3550   32.7330 C.3      10 GLP5        0.0000 
@<TRIPOS>BOND
@<TRIPOS>SUBSTRUCTURE
     1 ALC1       33 GROUP        1 X    ALC  0     ROOT ALC X 1
     2 SEC2        1 GROUP        1 X    SEC  0     **** SEC X 2
     3 LYC4        8 GROUP        1 X    LYC  0     **** LYC X 4
     4 ZIC7       11 GROUP        1 X    ZIC  0     **** ZIC X 5
     5 GLC5       30 GROUP        1 X    GLC  0     **** GLC X 6
     6 ALP1       35 GROUP        1 Y    ALP  0     ROOT ALP Y 8
     7 SEP2        3 GROUP        1 Y    SEP  0     **** SEP Y 9
     8 LYP4       10 GROUP        1 Y    LYP  0     **** LYP Y 11
     9 ZIP7       13 GROUP        1 Y    ZIP  0     **** ZIP Y 12
    10 GLP5       32 GROUP        1 Y    GLP  0     **** GLP Y 13
    11 ALL1       34 GROUP        1 Z    ALL  0     ROOT ALL Z 15
    12 SEL2        2 GROUP        1 Z    SEL  0     **** SEL Z 16
    13 LYL4        9 GROUP        1 Z    LYL  0     **** LYL Z 18
    14 ZIL7       12 GROUP        1 Z    ZIL  0     **** ZIL Z 19
    15 GLL5       31 GROUP        1 Z    GLL  0     **** GLL Z 20
@<TRIPOS>SET

