#    Name: 2e2q_ADP_1_ligand
#    Modification time : Tue Mar 25 10:33:12 2014

@<TRIPOS>MOLECULE
2e2q_ADP_1_ligand
   38    40     1     0     0
SMALL
NO_CHARGES


@<TRIPOS>ATOM
      1 PB          8.0460   37.8090   26.9820 P.3       1 ADP302      0.0000 
      2 O1B         9.5360   37.7990   27.0790 O.co2     1 ADP302      0.0000 
      3 O2B         7.5450   38.2090   25.6330 O.co2     1 ADP302      0.0000 
      4 O3B         7.4340   36.4580   27.4880 O.co2     1 ADP302      0.0000 
      5 PA          6.2020   39.6890   28.1930 P.3       1 ADP302      0.0000 
      6 O1A         6.0930   40.8040   27.1760 O.co2     1 ADP302      0.0000 
      7 O2A         5.0820   38.6920   28.1940 O.co2     1 ADP302      0.0000 
      8 O3A         7.5850   38.9690   27.9930 O.3       1 ADP302      0.0000 
      9 O5'         6.3950   40.4960   29.5540 O.3       1 ADP302      0.0000 
     10 C5'         6.3430   39.8470   30.8620 C.3       1 ADP302      0.0000 
     11 C4'         7.3040   40.5140   31.8420 C.3       1 ADP302      0.0000 
     12 O4'         6.9320   41.8870   32.1460 O.3       1 ADP302      0.0000 
     13 C3'         7.5430   39.8330   33.2120 C.3       1 ADP302      0.0000 
     14 O3'         8.9630   39.6280   33.3300 O.3       1 ADP302      0.0000 
     15 C2'         6.9450   40.8040   34.2510 C.3       1 ADP302      0.0000 
     16 O2'         7.7480   40.9920   35.4220 O.3       1 ADP302      0.0000 
     17 C1'         6.7920   42.1350   33.5260 C.3       1 ADP302      0.0000 
     18 N9          5.5270   42.8640   33.8890 N.pl3     1 ADP302      0.0000 
     19 C8          4.2370   42.4690   33.7460 C.2       1 ADP302      0.0000 
     20 N7          3.3640   43.3900   34.1970 N.2       1 ADP302      0.0000 
     21 C5          4.1540   44.4040   34.6440 C.ar      1 ADP302      0.0000 
     22 C6          3.8280   45.6870   35.2470 C.ar      1 ADP302      0.0000 
     23 N6          2.6450   46.1320   35.4990 N.pl3     1 ADP302      0.0000 
     24 N1          4.9390   46.4570   35.5690 N.ar      1 ADP302      0.0000 
     25 C2          6.2460   46.0520   35.3330 C.ar      1 ADP302      0.0000 
     26 N3          6.5570   44.8780   34.7800 N.ar      1 ADP302      0.0000 
     27 C4          5.4930   44.1010   34.4520 C.ar      1 ADP302      0.0000 
     28 H           6.6154   38.7869   30.7824 H         1 ADP302      0.0000 
     29 H           5.3313   39.9004   31.2838 H         1 ADP302      0.0000 
     30 H           8.3157   40.5589   31.3530 H         1 ADP302      0.0000 
     31 H           6.9857   38.9319   33.2127 H         1 ADP302      0.0000 
     32 H           5.9487   40.4584   34.4867 H         1 ADP302      0.0000 
     33 H           7.6512   42.7610   33.8703 H         1 ADP302      0.0000 
     34 H           3.9721   41.5989   33.3529 H         1 ADP302      0.0000 
     35 H           7.0170   46.7229   35.6133 H         1 ADP302      0.0000 
     36 H           9.0660   38.6626   33.5695 H         1 ADP302      0.0000 
     37 H           8.6813   40.7793   35.1326 H         1 ADP302      0.0000 
     38 H           2.7769   46.8374   36.1954 H         1 ADP302      0.0000 
@<TRIPOS>BOND
     1    2    1 ar   
     2    3    1 ar   
     3    4    1 ar   
     4    8    1 1    
     5    6    5 ar   
     6    7    5 ar   
     7    8    5 1    
     8    9    5 1    
     9   10    9 1    
    10   11   10 1    
    11   28   10 1    
    12   29   10 1    
    13   12   11 1    
    14   13   11 1    
    15   30   11 1    
    16   17   12 1    
    17   14   13 1    
    18   15   13 1    
    19   31   13 1    
    20   36   14 1    
    21   16   15 1    
    22   17   15 1    
    23   32   15 1    
    24   37   16 1    
    25   18   17 1    
    26   33   17 1    
    27   19   18 1    
    28   27   18 1    
    29   20   19 2    
    30   34   19 1    
    31   21   20 1    
    32   22   21 ar   
    33   27   21 ar   
    34   23   22 1    
    35   24   22 ar   
    36   38   23 1    
    37   25   24 ar   
    38   26   25 ar   
    39   35   25 1    
    40   27   26 ar   
@<TRIPOS>SUBSTRUCTURE
     1 ADP302      1 GROUP   
@<TRIPOS>SET

