#    Name: 3vob_9PC_1_INTS_M
#    Modification time : Tue Mar 25 01:12:30 2014

@<TRIPOS>MOLECULE
3vob_9PC_1_INTS_M
   70     0     9     0     0
SMALL
NO_CHARGES


@<TRIPOS>ATOM
      1 CA         -2.9070    7.2540   25.8880 C.3       3 GLC5        0.0000 
      2 CA         -2.5800    7.4610   23.7420 C.3       9 GLL5        0.0000 
      3 CA         -3.2340    7.0470   28.0340 C.3       6 GLP5        0.0000 
      4 O           7.0525   15.3835   21.2555 O.2       1 ALC1        0.0000 
      5 O           5.6290   15.2130   21.1860 O.2       7 ALL1        0.0000 
      6 O           8.4760   15.5540   21.3250 O.2       4 ALP1        0.0000 
      7 O           5.2710   14.3845   22.5825 O.2       1 ALC1        0.0000 
      8 O           4.9130   13.5560   23.9790 O.2       4 ALP1        0.0000 
      9 CA          1.7740   12.8995   19.9870 C.3       3 GLC5        0.0000 
     10 CA          2.8290   13.5240   21.3990 C.3       9 GLL5        0.0000 
     11 CA          0.7190   12.2750   18.5750 C.3       6 GLP5        0.0000 
     12 CA          3.0325   11.4955   20.0325 C.3       3 GLC5        0.0000 
     13 CA          3.6650   12.5000   21.2200 C.3       9 GLL5        0.0000 
     14 CA          2.4000   10.4910   18.8450 C.3       6 GLP5        0.0000 
     15 N           5.8520   14.7860   18.6595 N.am      2 SEC2        0.0000 
     16 N           4.6770   15.3360   19.1500 N.am      8 SEL2        0.0000 
     17 N           7.0270   14.2360   18.1690 N.am      5 SEP2        0.0000 
     18 CA          4.0695   18.2305   20.8980 C.3       3 GLC5        0.0000 
     19 CA          2.4760   17.2320   20.8710 C.3       9 GLL5        0.0000 
     20 CA          5.6630   19.2290   20.9250 C.3       6 GLP5        0.0000 
     21 CA         -2.1220   10.8080   21.9520 C.3       3 GLC5        0.0000 
     22 CA         -0.2810   11.7700   22.4430 C.3       9 GLL5        0.0000 
     23 CA         -3.9630    9.8460   21.4610 C.3       6 GLP5        0.0000 
     24 CA         -1.7310   13.2525   21.6665 C.3       3 GLC5        0.0000 
     25 CA         -3.1810   14.7350   20.8900 C.3       6 GLP5        0.0000 
     26 CA          0.2190   12.0225   20.5090 C.3       3 GLC5        0.0000 
     27 CA          1.4310    9.7940   20.3755 C.3       3 GLC5        0.0000 
     28 CA          0.4620    9.0970   21.9060 C.3       9 GLL5        0.0000 
     29 CA          0.3970    6.0550   21.5845 C.3       3 GLC5        0.0000 
     30 CA         -0.5130    7.8520   22.4740 C.3       9 GLL5        0.0000 
     31 CA          1.3070    4.2580   20.6950 C.3       6 GLP5        0.0000 
     32 CA         -1.5540    3.7580   21.9915 C.3       3 GLC5        0.0000 
     33 CA         -1.2280    5.6650   22.8660 C.3       9 GLL5        0.0000 
     34 CA         -1.8800    1.8510   21.1170 C.3       6 GLP5        0.0000 
     35 CA          0.0395    4.9615   21.7805 C.3       3 GLC5        0.0000 
     36 CA         -5.4155    5.5330   24.6865 C.3       3 GLC5        0.0000 
     37 CA         -3.5400    4.9950   24.2810 C.3       9 GLL5        0.0000 
     38 CA         -7.2910    6.0710   25.0920 C.3       6 GLP5        0.0000 
     39 CA         -3.0670    3.2370   23.3370 C.3       3 GLC5        0.0000 
     40 CA         -2.5940    1.4790   22.3930 C.3       6 GLP5        0.0000 
     41 CA         -2.7335    3.9400   25.5575 C.3       3 GLC5        0.0000 
     42 CA         -1.9270    2.8850   26.8340 C.3       6 GLP5        0.0000 
     43 CA         -3.3870    6.0210   26.1575 C.3       3 GLC5        0.0000 
     44 CA         -4.2628    5.2542   22.5027 C.3       3 GLC5        0.0000 
     45 CA         -2.3490    6.1160   23.5660 C.3       9 GLL5        0.0000 
     46 CA         -5.5810    4.9530   21.0820 C.3       6 GLP5        0.0000 
     47 CA          4.7525   11.9775   21.0497 C.3       3 GLC5        0.0000 
     48 CA          6.2580   10.9430   20.7900 C.3       6 GLP5        0.0000 
     49 CA          3.1635   15.3345   22.6985 C.3       3 GLC5        0.0000 
     50 CA          3.3050   16.4620   24.2060 C.3       6 GLP5        0.0000 
     51 CA          1.5185   14.5955   19.8373 C.3       3 GLC5        0.0000 
     52 CA          3.2150   14.8900   20.9830 C.3       9 GLL5        0.0000 
     53 CA          0.3260   13.7650   18.5770 C.3       6 GLP5        0.0000 
     54 CA         -1.1918   14.8760   21.4410 C.3       3 GLC5        0.0000 
     55 CA          0.9760   15.6620   21.7970 C.3       9 GLL5        0.0000 
     56 CA          0.7369   13.9627   20.2905 C.3       3 GLC5        0.0000 
     57 CA          0.6190   14.3720   22.1870 C.3       9 GLL5        0.0000 
     58 CA          3.3148   12.2160   22.8894 C.3       3 GLC5        0.0000 
     59 CA          1.4980   13.3040   22.0160 C.3       9 GLL5        0.0000 
     60 CA          4.2570   11.2740   24.1160 C.3       6 GLP5        0.0000 
     61 CA          2.1818   15.1500   23.1537 C.3       3 GLC5        0.0000 
     62 CA          1.0434   17.9630   20.3499 C.3       3 GLC5        0.0000 
     63 CA          2.2070   15.9620   21.2120 C.3       9 GLL5        0.0000 
     64 CA          0.0530   19.4040   19.5120 C.3       6 GLP5        0.0000 
     65 CA          2.6694   16.4920   22.6969 C.3       3 GLC5        0.0000 
     66 CA         -2.6430    8.8640   22.2181 C.3       3 GLC5        0.0000 
     67 CA         -0.6646    7.3404   24.4465 C.3       3 GLC5        0.0000 
     68 CA          0.5170    8.4540   25.6330 C.3       6 GLP5        0.0000 
     69 CA         -0.1694    8.4364   24.1668 C.3       3 GLC5        0.0000 
     70 CA         -1.6860    8.3630   23.2110 C.3       9 GLL5        0.0000 
@<TRIPOS>BOND
@<TRIPOS>SUBSTRUCTURE
     1 ALC1        4 GROUP        1 X    ALC  0     ROOT ALC X 1
     2 SEC2       15 GROUP        1 X    SEC  0     **** SEC X 2
     3 GLC5        1 GROUP        1 X    GLC  0     **** GLC X 6
     4 ALP1        6 GROUP        1 Y    ALP  0     ROOT ALP Y 8
     5 SEP2       17 GROUP        1 Y    SEP  0     **** SEP Y 9
     6 GLP5        3 GROUP        1 Y    GLP  0     **** GLP Y 13
     7 ALL1        5 GROUP        1 Z    ALL  0     ROOT ALL Z 15
     8 SEL2       16 GROUP        1 Z    SEL  0     **** SEL Z 16
     9 GLL5        2 GROUP        1 Z    GLL  0     **** GLL Z 20
@<TRIPOS>SET

