#    Name: 3vob_9PC_1_ligand
#    Modification time : Tue Mar 25 01:12:30 2014

@<TRIPOS>MOLECULE
3vob_9PC_1_ligand
   31    33     1     0     0
SMALL
NO_CHARGES


@<TRIPOS>ATOM
      1 C11        -2.3490    6.1160   23.5660 C.ar      1 9PC403      0.0000 
      2 C12        -2.5800    7.4610   23.7420 C.ar      1 9PC403      0.0000 
      3 N           5.6290   15.2130   21.1860 N.am      1 9PC403      0.0000 
      4 C13         2.8290   13.5240   21.3990 C.ar      1 9PC403      0.0000 
      5 C1          3.2150   14.8900   20.9830 C.ar      1 9PC403      0.0000 
      6 C2          2.2070   15.9620   21.2120 C.ar      1 9PC403      0.0000 
      7 C3          0.9760   15.6620   21.7970 C.ar      1 9PC403      0.0000 
      8 F1          3.6650   12.5000   21.2200 F         1 9PC403      0.0000 
      9 C           4.5710   15.1660   20.3660 C.2       1 9PC403      0.0000 
     10 O           4.6770   15.3360   19.1500 O.2       1 9PC403      0.0000 
     11 C5          1.4980   13.3040   22.0160 C.ar      1 9PC403      0.0000 
     12 C4          0.6190   14.3720   22.1870 C.ar      1 9PC403      0.0000 
     13 F           2.4760   17.2320   20.8710 F         1 9PC403      0.0000 
     14 O1          1.1200   12.0440   22.4020 O.3       1 9PC403      0.0000 
     15 C6         -0.2810   11.7700   22.4430 C.3       1 9PC403      0.0000 
     16 C7         -0.6060   10.2990   22.6000 C.2       1 9PC403      0.0000 
     17 S           0.4620    9.0970   21.9060 S.3       1 9PC403      0.0000 
     18 C9         -0.5130    7.8520   22.4740 C.ar      1 9PC403      0.0000 
     19 N2         -0.3260    6.5220   22.3320 N.ar      1 9PC403      0.0000 
     20 C10        -1.2280    5.6650   22.8660 C.ar      1 9PC403      0.0000 
     21 CL         -3.5400    4.9950   24.2810 Cl        1 9PC403      0.0000 
     22 C8         -1.6860    8.3630   23.2110 C.ar      1 9PC403      0.0000 
     23 N1         -1.6580    9.7280   23.2510 N.2       1 9PC403      0.0000 
     24 H          -3.4031    7.7857   24.2593 H         1 9PC403      0.0000 
     25 H           5.4485   15.0131   22.1490 H         1 9PC403      0.0000 
     26 H           6.5046   15.4438   20.7617 H         1 9PC403      0.0000 
     27 H           0.2917   16.4394   21.9493 H         1 9PC403      0.0000 
     28 H          -0.3097   14.2056   22.6084 H         1 9PC403      0.0000 
     29 H          -0.7867   12.1306   21.5188 H         1 9PC403      0.0000 
     30 H          -0.7713   12.3152   23.2810 H         1 9PC403      0.0000 
     31 H          -1.0976    4.6318   22.7611 H         1 9PC403      0.0000 
@<TRIPOS>BOND
     1    2    1 ar   
     2   20    1 ar   
     3   21    1 1    
     4   22    2 ar   
     5   24    2 1    
     6    9    3 am   
     7   25    3 1    
     8   26    3 1    
     9    5    4 ar   
    10    8    4 1    
    11   11    4 ar   
    12    6    5 ar   
    13    9    5 1    
    14    7    6 ar   
    15   13    6 1    
    16   12    7 ar   
    17   27    7 1    
    18   10    9 2    
    19   12   11 ar   
    20   14   11 1    
    21   28   12 1    
    22   15   14 1    
    23   16   15 1    
    24   29   15 1    
    25   30   15 1    
    26   17   16 1    
    27   23   16 2    
    28   18   17 1    
    29   19   18 ar   
    30   22   18 ar   
    31   20   19 ar   
    32   31   20 1    
    33   23   22 1    
@<TRIPOS>SUBSTRUCTURE
     1 9PC403      1 GROUP   
@<TRIPOS>SET

