#    Name: 1zs6_ADP_2_INTS_M
#    Modification time : Mon Mar 24 17:48:36 2014

@<TRIPOS>MOLECULE
1zs6_ADP_2_INTS_M
   49     0    12     0     0
SMALL
NO_CHARGES


@<TRIPOS>ATOM
      1 NZ         43.1420   20.9490   22.2355 N.4       3 LYC4        0.0000 
      2 NZ         43.8360   21.4320   23.4990 N.4      11 LYL4        0.0000 
      3 NZ         43.2820   19.8630   20.1280 N.4       7 LYP4        0.0000 
      4 N          43.1420   20.9490   22.2355 N.am      2 SEC2        0.0000 
      5 N          43.8360   21.4320   23.4990 N.am     10 SEL2        0.0000 
      6 N          42.4480   20.4660   20.9720 N.am      6 SEP2        0.0000 
      7 NZ         44.2390   21.2375   20.9390 N.4       3 LYC4        0.0000 
      8 NZ         45.1960   22.6120   21.7500 N.4      11 LYL4        0.0000 
      9 N          46.4465   22.6035   21.4105 N.am      2 SEC2        0.0000 
     10 N          45.1960   22.6120   21.7500 N.am     10 SEL2        0.0000 
     11 N          47.6970   22.5950   21.0710 N.am      6 SEP2        0.0000 
     12 CA         44.7965   24.2635   27.9800 C.3       4 GLC5        0.0000 
     13 CA         44.6210   24.8460   26.3040 C.3      12 GLL5        0.0000 
     14 CA         44.9720   23.6810   29.6560 C.3       8 GLP5        0.0000 
     15 CA         46.6045   25.6500   23.4250 C.3       4 GLC5        0.0000 
     16 CA         45.2990   26.6040   24.5740 C.3      12 GLL5        0.0000 
     17 CA         47.9100   24.6960   22.2760 C.3       8 GLP5        0.0000 
     18 N          44.8840   27.2435   22.3145 N.am      2 SEC2        0.0000 
     19 N          44.3920   26.4140   23.4810 N.am     10 SEL2        0.0000 
     20 N          45.3760   28.0730   21.1480 N.am      6 SEP2        0.0000 
     21 CA         47.7645   28.0720   23.8255 C.3       4 GLC5        0.0000 
     22 CA         45.7620   28.0460   24.7450 C.3      12 GLL5        0.0000 
     23 CA         49.7670   28.0980   22.9060 C.3       8 GLP5        0.0000 
     24 O          44.3620   29.3605   23.2015 O.2       1 ALC1        0.0000 
     25 O          44.6760   28.9800   24.5520 O.2       9 ALL1        0.0000 
     26 O          44.0480   29.7410   21.8510 O.2       5 ALP1        0.0000 
     27 CA         47.1625   27.3350   27.9385 C.3       4 GLC5        0.0000 
     28 CA         46.1940   28.1000   26.2030 C.3      12 GLL5        0.0000 
     29 CA         48.1310   26.5700   29.6740 C.3       8 GLP5        0.0000 
     30 CA         50.4970   29.1140   29.2200 C.3       4 GLC5        0.0000 
     31 CA         51.0640   28.6800   27.2180 C.3      12 GLL5        0.0000 
     32 CA         49.9300   29.5480   31.2220 C.3       8 GLP5        0.0000 
     33 CA         51.2145   29.3050   25.4575 C.3       4 GLC5        0.0000 
     34 CA         51.3650   29.9300   23.6970 C.3       8 GLP5        0.0000 
     35 CA         49.8280   30.0810   29.4030 C.3       4 GLC5        0.0000 
     36 CA         49.7260   30.6140   27.5840 C.3      12 GLL5        0.0000 
     37 CA         50.5455   30.2720   25.6405 C.3       4 GLC5        0.0000 
     38 CA         48.8165   31.5660   26.1220 C.3       4 GLC5        0.0000 
     39 CA         47.9070   32.5180   24.6600 C.3       8 GLP5        0.0000 
     40 CA         48.2415   30.6100   25.7235 C.3       4 GLC5        0.0000 
     41 CA         48.5760   28.7020   26.7870 C.3      12 GLL5        0.0000 
     42 CA         42.9823   25.3002   26.9292 C.3       4 GLC5        0.0000 
     43 CA         44.6680   26.3170   25.9290 C.3      12 GLL5        0.0000 
     44 CA         41.3200   25.0190   27.7420 C.3       8 GLP5        0.0000 
     45 CA         44.3422   26.4843   27.9162 C.3       4 GLC5        0.0000 
     46 CA         44.0400   27.3870   29.7160 C.3       8 GLP5        0.0000 
     47 CA         44.6885   28.7400   26.8755 C.3       4 GLC5        0.0000 
     48 CA         43.3990   29.4070   28.2770 C.3       8 GLP5        0.0000 
     49 CA         49.4895   28.2135   24.8447 C.3       4 GLC5        0.0000 
@<TRIPOS>BOND
@<TRIPOS>SUBSTRUCTURE
     1 ALC1       24 GROUP        1 X    ALC  0     ROOT ALC X 1
     2 SEC2        4 GROUP        1 X    SEC  0     **** SEC X 2
     3 LYC4        1 GROUP        1 X    LYC  0     **** LYC X 4
     4 GLC5       12 GROUP        1 X    GLC  0     **** GLC X 6
     5 ALP1       26 GROUP        1 Y    ALP  0     ROOT ALP Y 8
     6 SEP2        6 GROUP        1 Y    SEP  0     **** SEP Y 9
     7 LYP4        3 GROUP        1 Y    LYP  0     **** LYP Y 11
     8 GLP5       14 GROUP        1 Y    GLP  0     **** GLP Y 13
     9 ALL1       25 GROUP        1 Z    ALL  0     ROOT ALL Z 15
    10 SEL2        5 GROUP        1 Z    SEL  0     **** SEL Z 16
    11 LYL4        2 GROUP        1 Z    LYL  0     **** LYL Z 18
    12 GLL5       13 GROUP        1 Z    GLL  0     **** GLL Z 20
@<TRIPOS>SET

