#    Name: 1zs6_ADP_2_ligand
#    Modification time : Mon Mar 24 17:48:36 2014

@<TRIPOS>MOLECULE
1zs6_ADP_2_ligand
   39    41     1     0     0
SMALL
NO_CHARGES


@<TRIPOS>ATOM
      1 PB         44.5040   22.7120   23.0830 P.3       1 ADP202      0.0000 
      2 O1B        43.8360   21.4320   23.4990 O.co2     1 ADP202      0.0000 
      3 O2B        45.1960   22.6120   21.7500 O.co2     1 ADP202      0.0000 
      4 O3B        43.6400   23.9350   23.2530 O.co2     1 ADP202      0.0000 
      5 PA         46.0360   22.7260   25.5970 P.3       1 ADP202      0.0000 
      6 O1A        44.9570   21.8880   26.2330 O.co2     1 ADP202      0.0000 
      7 O2A        47.4890   22.3420   25.7420 O.co2     1 ADP202      0.0000 
      8 O3A        45.8080   22.9130   24.0110 O.3       1 ADP202      0.0000 
      9 O5'        45.9030   24.2350   26.1520 O.3       1 ADP202      0.0000 
     10 C5'        44.6210   24.8460   26.3040 C.3       1 ADP202      0.0000 
     11 C4'        44.6680   26.3170   25.9290 C.3       1 ADP202      0.0000 
     12 O4'        45.4850   27.0390   26.8560 O.3       1 ADP202      0.0000 
     13 C3'        45.2990   26.6040   24.5740 C.3       1 ADP202      0.0000 
     14 O3'        44.3920   26.4140   23.4810 O.3       1 ADP202      0.0000 
     15 C2'        45.7620   28.0460   24.7450 C.3       1 ADP202      0.0000 
     16 O2'        44.6760   28.9800   24.5520 O.3       1 ADP202      0.0000 
     17 C1'        46.1940   28.1000   26.2030 C.3       1 ADP202      0.0000 
     18 N9         47.6510   27.8360   26.3630 N.pl3     1 ADP202      0.0000 
     19 C8         48.2600   26.6530   26.1100 C.2       1 ADP202      0.0000 
     20 N7         49.5880   26.7130   26.3510 N.2       1 ADP202      0.0000 
     21 C5         49.8480   27.9560   26.7800 C.ar      1 ADP202      0.0000 
     22 C6         51.0640   28.6800   27.2180 C.ar      1 ADP202      0.0000 
     23 N6         52.2560   28.0430   27.2230 N.pl3     1 ADP202      0.0000 
     24 N1         50.9240   29.9780   27.5940 N.ar      1 ADP202      0.0000 
     25 C2         49.7260   30.6140   27.5840 C.ar      1 ADP202      0.0000 
     26 N3         48.5790   30.0090   27.1970 N.ar      1 ADP202      0.0000 
     27 C4         48.5760   28.7020   26.7870 C.ar      1 ADP202      0.0000 
     28 H          44.2604   24.7739   27.3436 H         1 ADP202      0.0000 
     29 H          43.8639   24.3592   25.6670 H         1 ADP202      0.0000 
     30 H          43.6703   26.7259   25.9269 H         1 ADP202      0.0000 
     31 H          46.1855   25.9933   24.5045 H         1 ADP202      0.0000 
     32 H          46.5924   28.2239   24.1377 H         1 ADP202      0.0000 
     33 H          45.9321   29.0403   26.6114 H         1 ADP202      0.0000 
     34 H          47.7903   25.8480   25.7894 H         1 ADP202      0.0000 
     35 H          52.2382   27.0742   26.9759 H         1 ADP202      0.0000 
     36 H          53.0499   28.5970   27.4734 H         1 ADP202      0.0000 
     37 H          49.6880   31.6266   27.8922 H         1 ADP202      0.0000 
     38 H          44.1846   25.4357   23.4840 H         1 ADP202      0.0000 
     39 H          44.5081   28.9814   23.5662 H         1 ADP202      0.0000 
@<TRIPOS>BOND
     1    2    1 ar   
     2    3    1 ar   
     3    4    1 ar   
     4    8    1 1    
     5    6    5 ar   
     6    7    5 ar   
     7    8    5 1    
     8    9    5 1    
     9   10    9 1    
    10   11   10 1    
    11   28   10 1    
    12   29   10 1    
    13   12   11 1    
    14   13   11 1    
    15   30   11 1    
    16   17   12 1    
    17   14   13 1    
    18   15   13 1    
    19   31   13 1    
    20   38   14 1    
    21   16   15 1    
    22   17   15 1    
    23   32   15 1    
    24   39   16 1    
    25   18   17 1    
    26   33   17 1    
    27   19   18 1    
    28   27   18 1    
    29   20   19 2    
    30   34   19 1    
    31   21   20 1    
    32   22   21 ar   
    33   27   21 ar   
    34   23   22 1    
    35   24   22 ar   
    36   35   23 1    
    37   36   23 1    
    38   25   24 ar   
    39   26   25 ar   
    40   37   25 1    
    41   27   26 ar   
@<TRIPOS>SUBSTRUCTURE
     1 ADP202      1 GROUP   
@<TRIPOS>SET

