#    Name: 2btr_U73_1_INTS_M
#    Modification time : Mon Mar 24 21:41:11 2014

@<TRIPOS>MOLECULE
2btr_U73_1_INTS_M
   53     0     9     0     0
SMALL
NO_CHARGES


@<TRIPOS>ATOM
      1 O           9.4110   47.3480   23.3325 O.2       1 ALC1        0.0000 
      2 O          10.3410   46.6840   24.0190 O.2       7 ALL1        0.0000 
      3 O           8.4810   48.0120   22.6460 O.2       4 ALP1        0.0000 
      4 N          10.7870   47.4095   21.0735 N.am      2 SEC2        0.0000 
      5 N          11.8530   46.7380   21.9730 N.am      8 SEL2        0.0000 
      6 N           9.7210   48.0810   20.1740 N.am      5 SEP2        0.0000 
      7 CA         13.2745   45.2125   19.7780 C.3       3 GLC5        0.0000 
      8 CA         13.0420   46.3410   21.6950 C.3       9 GLL5        0.0000 
      9 CA         13.5070   44.0840   17.8610 C.3       6 GLP5        0.0000 
     10 CA         14.8700   46.4455   20.4290 C.3       3 GLC5        0.0000 
     11 CA         16.6980   46.5500   19.1630 C.3       6 GLP5        0.0000 
     12 CA         12.3190   47.8770   20.6080 C.3       3 GLC5        0.0000 
     13 CA         11.5960   49.4130   19.5210 C.3       6 GLP5        0.0000 
     14 CA         12.8945   47.3870   24.9960 C.3       3 GLC5        0.0000 
     15 CA         12.8870   45.4920   24.0880 C.3       9 GLL5        0.0000 
     16 CA         12.9020   49.2820   25.9040 C.3       6 GLP5        0.0000 
     17 CA         14.5380   46.3975   25.2470 C.3       3 GLC5        0.0000 
     18 CA         16.1890   47.3030   26.4060 C.3       6 GLP5        0.0000 
     19 CA         14.0085   47.2040   23.2520 C.3       3 GLC5        0.0000 
     20 CA         15.1300   48.9160   22.4160 C.3       6 GLP5        0.0000 
     21 CA         11.8400   44.6100   22.7985 C.3       3 GLC5        0.0000 
     22 CA         10.7930   43.7280   21.5090 C.3       6 GLP5        0.0000 
     23 CA         14.2360   43.8585   19.8940 C.3       3 GLC5        0.0000 
     24 CA         14.9650   43.6330   21.9270 C.3       9 GLL5        0.0000 
     25 CA         16.2895   44.5325   20.6900 C.3       3 GLC5        0.0000 
     26 CA         17.6140   45.4320   19.4530 C.3       6 GLP5        0.0000 
     27 CA         12.8790   43.6805   21.7180 C.3       3 GLC5        0.0000 
     28 CA         14.0460   42.0225   21.5815 C.3       3 GLC5        0.0000 
     29 CA         13.1270   40.4120   21.2360 C.3       6 GLP5        0.0000 
     30 CA         16.1225   46.2670   24.9920 C.3       3 GLC5        0.0000 
     31 CA         16.0560   45.2310   23.5780 C.3       9 GLL5        0.0000 
     32 CA          6.8915   46.2425   25.2670 C.3       3 GLC5        0.0000 
     33 CA          8.7240   46.7220   25.8230 C.3       9 GLL5        0.0000 
     34 CA          5.0590   45.7630   24.7110 C.3       6 GLP5        0.0000 
     35 CA         10.9075   48.9820   29.3800 C.3       3 GLC5        0.0000 
     36 CA          8.9160   48.7900   28.9670 C.3       9 GLL5        0.0000 
     37 CA         12.8990   49.1740   29.7930 C.3       6 GLP5        0.0000 
     38 CA         10.7390   49.8745   27.8795 C.3       3 GLC5        0.0000 
     39 CA          8.7150   50.0330   28.4280 C.3       9 GLL5        0.0000 
     40 CA         12.7630   49.7160   27.3310 C.3       6 GLP5        0.0000 
     41 CA         10.6965   49.2120   26.0935 C.3       3 GLC5        0.0000 
     42 CA          8.4910   49.1420   26.2830 C.3       9 GLL5        0.0000 
     43 CA          7.1965   49.0520   24.5840 C.3       3 GLC5        0.0000 
     44 CA          5.9020   48.9620   22.8850 C.3       6 GLP5        0.0000 
     45 CA         14.2563   47.4615   22.2918 C.3       3 GLC5        0.0000 
     46 CA         12.0877   44.8675   21.8383 C.3       3 GLC5        0.0000 
     47 CA         15.3550   47.0400   22.7013 C.3       3 GLC5        0.0000 
     48 CA         15.1040   45.0970   22.3950 C.3       9 GLL5        0.0000 
     49 CA         16.9820   45.2985   21.7967 C.3       3 GLC5        0.0000 
     50 CA         18.3840   45.4330   20.6070 C.3       6 GLP5        0.0000 
     51 CA         10.7242   47.5302   27.7765 C.3       3 GLC5        0.0000 
     52 CA          8.7100   47.8760   26.7700 C.3       9 GLL5        0.0000 
     53 CA         12.6360   47.2830   28.1060 C.3       6 GLP5        0.0000 
@<TRIPOS>BOND
@<TRIPOS>SUBSTRUCTURE
     1 ALC1        1 GROUP        1 X    ALC  0     ROOT ALC X 1
     2 SEC2        4 GROUP        1 X    SEC  0     **** SEC X 2
     3 GLC5        7 GROUP        1 X    GLC  0     **** GLC X 6
     4 ALP1        3 GROUP        1 Y    ALP  0     ROOT ALP Y 8
     5 SEP2        6 GROUP        1 Y    SEP  0     **** SEP Y 9
     6 GLP5        9 GROUP        1 Y    GLP  0     **** GLP Y 13
     7 ALL1        2 GROUP        1 Z    ALL  0     ROOT ALL Z 15
     8 SEL2        5 GROUP        1 Z    SEL  0     **** SEL Z 16
     9 GLL5        8 GROUP        1 Z    GLL  0     **** GLL Z 20
@<TRIPOS>SET

