#    Name: 2btr_U73_1_ligand
#    Modification time : Mon Mar 24 21:41:11 2014

@<TRIPOS>MOLECULE
2btr_U73_1_ligand
   33    34     1     0     0
SMALL
NO_CHARGES


@<TRIPOS>ATOM
      1 O11        10.8800   45.7130   25.9630 O.2       1 U73300      0.0000 
      2 C10        10.0890   46.3610   25.2810 C.2       1 U73300      0.0000 
      3 N9         10.3410   46.6840   24.0190 N.am      1 U73300      0.0000 
      4 C3         11.6360   46.4270   23.2990 C.2       1 U73300      0.0000 
      5 N4         11.8530   46.7380   21.9730 N.2       1 U73300      0.0000 
      6 C5         13.0420   46.3410   21.6950 C.2       1 U73300      0.0000 
      7 S2         12.8870   45.4920   24.0880 S.3       1 U73300      0.0000 
      8 C1         13.7230   45.6730   22.6400 C.2       1 U73300      0.0000 
      9 C6         15.1040   45.0970   22.3950 C.3       1 U73300      0.0000 
     10 C8         14.9650   43.6330   21.9270 C.3       1 U73300      0.0000 
     11 C7         16.0560   45.2310   23.5780 C.3       1 U73300      0.0000 
     12 C12         8.7240   46.7220   25.8230 C.3       1 U73300      0.0000 
     13 C13         8.7100   47.8760   26.7700 C.ar      1 U73300      0.0000 
     14 C14         8.9150   47.6790   28.1240 C.ar      1 U73300      0.0000 
     15 C15         8.9160   48.7900   28.9670 C.ar      1 U73300      0.0000 
     16 C16         8.7150   50.0330   28.4280 C.ar      1 U73300      0.0000 
     17 N17         8.5000   50.1830   27.1160 N.ar      1 U73300      0.0000 
     18 C18         8.4910   49.1420   26.2830 C.ar      1 U73300      0.0000 
     19 H           9.6161   47.1640   23.4111 H         1 U73300      0.0000 
     20 H          13.4904   46.5180   20.7713 H         1 U73300      0.0000 
     21 H          15.5451   45.6504   21.5388 H         1 U73300      0.0000 
     22 H           8.2941   45.8280   26.3250 H         1 U73300      0.0000 
     23 H           8.0488   46.9395   24.9669 H         1 U73300      0.0000 
     24 H           9.0625   46.7445   28.5021 H         1 U73300      0.0000 
     25 H           9.0658   48.6663   29.9727 H         1 U73300      0.0000 
     26 H           8.7324   50.8653   29.0608 H         1 U73300      0.0000 
     27 H           8.3206   49.2685   25.2655 H         1 U73300      0.0000 
     28 H          15.8555   43.2126   21.7529 H         1 U73300      0.0000 
     29 H          14.5022   43.0673   22.6095 H         1 U73300      0.0000 
     30 H          14.4369   43.5622   21.0808 H         1 U73300      0.0000 
     31 H          16.9556   44.8436   23.3765 H         1 U73300      0.0000 
     32 H          16.1991   46.1873   23.8331 H         1 U73300      0.0000 
     33 H          15.7091   44.7601   24.3891 H         1 U73300      0.0000 
@<TRIPOS>BOND
     1    2    1 2    
     2    3    2 am   
     3   12    2 1    
     4    4    3 am   
     5   19    3 1    
     6    5    4 2    
     7    7    4 1    
     8    6    5 1    
     9    8    6 2    
    10   20    6 1    
    11    8    7 1    
    12    9    8 1    
    13   10    9 1    
    14   11    9 1    
    15   21    9 1    
    16   28   10 1    
    17   29   10 1    
    18   30   10 1    
    19   31   11 1    
    20   32   11 1    
    21   33   11 1    
    22   13   12 1    
    23   22   12 1    
    24   23   12 1    
    25   14   13 ar   
    26   18   13 ar   
    27   15   14 ar   
    28   24   14 1    
    29   16   15 ar   
    30   25   15 1    
    31   17   16 ar   
    32   26   16 1    
    33   18   17 ar   
    34   27   18 1    
@<TRIPOS>SUBSTRUCTURE
     1 U73300      1 GROUP   
@<TRIPOS>SET

