#    Name: 1TLW_3_CAVITY_N1_ALL.mol2
#    Modification time : Tue Mar 11 11:50:37 2014

@<TRIPOS>MOLECULE
1TLW_3_CAVITY_N1_ALL.mol2
  109     0     6     0     0
SMALL
NO_CHARGES


@<TRIPOS>ATOM
      1 O         -44.7468   56.8641    7.0093 O.2       2 ALA2        0.0000 
      2 N         -43.5686   56.6963    6.0962 N.2       2 ALA2        0.0000 
      3 O         -45.4256   57.7149    5.9771 O.2       2 ALA2        0.0000 
      4 N         -44.2474   57.5471    5.0640 N.2       2 ALA2        0.0000 
      5 O         -47.2826   58.7335    5.8580 O.2       2 ALA2        0.0000 
      6 OG        -46.1044   58.5657    4.9449 O.2       1 SER1        0.0000 
      7 CZ        -47.9613   59.5842    4.8258 C.ar      4 PHE5        0.0000 
      8 O         -42.7558   56.3865    9.6660 O.2       2 ALA2        0.0000 
      9 N         -41.5777   56.2187    8.7529 N.2       2 ALA2        0.0000 
     10 N         -43.4346   57.2373    8.6338 N.2       2 ALA2        0.0000 
     11 CA        -42.2565   57.0695    7.7207 C.3       5 GLY6        0.0000 
     12 O         -44.1134   58.0881    7.6016 O.2       2 ALA2        0.0000 
     13 CA        -42.9353   57.9202    6.6885 C.3       5 GLY6        0.0000 
     14 O         -44.7922   58.9388    6.5694 O.2       2 ALA2        0.0000 
     15 CZ        -43.6141   58.7710    5.6563 C.ar      4 PHE5        0.0000 
     16 O         -46.6492   59.9574    6.4503 O.2       2 ALA2        0.0000 
     17 CZ        -45.4710   59.7896    5.5372 C.ar      4 PHE5        0.0000 
     18 CZ        -46.1498   60.6404    4.5050 C.ar      4 PHE5        0.0000 
     19 N         -41.4437   56.7597   11.2905 N.2       2 ALA2        0.0000 
     20 OG        -43.3006   57.7783   11.1714 O.2       1 SER1        0.0000 
     21 DU        -42.1225   57.6105   10.2583 H         6 CUB7        0.0000 
     22 N         -40.9443   57.4427    9.3452 N.2       2 ALA2        0.0000 
     23 N         -42.8012   58.4613    9.2261 N.2       2 ALA2        0.0000 
     24 DU        -41.6231   58.2934    8.3130 H         6 CUB7        0.0000 
     25 CA        -40.4449   58.1256    7.3998 C.3       5 GLY6        0.0000 
     26 N         -43.4800   59.3120    8.1939 N.2       2 ALA2        0.0000 
     27 CA        -41.1237   58.9763    6.3676 C.3       5 GLY6        0.0000 
     28 N         -45.3370   60.3306    8.0748 N.2       2 ALA2        0.0000 
     29 N         -44.1588   60.1628    7.1617 N.2       2 ALA2        0.0000 
     30 CZ        -42.9807   59.9949    6.2485 C.ar      4 PHE5        0.0000 
     31 CA        -46.0158   61.1814    7.0426 C.3       5 GLY6        0.0000 
     32 CZ        -44.8376   61.0135    6.1294 C.ar      4 PHE5        0.0000 
     33 CZ        -45.5164   61.8643    5.0972 C.ar      4 PHE5        0.0000 
     34 CZ        -46.1952   62.7151    4.0650 C.ar      4 PHE5        0.0000 
     35 CZ        -46.8740   63.5658    3.0328 C.ar      4 PHE5        0.0000 
     36 N         -42.4835   67.4430    5.5210 N.2       2 ALA2        0.0000 
     37 N         -41.3053   67.2752    4.6079 N.2       2 ALA2        0.0000 
     38 NZ        -44.3405   68.4616    5.4019 N.2       3 LYS4        0.0000 
     39 CZ        -43.1623   68.2938    4.4888 C.ar      4 PHE5        0.0000 
     40 CZ        -41.9841   68.1259    3.5757 C.ar      4 PHE5        0.0000 
     41 OG        -45.0192   69.3124    4.3697 O.2       1 SER1        0.0000 
     42 O         -43.8411   69.1445    3.4566 O.2       2 ALA2        0.0000 
     43 CZ        -45.6980   70.1631    3.3375 C.ar      4 PHE5        0.0000 
     44 NZ        -44.8852   69.8534    6.9073 N.2       3 LYS4        0.0000 
     45 CZ        -43.7071   69.6855    5.9942 C.ar      4 PHE5        0.0000 
     46 CZ        -45.5640   70.7041    5.8751 C.ar      4 PHE5        0.0000 
     47 CZ        -44.3859   70.5363    4.9620 C.ar      4 PHE5        0.0000 
     48 CZ        -46.2428   71.5549    4.8429 C.ar      4 PHE5        0.0000 
     49 CZ        -45.0647   71.3871    3.9298 C.ar      4 PHE5        0.0000 
     50 OG        -42.6672   59.0023   11.7636 O.2       1 SER1        0.0000 
     51 OG        -41.4891   58.8344   10.8505 O.2       1 SER1        0.0000 
     52 N         -40.3109   58.6666    9.9374 N.2       2 ALA2        0.0000 
     53 CA        -39.1327   58.4988    9.0243 C.3       5 GLY6        0.0000 
     54 N         -43.3460   59.8530   10.7314 N.2       2 ALA2        0.0000 
     55 N         -42.1679   59.6852    9.8183 N.2       2 ALA2        0.0000 
     56 DU        -40.9897   59.5174    8.9052 H         6 CUB7        0.0000 
     57 CA        -39.8115   59.3495    7.9921 C.3       5 GLY6        0.0000 
     58 OG        -38.6334   59.1817    7.0790 O.2       1 SER1        0.0000 
     59 CA        -44.0248   60.7038    9.6992 C.3       5 GLY6        0.0000 
     60 CA        -42.8467   60.5360    8.7861 C.3       5 GLY6        0.0000 
     61 O         -41.6685   60.3681    7.8730 O.2       2 ALA2        0.0000 
     62 CA        -40.4903   60.2003    6.9599 C.3       5 GLY6        0.0000 
     63 O         -39.3122   60.0324    6.0468 O.2       2 ALA2        0.0000 
     64 CA        -43.5254   61.3867    7.7539 C.3       5 GLY6        0.0000 
     65 CZ        -42.3473   61.2189    6.8408 C.ar      4 PHE5        0.0000 
     66 CZ        -41.1691   61.0510    5.9277 C.ar      4 PHE5        0.0000 
     67 CA        -45.3824   62.4053    7.6348 C.3       5 GLY6        0.0000 
     68 CZ        -44.2042   62.2375    6.7217 C.ar      4 PHE5        0.0000 
     69 CZ        -46.0612   63.2561    6.6026 C.ar      4 PHE5        0.0000 
     70 CZ        -44.8830   63.0882    5.6895 C.ar      4 PHE5        0.0000 
     71 CZ        -46.7400   64.1068    5.5704 C.ar      4 PHE5        0.0000 
     72 OG        -45.5618   63.9390    4.6573 O.2       1 SER1        0.0000 
     73 CZ        -45.0624   64.6219    2.7120 C.ar      4 PHE5        0.0000 
     74 OG        -39.6775   59.8905   10.5297 O.2       1 SER1        0.0000 
     75 OG        -41.5345   60.9091   10.4106 O.2       1 SER1        0.0000 
     76 O         -40.3563   60.7413    9.4975 O.2       2 ALA2        0.0000 
     77 OG        -38.0000   60.4056    7.6713 O.2       1 SER1        0.0000 
     78 O         -42.2133   61.7599    9.3784 O.2       2 ALA2        0.0000 
     79 NZ        -39.8569   61.4242    7.5522 N.2       3 LYS4        0.0000 
     80 OG        -38.6788   61.2564    6.6391 O.2       1 SER1        0.0000 
     81 CA        -42.8921   62.6107    8.3462 C.3       5 GLY6        0.0000 
     82 O         -41.7139   62.4428    7.4331 O.2       2 ALA2        0.0000 
     83 CZ        -40.5357   62.2750    6.5200 C.ar      4 PHE5        0.0000 
     84 CA        -39.3576   62.1072    5.6069 C.3       5 GLY6        0.0000 
     85 CA        -43.5709   63.4614    7.3140 C.3       5 GLY6        0.0000 
     86 CZ        -42.3927   63.2936    6.4009 C.ar      4 PHE5        0.0000 
     87 NZ        -45.4278   64.4800    7.1949 N.2       3 LYS4        0.0000 
     88 NZ        -44.2496   64.3122    6.2818 N.2       3 LYS4        0.0000 
     89 CZ        -43.0715   64.1443    5.3687 C.ar      4 PHE5        0.0000 
     90 NZ        -44.9284   65.1629    5.2496 N.2       3 LYS4        0.0000 
     91 CZ        -43.7503   64.9951    4.3365 C.ar      4 PHE5        0.0000 
     92 O         -39.9024   63.4989    7.1123 O.2       2 ALA2        0.0000 
     93 O         -42.9375   64.6854    7.9063 O.2       2 ALA2        0.0000 
     94 O         -41.7593   64.5175    6.9932 O.2       2 ALA2        0.0000 
     95 CA        -40.5811   64.3497    6.0801 C.3       5 GLY6        0.0000 
     96 NZ        -43.6163   65.5361    6.8741 N.2       3 LYS4        0.0000 
     97 N         -42.4381   65.3683    5.9610 N.2       2 ALA2        0.0000 
     98 CA        -41.2599   65.2005    5.0479 C.3       5 GLY6        0.0000 
     99 NZ        -43.1169   66.2191    4.9288 N.2       3 LYS4        0.0000 
    100 CZ        -41.9387   66.0512    4.0156 C.ar      4 PHE5        0.0000 
    101 O         -43.7957   67.0698    3.8965 O.2       2 ALA2        0.0000 
    102 CZ        -43.5232   54.6216    6.5361 C.ar      4 PHE5        0.0000 
    103 CZ        -44.2020   55.4723    5.5039 C.ar      4 PHE5        0.0000 
    104 OG        -46.0590   56.4909    5.3848 O.2       1 SER1        0.0000 
    105 N         -44.8808   56.3231    4.4717 N.2       2 ALA2        0.0000 
    106 OG        -46.7378   57.3417    4.3526 O.2       1 SER1        0.0000 
    107 CA        -45.5596   57.1739    3.4395 C.3       5 GLY6        0.0000 
    108 O         -44.0680   56.0134    8.0415 O.2       2 ALA2        0.0000 
    109 N         -42.8899   55.8455    7.1284 N.2       2 ALA2        0.0000 
@<TRIPOS>BOND
@<TRIPOS>SUBSTRUCTURE
     1 SER1        6 GROUP   
     2 ALA2        1 GROUP   
     3 LYS4       38 GROUP   
     4 PHE5        7 GROUP   
     5 GLY6       11 GROUP   
     6 CUB7       21 GROUP   
@<TRIPOS>SET

