#    Name: 1tlw_THM_3_ligand
#    Modification time : Tue Mar 25 05:30:40 2014

@<TRIPOS>MOLECULE
1tlw_THM_3_ligand
   31    32     1     0     0
SMALL
NO_CHARGES


@<TRIPOS>ATOM
      1 O5'       -49.7620   63.0980    2.3980 O.3       1 THM799      0.0000 
      2 C5'       -49.1850   63.1390    1.0950 C.3       1 THM799      0.0000 
      3 C4'       -48.3370   61.9110    0.8950 C.3       1 THM799      0.0000 
      4 O4'       -47.1310   62.0300    1.6940 O.3       1 THM799      0.0000 
      5 C3'       -49.0400   60.6280    1.3740 C.3       1 THM799      0.0000 
      6 O3'       -48.7980   59.5360    0.4460 O.3       1 THM799      0.0000 
      7 C2'       -48.3880   60.3510    2.7250 C.3       1 THM799      0.0000 
      8 C1'       -46.9760   60.8540    2.4720 C.3       1 THM799      0.0000 
      9 N1        -46.2310   61.1930    3.6930 N.am      1 THM799      0.0000 
     10 C2        -45.8800   60.1230    4.4950 C.2       1 THM799      0.0000 
     11 O2        -46.1700   58.9590    4.2000 O.2       1 THM799      0.0000 
     12 N3        -45.1900   60.4490    5.6490 N.am      1 THM799      0.0000 
     13 C4        -44.8220   61.7140    6.0590 C.2       1 THM799      0.0000 
     14 O4        -44.1920   61.8500    7.1180 O.2       1 THM799      0.0000 
     15 C5        -45.2230   62.8060    5.1610 C.2       1 THM799      0.0000 
     16 C5M       -44.8610   64.2180    5.5240 C.3       1 THM799      0.0000 
     17 C6        -45.9000   62.4900    4.0390 C.2       1 THM799      0.0000 
     18 H         -48.5494   64.0217    0.9636 H         1 THM799      0.0000 
     19 H         -49.9537   63.1577    0.3145 H         1 THM799      0.0000 
     20 H         -48.0887   61.7946   -0.1364 H         1 THM799      0.0000 
     21 H         -50.0589   60.8405    1.5213 H         1 THM799      0.0000 
     22 H         -48.3754   59.3170    2.9106 H         1 THM799      0.0000 
     23 H         -48.8497   60.9300    3.4703 H         1 THM799      0.0000 
     24 H         -46.4507   60.1046    1.9023 H         1 THM799      0.0000 
     25 H         -44.9121   59.6299    6.2928 H         1 THM799      0.0000 
     26 H         -46.1997   63.2637    3.3803 H         1 THM799      0.0000 
     27 H         -43.8715   64.3389    5.6038 H         1 THM799      0.0000 
     28 H         -45.1819   64.8716    4.8385 H         1 THM799      0.0000 
     29 H         -45.2611   64.4908    6.3989 H         1 THM799      0.0000 
     30 H         -50.3347   63.9159    2.4532 H         1 THM799      0.0000 
     31 H         -47.8372   59.6271    0.1843 H         1 THM799      0.0000 
@<TRIPOS>BOND
     1    2    1 1    
     2   30    1 1    
     3    3    2 1    
     4   18    2 1    
     5   19    2 1    
     6    4    3 1    
     7    5    3 1    
     8   20    3 1    
     9    8    4 1    
    10    6    5 1    
    11    7    5 1    
    12   21    5 1    
    13   31    6 1    
    14    8    7 1    
    15   22    7 1    
    16   23    7 1    
    17    9    8 1    
    18   24    8 1    
    19   10    9 1    
    20   17    9 1    
    21   11   10 2    
    22   12   10 1    
    23   13   12 1    
    24   25   12 1    
    25   14   13 2    
    26   15   13 1    
    27   16   15 1    
    28   17   15 2    
    29   27   16 1    
    30   28   16 1    
    31   29   16 1    
    32   26   17 1    
@<TRIPOS>SUBSTRUCTURE
     1 THM799      1 GROUP   
@<TRIPOS>SET

