#    Name: 1zky_689_1_INTS_M
#    Modification time : Mon Apr  7 17:00:10 2014

@<TRIPOS>MOLECULE
1zky_689_1_INTS_M
   69     0     9     0     0
SMALL
NO_CHARGES


@<TRIPOS>ATOM
      1 CA        -24.6105    4.0215   -2.0340 C.3       3 GLC5        0.0000 
      2 CA        -26.0470    4.0070   -3.4670 C.3       9 GLL5        0.0000 
      3 CA        -23.1740    4.0360   -0.6010 C.3       6 GLP5        0.0000 
      4 CA        -25.6790    5.7535   -2.0990 C.3       3 GLC5        0.0000 
      5 CA        -25.3110    7.5000   -0.7310 C.3       6 GLP5        0.0000 
      6 CA        -26.5865    3.5560   -1.6165 C.3       3 GLC5        0.0000 
      7 CA        -27.1260    3.1050    0.2340 C.3       6 GLP5        0.0000 
      8 CA        -23.7605    1.9590   -4.2280 C.3       3 GLC5        0.0000 
      9 CA        -24.5310    3.3860   -5.4420 C.3       9 GLL5        0.0000 
     10 CA        -22.9900    0.5320   -3.0140 C.3       6 GLP5        0.0000 
     11 CA        -23.6890   -0.7285   -6.0950 C.3       3 GLC5        0.0000 
     12 CA        -24.0250    1.2960   -6.8980 C.3       9 GLL5        0.0000 
     13 CA        -23.3530   -2.7530   -5.2920 C.3       6 GLP5        0.0000 
     14 CA        -23.5075    0.9140   -4.9560 C.3       3 GLC5        0.0000 
     15 CA        -22.2555    0.3395   -6.7300 C.3       3 GLC5        0.0000 
     16 CA        -20.4860   -0.6170   -6.5620 C.3       6 GLP5        0.0000 
     17 CA        -26.9330    2.3865   -9.1230 C.3       3 GLC5        0.0000 
     18 CA        -25.6340    3.1660   -7.5610 C.3       9 GLL5        0.0000 
     19 CA        -28.2320    1.6070  -10.6850 C.3       6 GLP5        0.0000 
     20 CA        -29.2815    4.8545   -8.3660 C.3       3 GLC5        0.0000 
     21 CA        -27.7940    4.3370   -7.6850 C.3       9 GLL5        0.0000 
     22 CA        -30.7690    5.3720   -9.0470 C.3       6 GLP5        0.0000 
     23 CA        -28.0130    2.9720   -9.1850 C.3       3 GLC5        0.0000 
     24 CA        -28.6645    2.4040   -7.1595 C.3       3 GLC5        0.0000 
     25 CA        -29.5350    0.4710   -6.6340 C.3       6 GLP5        0.0000 
     26 CA        -28.0025    7.2775   -6.0805 C.3       3 GLC5        0.0000 
     27 CA        -27.7620    5.4200   -5.4320 C.3       9 GLL5        0.0000 
     28 CA        -28.2430    9.1350   -6.7290 C.3       6 GLP5        0.0000 
     29 O         -29.0665    6.1500   -3.7770 O.2       1 ALC1        0.0000 
     30 O         -27.7170    6.2800   -4.3080 O.2       7 ALL1        0.0000 
     31 O         -30.4160    6.0200   -3.2460 O.2       4 ALP1        0.0000 
     32 CA        -25.7370    6.9700   -7.4705 C.3       3 GLC5        0.0000 
     33 CA        -25.4120    6.0800   -5.5940 C.3       9 GLL5        0.0000 
     34 CA        -26.0620    7.8600   -9.3470 C.3       6 GLP5        0.0000 
     35 CA        -26.8275    7.6075   -6.1615 C.3       3 GLC5        0.0000 
     36 CA        -22.7645    6.3265   -6.7275 C.3       3 GLC5        0.0000 
     37 CA        -23.8110    4.6270   -6.0400 C.3       9 GLL5        0.0000 
     38 CA        -21.7180    8.0260   -7.4150 C.3       6 GLP5        0.0000 
     39 CA        -20.0920    4.6670  -10.1920 C.3       3 GLC5        0.0000 
     40 CA        -20.7420    4.0300   -8.2250 C.3       9 GLL5        0.0000 
     41 CA        -19.4420    5.3040  -12.1590 C.3       6 GLP5        0.0000 
     42 N         -17.3180    4.7630   -8.1460 N.am      2 SEC2        0.0000 
     43 N         -18.4820    3.6280   -7.6360 N.am      8 SEL2        0.0000 
     44 N         -16.1540    5.8980   -8.6560 N.am      5 SEP2        0.0000 
     45 N         -17.0565    3.0330   -7.3220 N.am      2 SEC2        0.0000 
     46 N         -15.6310    2.4380   -7.0080 N.am      5 SEP2        0.0000 
     47 O         -18.3605    2.9540   -8.8105 O.2       1 ALC1        0.0000 
     48 O         -18.4820    3.6280   -7.6360 O.2       7 ALL1        0.0000 
     49 O         -18.2390    2.2800   -9.9850 O.2       4 ALP1        0.0000 
     50 CA        -19.0965    3.7755   -3.9695 C.3       3 GLC5        0.0000 
     51 CA        -20.0620    3.9720   -5.9330 C.3       9 GLL5        0.0000 
     52 CA        -18.1310    3.5790   -2.0060 C.3       6 GLP5        0.0000 
     53 CA        -20.9490    3.8995   -3.3770 C.3       3 GLC5        0.0000 
     54 CA        -21.3570    4.2110   -5.5410 C.3       9 GLL5        0.0000 
     55 CA        -20.5410    3.5880   -1.2130 C.3       6 GLP5        0.0000 
     56 CA        -20.3845    6.0605   -5.1435 C.3       3 GLC5        0.0000 
     57 CA        -19.4120    7.9100   -4.7460 C.3       6 GLP5        0.0000 
     58 CA        -23.5100    1.1427   -8.2480 C.3       3 GLC5        0.0000 
     59 CA        -24.7690    2.5870   -6.6580 C.3       9 GLL5        0.0000 
     60 CA        -22.6230    0.3440   -9.7180 C.3       6 GLP5        0.0000 
     61 CA        -26.2054    4.9679   -9.1266 C.3       3 GLC5        0.0000 
     62 CA        -25.5150    5.8510  -10.7040 C.3       6 GLP5        0.0000 
     63 CA        -22.0075    2.2475   -8.8735 C.3       3 GLC5        0.0000 
     64 CA        -22.0420    4.2720   -7.8330 C.3       9 GLL5        0.0000 
     65 CA        -18.5672    5.2990   -5.7225 C.3       3 GLC5        0.0000 
     66 CA        -17.2290    6.6770   -4.8420 C.3       6 GLP5        0.0000 
     67 CA        -19.7266    2.3250   -5.6160 C.3       3 GLC5        0.0000 
     68 CA        -19.7490    3.8700   -7.2730 C.3       9 GLL5        0.0000 
     69 CA        -18.8220    0.5840   -5.1600 C.3       6 GLP5        0.0000 
@<TRIPOS>BOND
@<TRIPOS>SUBSTRUCTURE
     1 ALC1       29 GROUP        1 X    ALC  0     ROOT ALC X 1
     2 SEC2       42 GROUP        1 X    SEC  0     **** SEC X 2
     3 GLC5        1 GROUP        1 X    GLC  0     **** GLC X 6
     4 ALP1       31 GROUP        1 Y    ALP  0     ROOT ALP Y 8
     5 SEP2       44 GROUP        1 Y    SEP  0     **** SEP Y 9
     6 GLP5        3 GROUP        1 Y    GLP  0     **** GLP Y 13
     7 ALL1       30 GROUP        1 Z    ALL  0     ROOT ALL Z 15
     8 SEL2       43 GROUP        1 Z    SEL  0     **** SEL Z 16
     9 GLL5        2 GROUP        1 Z    GLL  0     **** GLL Z 20
@<TRIPOS>SET

