#    Name: 1zky_689_1_ligand
#    Modification time : Mon Apr  7 17:00:10 2014

@<TRIPOS>MOLECULE
1zky_689_1_ligand
   45    47     1     0     0
SMALL
NO_CHARGES


@<TRIPOS>ATOM
      1 CAN       -26.0470    4.0070   -3.4670 C.3       1 689700      0.0000 
      2 CAK       -25.9500    3.7330   -4.9630 C.3       1 689700      0.0000 
      3 CAJ       -24.5310    3.3860   -5.4420 C.3       1 689700      0.0000 
      4 CAO       -24.7690    2.5870   -6.6580 C.2       1 689700      0.0000 
      5 CAR       -24.0250    1.2960   -6.8980 C.3       1 689700      0.0000 
      6 CAQ       -25.6340    3.1660   -7.5610 C.2       1 689700      0.0000 
      7 CAP       -26.3610    4.4990   -7.2660 C.3       1 689700      0.0000 
      8 CAS       -27.7940    4.3370   -7.6850 C.3       1 689700      0.0000 
      9 CAL       -26.3770    4.9160   -5.8000 C.3       1 689700      0.0000 
     10 CAT       -27.7620    5.4200   -5.4320 C.3       1 689700      0.0000 
     11 OAU       -27.7170    6.2800   -4.3080 O.3       1 689700      0.0000 
     12 CAM       -25.4120    6.0800   -5.5940 C.3       1 689700      0.0000 
     13 OAH       -24.0830    5.7310   -5.2640 O.3       1 689700      0.0000 
     14 CAI       -23.8110    4.6270   -6.0400 C.3       1 689700      0.0000 
     15 CAD       -22.3590    4.3690   -6.4810 C.ar      1 689700      0.0000 
     16 CAC       -22.0420    4.2720   -7.8330 C.ar      1 689700      0.0000 
     17 CAB       -20.7420    4.0300   -8.2250 C.ar      1 689700      0.0000 
     18 CAA       -19.7490    3.8700   -7.2730 C.ar      1 689700      0.0000 
     19 OAG       -18.4820    3.6280   -7.6360 O.3       1 689700      0.0000 
     20 CAF       -20.0620    3.9720   -5.9330 C.ar      1 689700      0.0000 
     21 CAE       -21.3570    4.2110   -5.5410 C.ar      1 689700      0.0000 
     22 H         -26.5929    2.8937   -5.2244 H         1 689700      0.0000 
     23 H         -23.9786    2.9109   -4.7652 H         1 689700      0.0000 
     24 H         -25.8488    2.7569   -8.4736 H         1 689700      0.0000 
     25 H         -25.9231    5.2784   -7.8587 H         1 689700      0.0000 
     26 H         -28.4004    4.5369   -5.2462 H         1 689700      0.0000 
     27 H         -28.1792    5.9290   -6.3201 H         1 689700      0.0000 
     28 H         -25.8662    6.7442   -4.8079 H         1 689700      0.0000 
     29 H         -25.4494    6.7033   -6.5297 H         1 689700      0.0000 
     30 H         -24.3919    4.7682   -7.0519 H         1 689700      0.0000 
     31 H         -22.7854    4.3823   -8.5392 H         1 689700      0.0000 
     32 H         -20.5066    3.9677   -9.2273 H         1 689700      0.0000 
     33 H         -19.3170    3.8677   -5.2228 H         1 689700      0.0000 
     34 H         -21.5890    4.2741   -4.5329 H         1 689700      0.0000 
     35 H         -25.7616    3.2163   -2.9253 H         1 689700      0.0000 
     36 H         -25.4686    4.7750   -3.1918 H         1 689700      0.0000 
     37 H         -26.9817    4.2300   -3.1901 H         1 689700      0.0000 
     38 H         -23.0361    1.4392   -6.9382 H         1 689700      0.0000 
     39 H         -24.1953    0.6289   -6.1728 H         1 689700      0.0000 
     40 H         -24.2943    0.8669   -7.7602 H         1 689700      0.0000 
     41 H         -27.8747    4.1293   -8.6599 H         1 689700      0.0000 
     42 H         -28.2444    3.5947   -7.1889 H         1 689700      0.0000 
     43 H         -28.3261    5.1669   -7.5171 H         1 689700      0.0000 
     44 H         -28.4582    5.9680   -3.7137 H         1 689700      0.0000 
     45 H         -18.5507    3.1469   -8.5100 H         1 689700      0.0000 
@<TRIPOS>BOND
     1    2    1 1    
     2   35    1 1    
     3   36    1 1    
     4   37    1 1    
     5    3    2 1    
     6    9    2 1    
     7   22    2 1    
     8    4    3 1    
     9   14    3 1    
    10   23    3 1    
    11    5    4 1    
    12    6    4 2    
    13   38    5 1    
    14   39    5 1    
    15   40    5 1    
    16    7    6 1    
    17   24    6 1    
    18    8    7 1    
    19    9    7 1    
    20   25    7 1    
    21   41    8 1    
    22   42    8 1    
    23   43    8 1    
    24   10    9 1    
    25   12    9 1    
    26   11   10 1    
    27   26   10 1    
    28   27   10 1    
    29   44   11 1    
    30   13   12 1    
    31   28   12 1    
    32   29   12 1    
    33   14   13 1    
    34   15   14 1    
    35   30   14 1    
    36   16   15 ar   
    37   21   15 ar   
    38   17   16 ar   
    39   31   16 1    
    40   18   17 ar   
    41   32   17 1    
    42   19   18 1    
    43   20   18 ar   
    44   45   19 1    
    45   21   20 ar   
    46   33   20 1    
    47   34   21 1    
@<TRIPOS>SUBSTRUCTURE
     1 689700      1 GROUP   
@<TRIPOS>SET

