#    Name: 3qu0_X40_1_INTS_M
#    Modification time : Tue Mar 25 10:09:10 2014

@<TRIPOS>MOLECULE
3qu0_X40_1_INTS_M
   60     0     9     0     0
SMALL
NO_CHARGES


@<TRIPOS>ATOM
      1 N         -37.5550  -82.7035  -51.7185 N.am      2 SEC2        0.0000 
      2 N         -38.6610  -81.9650  -50.6080 N.am      8 SEL2        0.0000 
      3 N         -36.4490  -83.4420  -52.8290 N.am      5 SEP2        0.0000 
      4 N         -44.8735  -76.9775  -47.2720 N.am      2 SEC2        0.0000 
      5 N         -43.4120  -77.5010  -47.6610 N.am      8 SEL2        0.0000 
      6 N         -46.3350  -76.4540  -46.8830 N.am      5 SEP2        0.0000 
      7 O         -40.0700  -81.9390  -53.2870 O.2       1 ALC1        0.0000 
      8 O         -40.1910  -81.1210  -52.1010 O.2       7 ALL1        0.0000 
      9 O         -39.9490  -82.7570  -54.4730 O.2       4 ALP1        0.0000 
     10 CA        -38.5845  -78.0990  -48.8370 C.3       3 GLC5        0.0000 
     11 CA        -40.6770  -77.9230  -48.1810 C.3       9 GLL5        0.0000 
     12 CA        -36.4920  -78.2750  -49.4930 C.3       6 GLP5        0.0000 
     13 CA        -43.2085  -78.6495  -46.3065 C.3       3 GLC5        0.0000 
     14 CA        -42.4370  -76.8620  -46.9180 C.3       9 GLL5        0.0000 
     15 CA        -43.9800  -80.4370  -45.6950 C.3       6 GLP5        0.0000 
     16 CA        -45.0470  -78.4770  -48.2880 C.3       3 GLC5        0.0000 
     17 CA        -43.0090  -78.3590  -48.6610 C.3       9 GLL5        0.0000 
     18 CA        -47.0850  -78.5950  -47.9150 C.3       6 GLP5        0.0000 
     19 CA        -43.1100  -76.3190  -48.7470 C.3       3 GLC5        0.0000 
     20 CA        -43.2110  -74.2790  -48.8330 C.3       6 GLP5        0.0000 
     21 CA        -34.2030  -83.7615  -48.7120 C.3       3 GLC5        0.0000 
     22 CA        -35.7300  -83.3080  -47.3580 C.3       9 GLL5        0.0000 
     23 CA        -32.6760  -84.2150  -50.0660 C.3       6 GLP5        0.0000 
     24 N         -32.7755  -79.9140  -45.8445 N.am      2 SEC2        0.0000 
     25 N         -32.7880  -80.7960  -44.5770 N.am      8 SEL2        0.0000 
     26 N         -32.7630  -79.0320  -47.1120 N.am      5 SEP2        0.0000 
     27 N         -31.9760  -83.3890  -42.9370 N.am      2 SEC2        0.0000 
     28 N         -33.3470  -82.9200  -43.7010 N.am      8 SEL2        0.0000 
     29 N         -30.6050  -83.8580  -42.1730 N.am      5 SEP2        0.0000 
     30 N         -31.9310  -83.3615  -44.5875 N.am      2 SEC2        0.0000 
     31 N         -30.5150  -83.8030  -45.4740 N.am      5 SEP2        0.0000 
     32 CA        -39.1290  -81.7595  -46.6630 C.3       3 GLC5        0.0000 
     33 CA        -39.3450  -80.7300  -48.4600 C.3       9 GLL5        0.0000 
     34 CA        -38.9130  -82.7890  -44.8660 C.3       6 GLP5        0.0000 
     35 CA        -37.9185  -79.5025  -48.9765 C.3       3 GLC5        0.0000 
     36 CA        -41.3547  -81.4485  -48.0562 C.3       3 GLC5        0.0000 
     37 CA        -42.9130  -82.3390  -46.9390 C.3       6 GLP5        0.0000 
     38 CA        -40.9368  -82.2887  -50.5995 C.3       3 GLC5        0.0000 
     39 CA        -40.2480  -80.3860  -49.8870 C.3       9 GLL5        0.0000 
     40 CA        -41.8860  -83.8070  -50.7920 C.3       6 GLP5        0.0000 
     41 CA        -38.8872  -79.7053  -51.0010 C.3       3 GLC5        0.0000 
     42 CA        -39.7270  -81.1550  -50.9270 C.3       9 GLL5        0.0000 
     43 CA        -37.7870  -78.6400  -51.5950 C.3       6 GLP5        0.0000 
     44 CA        -37.7792  -82.2233  -46.1455 C.3       3 GLC5        0.0000 
     45 CA        -36.6270  -82.2800  -47.7930 C.3       9 GLL5        0.0000 
     46 CA        -43.1568  -79.4617  -47.2550 C.3       3 GLC5        0.0000 
     47 CA        -41.6580  -78.6140  -48.9690 C.3       9 GLL5        0.0000 
     48 CA        -40.6188  -77.0927  -50.1745 C.3       3 GLC5        0.0000 
     49 CA        -40.0700  -75.9170  -51.7740 C.3       6 GLP5        0.0000 
     50 CA        -42.4324  -75.7258  -48.0619 C.3       3 GLC5        0.0000 
     51 CA        -35.3605  -79.1223  -46.5063 C.3       3 GLC5        0.0000 
     52 CA        -36.6640  -81.0350  -47.0570 C.3       9 GLL5        0.0000 
     53 CA        -34.4770  -77.3060  -46.5180 C.3       6 GLP5        0.0000 
     54 CA        -37.1467  -82.0745  -45.2965 C.3       3 GLC5        0.0000 
     55 CA        -35.8240  -80.8420  -45.9320 C.3       9 GLL5        0.0000 
     56 CA        -33.6893  -81.2695  -46.8430 C.3       3 GLC5        0.0000 
     57 CA        -31.9980  -81.1790  -47.9590 C.3       6 GLP5        0.0000 
     58 CA        -36.3634  -79.7624  -48.0858 C.3       3 GLC5        0.0000 
     59 CA        -37.1115  -82.9993  -45.8307 C.3       3 GLC5        0.0000 
     60 CA        -33.6540  -82.1943  -47.3773 C.3       3 GLC5        0.0000 
@<TRIPOS>BOND
@<TRIPOS>SUBSTRUCTURE
     1 ALC1        7 GROUP        1 X    ALC  0     ROOT ALC X 1
     2 SEC2        1 GROUP        1 X    SEC  0     **** SEC X 2
     3 GLC5       10 GROUP        1 X    GLC  0     **** GLC X 6
     4 ALP1        9 GROUP        1 Y    ALP  0     ROOT ALP Y 8
     5 SEP2        3 GROUP        1 Y    SEP  0     **** SEP Y 9
     6 GLP5       12 GROUP        1 Y    GLP  0     **** GLP Y 13
     7 ALL1        8 GROUP        1 Z    ALL  0     ROOT ALL Z 15
     8 SEL2        2 GROUP        1 Z    SEL  0     **** SEL Z 16
     9 GLL5       11 GROUP        1 Z    GLL  0     **** GLL Z 20
@<TRIPOS>SET

