#    Name: 3qu0_X40_1_ligand
#    Modification time : Tue Mar 25 10:09:10 2014

@<TRIPOS>MOLECULE
3qu0_X40_1_ligand
   38    40     1     0     0
SMALL
NO_CHARGES


@<TRIPOS>ATOM
      1 N01       -38.6610  -81.9650  -50.6080 N.2       1 X40454      0.0000 
      2 N02       -37.3580  -82.5350  -48.8450 N.pl3     1 X40454      0.0000 
      3 N03       -43.4120  -77.5010  -47.6610 N.ar      1 X40454      0.0000 
      4 N04       -40.1910  -81.1210  -52.1010 N.pl3     1 X40454      0.0000 
      5 N05       -34.6580  -80.8710  -42.8680 N.pl3     1 X40454      0.0000 
      6 C06       -40.2480  -80.3860  -49.8870 C.2       1 X40454      0.0000 
      7 C07       -39.7270  -81.1550  -50.9270 C.2       1 X40454      0.0000 
      8 C08       -38.3540  -81.8390  -49.3480 C.2       1 X40454      0.0000 
      9 C09       -36.6270  -82.2800  -47.7930 C.ar      1 X40454      0.0000 
     10 C10       -41.3170  -79.4950  -49.9960 C.2       1 X40454      0.0000 
     11 C11       -41.6580  -78.6140  -48.9690 C.ar      1 X40454      0.0000 
     12 C12       -40.6770  -77.9230  -48.1810 C.ar      1 X40454      0.0000 
     13 C13       -41.0640  -77.0430  -47.1460 C.ar      1 X40454      0.0000 
     14 C14       -42.4370  -76.8620  -46.9180 C.ar      1 X40454      0.0000 
     15 C15       -43.0090  -78.3590  -48.6610 C.ar      1 X40454      0.0000 
     16 C16       -36.6640  -81.0350  -47.0570 C.ar      1 X40454      0.0000 
     17 C17       -35.8240  -80.8420  -45.9320 C.ar      1 X40454      0.0000 
     18 C18       -34.9370  -81.8780  -45.5220 C.ar      1 X40454      0.0000 
     19 C19       -34.8900  -83.1110  -46.2330 C.ar      1 X40454      0.0000 
     20 C20       -35.7300  -83.3080  -47.3580 C.ar      1 X40454      0.0000 
     21 O21       -41.9690  -79.4700  -51.0430 O.2       1 X40454      0.0000 
     22 O22       -32.7880  -80.7960  -44.5770 O.2       1 X40454      0.0000 
     23 O23       -33.3470  -82.9200  -43.7010 O.2       1 X40454      0.0000 
     24 S24       -39.3450  -80.7300  -48.4600 S.3       1 X40454      0.0000 
     25 S25       -33.8640  -81.6350  -44.1430 S.o2      1 X40454      0.0000 
     26 H         -37.1051  -83.4717  -49.3949 H         1 X40454      0.0000 
     27 H         -40.9419  -80.4798  -52.2589 H         1 X40454      0.0000 
     28 H         -39.7634  -81.7385  -52.7612 H         1 X40454      0.0000 
     29 H         -34.1137  -80.7080  -42.0451 H         1 X40454      0.0000 
     30 H         -35.6170  -80.6350  -43.0250 H         1 X40454      0.0000 
     31 H         -39.6841  -78.0770  -48.3800 H         1 X40454      0.0000 
     32 H         -40.3734  -76.5627  -46.5917 H         1 X40454      0.0000 
     33 H         -42.7268  -76.2121  -46.1487 H         1 X40454      0.0000 
     34 H         -43.7393  -78.8564  -49.2322 H         1 X40454      0.0000 
     35 H         -37.3012  -80.3017  -47.3591 H         1 X40454      0.0000 
     36 H         -35.8523  -79.9655  -45.4158 H         1 X40454      0.0000 
     37 H         -34.2551  -83.8460  -45.9325 H         1 X40454      0.0000 
     38 H         -35.6995  -84.1932  -47.8694 H         1 X40454      0.0000 
@<TRIPOS>BOND
     1    7    1 1    
     2    8    1 2    
     3    8    2 1    
     4    9    2 1    
     5   26    2 1    
     6   14    3 ar   
     7   15    3 ar   
     8    7    4 1    
     9   27    4 1    
    10   28    4 1    
    11   25    5 1    
    12   29    5 1    
    13   30    5 1    
    14    7    6 2    
    15   10    6 1    
    16   24    6 1    
    17   24    8 1    
    18   16    9 ar   
    19   20    9 ar   
    20   11   10 1    
    21   21   10 2    
    22   12   11 ar   
    23   15   11 ar   
    24   13   12 ar   
    25   31   12 1    
    26   14   13 ar   
    27   32   13 1    
    28   33   14 1    
    29   34   15 1    
    30   17   16 ar   
    31   35   16 1    
    32   18   17 ar   
    33   36   17 1    
    34   19   18 ar   
    35   25   18 1    
    36   20   19 ar   
    37   37   19 1    
    38   38   20 1    
    39   25   22 2    
    40   25   23 2    
@<TRIPOS>SUBSTRUCTURE
     1 X40454      1 GROUP   
@<TRIPOS>SET

