#    Name: 1KI7_2_CAVITY_N1_ALL.mol2
#    Modification time : Tue Mar 11 13:35:12 2014

@<TRIPOS>MOLECULE
1KI7_2_CAVITY_N1_ALL.mol2
   48     0     6     0     0
SMALL
NO_CHARGES


@<TRIPOS>ATOM
      1 CZ         22.6032   96.5557   43.6252 C.ar      4 PHE5        0.0000 
      2 O          23.5195   95.7546   44.5019 O.2       2 ALA2        0.0000 
      3 CZ         20.5185   96.5499   43.2325 C.ar      4 PHE5        0.0000 
      4 CZ         21.4349   95.7489   44.1092 C.ar      4 PHE5        0.0000 
      5 CA         22.3512   94.9478   44.9859 C.3       5 GLY6        0.0000 
      6 OG         18.4339   96.5442   42.8397 O.2       1 SER1        0.0000 
      7 CZ         19.3502   95.7432   43.7164 C.ar      4 PHE5        0.0000 
      8 CA         20.2666   94.9421   44.5931 C.3       5 GLY6        0.0000 
      9 CA         17.2656   95.7374   43.3236 C.3       5 GLY6        0.0000 
     10 DU         18.1820   94.9364   44.2003 H         6 CUB7        0.0000 
     11 CA         19.0983   94.1353   45.0771 C.3       5 GLY6        0.0000 
     12 CA         15.1810   95.7317   42.9309 C.3       5 GLY6        0.0000 
     13 O          16.0973   94.9307   43.8076 O.2       2 ALA2        0.0000 
     14 O          17.0137   94.1296   44.6843 O.2       2 ALA2        0.0000 
     15 CZ         17.9300   93.3286   45.5610 C.ar      4 PHE5        0.0000 
     16 CZ         21.6480   94.7704   42.9924 C.ar      4 PHE5        0.0000 
     17 CZ         22.5643   93.9694   43.8691 C.ar      4 PHE5        0.0000 
     18 N          23.4807   93.1683   44.7458 N.2       2 ALA2        0.0000 
     19 CZ         19.5633   94.7647   42.5996 C.ar      4 PHE5        0.0000 
     20 CZ         20.4797   93.9636   43.4764 C.ar      4 PHE5        0.0000 
     21 CA         21.3960   93.1626   44.3531 C.3       5 GLY6        0.0000 
     22 CA         22.3124   92.3615   45.2298 C.3       5 GLY6        0.0000 
     23 O          17.4787   94.7590   42.2069 O.2       2 ALA2        0.0000 
     24 O          18.3951   93.9579   43.0836 O.2       2 ALA2        0.0000 
     25 CZ         19.3114   93.1569   43.9603 C.ar      4 PHE5        0.0000 
     26 CA         20.2277   92.3558   44.8370 C.3       5 GLY6        0.0000 
     27 CZ         18.1431   92.3501   44.4442 C.ar      4 PHE5        0.0000 
     28 CZ         21.6091   92.1841   43.2363 C.ar      4 PHE5        0.0000 
     29 CA         22.5255   91.3831   44.1130 C.3       5 GLY6        0.0000 
     30 O          19.5245   92.1784   42.8435 O.2       2 ALA2        0.0000 
     31 CA         20.4408   91.3773   43.7202 C.3       5 GLY6        0.0000 
     32 CZ         21.3572   90.5763   44.5970 C.ar      4 PHE5        0.0000 
     33 CZ         19.2725   90.5705   44.2042 C.ar      4 PHE5        0.0000 
     34 CA         22.3901   97.5342   44.7420 C.3       5 GLY6        0.0000 
     35 CA         23.3064   96.7331   45.6187 C.3       5 GLY6        0.0000 
     36 OG         20.3054   97.5284   44.3492 O.2       1 SER1        0.0000 
     37 CZ         21.2218   96.7274   45.2259 C.ar      4 PHE5        0.0000 
     38 CA         22.1381   95.9263   46.1027 C.3       5 GLY6        0.0000 
     39 OG         18.2208   97.5227   43.9565 O.2       1 SER1        0.0000 
     40 OG         19.1371   96.7217   44.8332 O.2       1 SER1        0.0000 
     41 CA         20.0535   95.9206   45.7099 C.3       5 GLY6        0.0000 
     42 NZ         16.1362   97.5170   43.5637 N.2       3 LYS4        0.0000 
     43 NZ         17.0525   96.7159   44.4404 N.2       3 LYS4        0.0000 
     44 CA         17.9689   95.9149   45.3171 C.3       5 GLY6        0.0000 
     45 CA         18.8852   95.1138   46.1938 C.3       5 GLY6        0.0000 
     46 O          16.8006   95.1081   45.8011 O.2       2 ALA2        0.0000 
     47 CA         20.6539   90.3988   42.6035 C.3       5 GLY6        0.0000 
     48 CA         17.7558   96.8934   46.4339 C.3       5 GLY6        0.0000 
@<TRIPOS>BOND
@<TRIPOS>SUBSTRUCTURE
     1 SER1        6 GROUP   
     2 ALA2        2 GROUP   
     3 LYS4       42 GROUP   
     4 PHE5        1 GROUP   
     5 GLY6        5 GROUP   
     6 CUB7       10 GROUP   
@<TRIPOS>SET

