#    Name: 1ki7_ID2_2_INTS_M
#    Modification time : Tue Mar 25 10:03:42 2014

@<TRIPOS>MOLECULE
1ki7_ID2_2_INTS_M
   53     0     9     0     0
SMALL
NO_CHARGES


@<TRIPOS>ATOM
      1 CA         21.8740   93.2680   42.4055 C.3       3 GLC5        0.0000 
      2 CA         21.3030   92.8090   44.1470 C.3       9 GLL5        0.0000 
      3 CA         22.4450   93.7270   40.6640 C.3       6 GLP5        0.0000 
      4 CA         20.7900   94.0080   42.3140 C.3       3 GLC5        0.0000 
      5 CA         20.4250   93.8970   44.3220 C.3       9 GLL5        0.0000 
      6 CA         21.1550   94.1190   40.3060 C.3       6 GLP5        0.0000 
      7 O          16.3690   93.0120   44.0105 O.2       1 ALC1        0.0000 
      8 O          17.3700   94.3890   44.3100 O.2       7 ALL1        0.0000 
      9 O          15.3680   91.6350   43.7110 O.2       4 ALP1        0.0000 
     10 CA         17.0090   93.5325   46.4425 C.3       3 GLC5        0.0000 
     11 CA         16.9690   95.1030   45.4020 C.3       9 GLL5        0.0000 
     12 CA         17.0490   91.9620   47.4830 C.3       6 GLP5        0.0000 
     13 CA         19.8500   95.9960   46.7155 C.3       3 GLC5        0.0000 
     14 CA         20.0650   96.3080   44.8310 C.3       9 GLL5        0.0000 
     15 CA         19.6350   95.6840   48.6000 C.3       6 GLP5        0.0000 
     16 CA         20.2095   98.3035   45.5540 C.3       3 GLC5        0.0000 
     17 CA         20.3540  100.2990   46.2770 C.3       6 GLP5        0.0000 
     18 CA         20.5240   94.6315   46.1415 C.3       3 GLC5        0.0000 
     19 CA         20.9830   92.9550   47.4520 C.3       6 GLP5        0.0000 
     20 O          24.6000   94.6870   44.9000 O.2       1 ALC1        0.0000 
     21 O          23.1330   94.2870   44.5440 O.2       7 ALL1        0.0000 
     22 O          26.0670   95.0870   45.2560 O.2       4 ALP1        0.0000 
     23 N          24.9420   92.5655   44.3110 N.am      2 SEC2        0.0000 
     24 N          23.6580   92.1240   44.1020 N.am      8 SEL2        0.0000 
     25 N          26.2260   93.0070   44.5200 N.am      5 SEP2        0.0000 
     26 CA         19.5780   90.5365   45.3260 C.3       3 GLC5        0.0000 
     27 CA         20.5690   90.9020   43.6340 C.3       9 GLL5        0.0000 
     28 CA         18.5870   90.1710   47.0180 C.3       6 GLP5        0.0000 
     29 CA         20.7760   91.9285   45.5430 C.3       3 GLC5        0.0000 
     30 CA         19.9455   89.0130   44.5185 C.3       3 GLC5        0.0000 
     31 CA         19.3220   87.1240   45.4030 C.3       6 GLP5        0.0000 
     32 CA         18.9645   90.7410   42.5525 C.3       3 GLC5        0.0000 
     33 CA         17.3600   90.5800   41.4710 C.3       6 GLP5        0.0000 
     34 CA         21.0325   90.1090   41.7325 C.3       3 GLC5        0.0000 
     35 CA         21.4960   89.3160   39.8310 C.3       6 GLP5        0.0000 
     36 CA         19.1205   98.7125   45.3385 C.3       3 GLC5        0.0000 
     37 CA         17.8870   97.1260   44.4000 C.3       9 GLL5        0.0000 
     38 N          19.0385   99.2775   44.3480 N.am      2 SEC2        0.0000 
     39 N          18.2540   98.3720   44.7870 N.am      8 SEL2        0.0000 
     40 N          19.8230  100.1830   43.9090 N.am      5 SEP2        0.0000 
     41 O          17.2015   99.0700   45.0180 O.2       1 ALC1        0.0000 
     42 O          18.2540   98.3720   44.7870 O.2       7 ALL1        0.0000 
     43 O          16.1490   99.7680   45.2490 O.2       4 ALP1        0.0000 
     44 CA         20.9235   93.1540   45.8432 C.3       3 GLC5        0.0000 
     45 CA         18.5240   95.6907   47.0400 C.3       3 GLC5        0.0000 
     46 CA         17.8570   96.2920   45.5580 C.3       9 GLL5        0.0000 
     47 CA         16.0655   96.7818   46.6185 C.3       3 GLC5        0.0000 
     48 CA         14.7180   97.8660   47.7570 C.3       6 GLP5        0.0000 
     49 CA         20.6435   96.4155   42.5487 C.3       3 GLC5        0.0000 
     50 CA         19.0990   96.5640   43.7340 C.3       9 GLL5        0.0000 
     51 CA         21.7050   96.3950   40.8150 C.3       6 GLP5        0.0000 
     52 CA         17.8595   97.6925   42.3760 C.3       3 GLC5        0.0000 
     53 CA         17.2260   98.5400   40.6850 C.3       6 GLP5        0.0000 
@<TRIPOS>BOND
@<TRIPOS>SUBSTRUCTURE
     1 ALC1        7 GROUP        1 X    ALC  0     ROOT ALC X 1
     2 SEC2       23 GROUP        1 X    SEC  0     **** SEC X 2
     3 GLC5        1 GROUP        1 X    GLC  0     **** GLC X 6
     4 ALP1        9 GROUP        1 Y    ALP  0     ROOT ALP Y 8
     5 SEP2       25 GROUP        1 Y    SEP  0     **** SEP Y 9
     6 GLP5        3 GROUP        1 Y    GLP  0     **** GLP Y 13
     7 ALL1        8 GROUP        1 Z    ALL  0     ROOT ALL Z 15
     8 SEL2       24 GROUP        1 Z    SEL  0     **** SEL Z 16
     9 GLL5        2 GROUP        1 Z    GLL  0     **** GLL Z 20
@<TRIPOS>SET

