#    Name: 1ki7_ID2_2_ligand
#    Modification time : Tue Mar 25 10:03:42 2014

@<TRIPOS>MOLECULE
1ki7_ID2_2_ligand
   28    29     1     0     0
SMALL
NO_CHARGES


@<TRIPOS>ATOM
      1 C2         22.2850   95.3640   44.7070 C.2       1 ID22        0.0000 
      2 C4         22.7690   92.9820   44.2550 C.2       1 ID22        0.0000 
      3 C5         21.3030   92.8090   44.1470 C.2       1 ID22        0.0000 
      4 C6         20.4250   93.8970   44.3220 C.2       1 ID22        0.0000 
      5 O2         22.7690   96.4560   44.9270 O.2       1 ID22        0.0000 
      6 O5'        17.3700   94.3890   44.3100 O.3       1 ID22        0.0000 
      7 C5'        16.9690   95.1030   45.4020 C.3       1 ID22        0.0000 
      8 C4'        17.8570   96.2920   45.5580 C.3       1 ID22        0.0000 
      9 O4'        19.1990   95.8660   45.8100 O.3       1 ID22        0.0000 
     10 C1'        20.0650   96.3080   44.8310 C.3       1 ID22        0.0000 
     11 N1         20.9210   95.1750   44.6130 N.am      1 ID22        0.0000 
     12 N3         23.1330   94.2870   44.5440 N.am      1 ID22        0.0000 
     13 O4         23.6580   92.1240   44.1020 O.2       1 ID22        0.0000 
     14 I          20.5690   90.9020   43.6340 I         1 ID22        0.0000 
     15 C2'        19.0990   96.5640   43.7340 C.3       1 ID22        0.0000 
     16 C3'        17.8870   97.1260   44.4000 C.3       1 ID22        0.0000 
     17 O3'        18.2540   98.3720   44.7870 O.3       1 ID22        0.0000 
     18 H          19.4117   93.7486   44.2347 H         1 ID22        0.0000 
     19 H          17.0224   94.5197   46.3389 H         1 ID22        0.0000 
     20 H          15.9301   95.4695   45.3167 H         1 ID22        0.0000 
     21 H          17.5057   96.8710   46.4192 H         1 ID22        0.0000 
     22 H          20.5607   97.1678   45.1074 H         1 ID22        0.0000 
     23 H          24.1887   94.4796   44.6526 H         1 ID22        0.0000 
     24 H          18.8497   95.6450   43.2350 H         1 ID22        0.0000 
     25 H          19.5024   97.2811   43.0421 H         1 ID22        0.0000 
     26 H          17.0804   97.0244   43.8058 H         1 ID22        0.0000 
     27 H          16.7472   93.6077   44.2688 H         1 ID22        0.0000 
     28 H          17.5245   98.9709   44.4564 H         1 ID22        0.0000 
@<TRIPOS>BOND
     1    5    1 2    
     2   11    1 1    
     3   12    1 1    
     4    3    2 1    
     5   12    2 1    
     6   13    2 2    
     7    4    3 2    
     8   14    3 1    
     9   11    4 1    
    10   18    4 1    
    11    7    6 1    
    12   27    6 1    
    13    8    7 1    
    14   19    7 1    
    15   20    7 1    
    16    9    8 1    
    17   16    8 1    
    18   21    8 1    
    19   10    9 1    
    20   11   10 1    
    21   15   10 1    
    22   22   10 1    
    23   23   12 1    
    24   16   15 1    
    25   24   15 1    
    26   25   15 1    
    27   17   16 1    
    28   26   16 1    
    29   28   17 1    
@<TRIPOS>SUBSTRUCTURE
     1 ID22        1 GROUP   
@<TRIPOS>SET

