#    Name: 4DKR_2_CAVITY_N1_ALL.mol2
#    Modification time : Mon Mar 10 14:10:25 2014

@<TRIPOS>MOLECULE
4DKR_2_CAVITY_N1_ALL.mol2
   65     0     6     0     0
SMALL
NO_CHARGES


@<TRIPOS>ATOM
      1 CZ         -2.3218  -34.1580    2.8485 C.ar      4 PHE5        0.0000 
      2 OG         -3.7888  -34.4279    2.6902 O.2       1 SER1        0.0000 
      3 CZ         -3.9773  -33.0599    2.1046 C.ar      4 PHE5        0.0000 
      4 CA         -4.1658  -31.6918    1.5190 C.3       5 GLY6        0.0000 
      5 CA         -5.2558  -34.6978    2.5319 C.3       5 GLY6        0.0000 
      6 CA         -5.4443  -33.3298    1.9463 C.3       5 GLY6        0.0000 
      7 CA         -5.6328  -31.9617    1.3607 C.3       5 GLY6        0.0000 
      8 CA         -6.9113  -33.5997    1.7879 C.3       5 GLY6        0.0000 
      9 CA         -8.3783  -33.8696    1.6296 C.3       5 GLY6        0.0000 
     10 CA         -8.5668  -32.5015    1.0440 C.3       5 GLY6        0.0000 
     11 CA         -9.8453  -34.1395    1.4713 C.3       5 GLY6        0.0000 
     12 N         -10.0338  -32.7714    0.8857 N.2       2 ALA2        0.0000 
     13 CZ         -2.5716  -33.6052    4.2204 C.ar      4 PHE5        0.0000 
     14 CZ         -2.7601  -32.2372    3.6348 C.ar      4 PHE5        0.0000 
     15 CZ         -2.9485  -30.8691    3.0492 C.ar      4 PHE5        0.0000 
     16 OG         -4.0386  -33.8751    4.0621 O.2       1 SER1        0.0000 
     17 DU         -4.2271  -32.5071    3.4765 H         6 CUB7        0.0000 
     18 CA         -4.4155  -31.1390    2.8909 C.3       5 GLY6        0.0000 
     19 OG         -5.6941  -32.7770    3.3181 O.2       1 SER1        0.0000 
     20 CA         -5.8825  -31.4089    2.7325 C.3       5 GLY6        0.0000 
     21 OG         -7.1611  -33.0469    3.1598 O.2       1 SER1        0.0000 
     22 CA         -7.3495  -31.6788    2.5742 C.3       5 GLY6        0.0000 
     23 CA         -8.6281  -33.3168    3.0015 C.3       5 GLY6        0.0000 
     24 CA         -8.8165  -31.9487    2.4159 C.3       5 GLY6        0.0000 
     25 CA         -7.8787  -34.9752   -1.1141 C.3       5 GLY6        0.0000 
     26 N          -8.0672  -33.6071   -1.6997 N.2       2 ALA2        0.0000 
     27 CA         -9.3457  -35.2451   -1.2725 C.3       5 GLY6        0.0000 
     28 N          -9.5342  -33.8770   -1.8581 N.2       2 ALA2        0.0000 
     29 N          -9.7227  -32.5090   -2.4436 N.2       2 ALA2        0.0000 
     30 N          -9.9112  -31.1409   -3.0292 N.2       2 ALA2        0.0000 
     31 CA        -10.8127  -35.5150   -1.4308 C.3       5 GLY6        0.0000 
     32 DU        -11.0012  -34.1469   -2.0164 H         6 CUB7        0.0000 
     33 DU        -11.1897  -32.7789   -2.6020 H         6 CUB7        0.0000 
     34 N         -11.3782  -31.4108   -3.1876 N.2       2 ALA2        0.0000 
     35 CA        -12.2797  -35.7849   -1.5891 C.3       5 GLY6        0.0000 
     36 N          -3.7275  -33.6127    0.7327 N.2       2 ALA2        0.0000 
     37 CA         -6.6615  -34.1525    0.4161 C.3       5 GLY6        0.0000 
     38 N          -6.8500  -32.7844   -0.1695 N.2       2 ALA2        0.0000 
     39 CA         -8.1285  -34.4224    0.2577 C.3       5 GLY6        0.0000 
     40 CA         -8.3170  -33.0543   -0.3279 C.3       5 GLY6        0.0000 
     41 CA         -9.5955  -34.6923    0.0994 C.3       5 GLY6        0.0000 
     42 N          -9.7840  -33.3242   -0.4862 N.2       2 ALA2        0.0000 
     43 CA         -9.9725  -31.9562   -1.0718 C.3       5 GLY6        0.0000 
     44 N         -11.2510  -33.5941   -0.6445 N.2       2 ALA2        0.0000 
     45 N         -11.4395  -32.2261   -1.2301 N.2       2 ALA2        0.0000 
     46 CA        -12.7180  -33.8640   -0.8028 C.3       5 GLY6        0.0000 
     47 N         -12.9065  -32.4960   -1.3884 N.2       2 ALA2        0.0000 
     48 CA         -7.8175  -34.1600   -3.0716 C.3       5 GLY6        0.0000 
     49 NZ         -9.0960  -35.7979   -2.6443 N.2       3 LYS4        0.0000 
     50 CA         -9.2845  -34.4298   -3.2299 C.3       5 GLY6        0.0000 
     51 N          -9.4729  -33.0618   -3.8155 N.2       2 ALA2        0.0000 
     52 N          -9.6614  -31.6938   -4.4011 N.2       2 ALA2        0.0000 
     53 NZ        -10.5630  -36.0678   -2.8027 N.2       3 LYS4        0.0000 
     54 NZ        -10.7515  -34.6997   -3.3882 N.2       3 LYS4        0.0000 
     55 DU        -10.9399  -33.3317   -3.9738 H         6 CUB7        0.0000 
     56 NZ        -11.8415  -37.7057   -2.3754 N.2       3 LYS4        0.0000 
     57 N          -7.7562  -33.3447   -5.0290 N.2       2 ALA2        0.0000 
     58 CA         -9.0347  -34.9827   -4.6018 C.3       5 GLY6        0.0000 
     59 N          -9.2232  -33.6146   -5.1874 N.2       2 ALA2        0.0000 
     60 CA         -9.4117  -32.2466   -5.7730 C.3       5 GLY6        0.0000 
     61 CZ         -3.0098  -31.6844    5.0067 C.ar      4 PHE5        0.0000 
     62 O          -4.2883  -33.3223    5.4339 O.2       2 ALA2        0.0000 
     63 N          -4.4768  -31.9543    4.8483 N.2       2 ALA2        0.0000 
     64 CA         -5.9438  -32.2242    4.6900 C.3       5 GLY6        0.0000 
     65 NZ         -8.7849  -35.5355   -5.9736 N.2       3 LYS4        0.0000 
@<TRIPOS>BOND
@<TRIPOS>SUBSTRUCTURE
     1 SER1        2 GROUP   
     2 ALA2       12 GROUP   
     3 LYS4       49 GROUP   
     4 PHE5        1 GROUP   
     5 GLY6        4 GROUP   
     6 CUB7       17 GROUP   
@<TRIPOS>SET

