#    Name: 4dkr_0LJ_2_INTS_M
#    Modification time : Mon Apr  7 22:49:57 2014

@<TRIPOS>MOLECULE
4dkr_0LJ_2_INTS_M
   50     0     6     0     0
SMALL
NO_CHARGES


@<TRIPOS>ATOM
      1 CA         -9.3900  -30.6955   -2.1035 C.3       2 GLC5        0.0000 
      2 CA        -11.2560  -31.2300   -3.2220 C.3       6 GLL5        0.0000 
      3 CA         -7.5240  -30.1610   -0.9850 C.3       4 GLP5        0.0000 
      4 CA         -7.1475  -35.0180    2.0455 C.3       2 GLC5        0.0000 
      5 CA         -6.8910  -33.1230    2.8290 C.3       6 GLL5        0.0000 
      6 CA         -7.4040  -36.9130    1.2620 C.3       4 GLP5        0.0000 
      7 CA         -2.8120  -30.0950    4.4575 C.3       2 GLC5        0.0000 
      8 CA         -3.7360  -32.0480    5.0030 C.3       6 GLL5        0.0000 
      9 CA         -1.8880  -28.1420    3.9120 C.3       4 GLP5        0.0000 
     10 CA         -5.0740  -30.4870    4.9410 C.3       2 GLC5        0.0000 
     11 CA         -6.4120  -28.9260    4.8790 C.3       4 GLP5        0.0000 
     12 CA         -3.5935  -32.7885    6.6350 C.3       2 GLC5        0.0000 
     13 CA         -3.4510  -33.5290    8.2670 C.3       4 GLP5        0.0000 
     14 CA         -1.9630  -31.1905    6.0410 C.3       2 GLC5        0.0000 
     15 CA         -0.1900  -30.3330    7.0790 C.3       4 GLP5        0.0000 
     16 CA         -1.9560  -32.3085    4.0530 C.3       2 GLC5        0.0000 
     17 CA         -0.1760  -32.5690    3.1030 C.3       4 GLP5        0.0000 
     18 CA         -7.1135  -32.3585    6.6505 C.3       2 GLC5        0.0000 
     19 CA         -6.5450  -32.8650    5.1380 C.3       6 GLL5        0.0000 
     20 CA         -7.6820  -31.8520    8.1630 C.3       4 GLP5        0.0000 
     21 CA         -4.9980  -33.1970    6.7025 C.3       2 GLC5        0.0000 
     22 O          -6.1240  -33.5125   -0.7310 O.2       1 ALC1        0.0000 
     23 O          -7.2090  -33.3720    0.3580 O.2       5 ALL1        0.0000 
     24 O          -5.0390  -33.6530   -1.8200 O.2       3 ALP1        0.0000 
     25 O         -11.6490  -32.4650   -0.0880 O.2       1 ALC1        0.0000 
     26 O         -10.7820  -33.4040   -1.1340 O.2       5 ALL1        0.0000 
     27 O         -12.5160  -31.5260    0.9580 O.2       3 ALP1        0.0000 
     28 CA        -12.2260  -35.6860   -0.4245 C.3       2 GLC5        0.0000 
     29 CA        -12.6470  -34.5290   -2.0500 C.3       6 GLL5        0.0000 
     30 CA        -11.8050  -36.8430    1.2010 C.3       4 GLP5        0.0000 
     31 CA        -12.8150  -34.0625    0.0065 C.3       2 GLC5        0.0000 
     32 CA        -12.9830  -33.5960    2.0630 C.3       4 GLP5        0.0000 
     33 O         -11.4895  -38.2695   -3.2895 O.2       1 ALC1        0.0000 
     34 O         -13.0240  -38.1460   -2.5300 O.2       5 ALL1        0.0000 
     35 O          -9.9550  -38.3930   -4.0490 O.2       3 ALP1        0.0000 
     36 CA        -10.3630  -29.9782   -4.6673 C.3       2 GLC5        0.0000 
     37 CA         -9.1220  -29.2580   -5.8250 C.3       4 GLP5        0.0000 
     38 CA         -6.0560  -31.2390    1.1910 C.3       2 GLC5        0.0000 
     39 CA         -5.0780  -32.6870    1.3180 C.3       6 GLL5        0.0000 
     40 CA         -7.4430  -29.9470    0.5310 C.3       4 GLP5        0.0000 
     41 CA         -5.8673  -34.6860    4.9772 C.3       2 GLC5        0.0000 
     42 CA         -5.4260  -36.5350    5.4370 C.3       4 GLP5        0.0000 
     43 CA         -7.0430  -31.5202    1.3542 C.3       2 GLC5        0.0000 
     44 CA         -5.8812  -34.7262    1.0625 C.3       2 GLC5        0.0000 
     45 CA         -6.3950  -33.0640    1.5260 C.3       6 GLL5        0.0000 
     46 CA         -6.0260  -36.5770    0.7030 C.3       4 GLP5        0.0000 
     47 CA         -6.1958  -30.8349    4.6710 C.3       2 GLC5        0.0000 
     48 CA         -4.7560  -32.4360    3.6790 C.3       6 GLL5        0.0000 
     49 CA         -8.1101  -33.7952    4.6547 C.3       2 GLC5        0.0000 
     50 CA         -9.7070  -34.6750    5.0590 C.3       4 GLP5        0.0000 
@<TRIPOS>BOND
@<TRIPOS>SUBSTRUCTURE
     1 ALC1       22 GROUP        1 X    ALC  0     ROOT ALC X 1
     2 GLC5        1 GROUP        1 X    GLC  0     **** GLC X 6
     3 ALP1       24 GROUP        1 Y    ALP  0     ROOT ALP Y 8
     4 GLP5        3 GROUP        1 Y    GLP  0     **** GLP Y 13
     5 ALL1       23 GROUP        1 Z    ALL  0     ROOT ALL Z 15
     6 GLL5        2 GROUP        1 Z    GLL  0     **** GLL Z 20
@<TRIPOS>SET

