#    Name: 4dkr_0LJ_2_ligand
#    Modification time : Mon Apr  7 22:49:57 2014

@<TRIPOS>MOLECULE
4dkr_0LJ_2_ligand
   45    47     1     0     0
SMALL
NO_CHARGES


@<TRIPOS>ATOM
      1 C10        -8.6400  -33.2040    0.2780 C.2       1 0LJ513      0.0000 
      2 C15       -11.4380  -33.7160   -2.3230 C.3       1 0LJ513      0.0000 
      3 C17       -13.7220  -33.9290   -2.8080 C.3       1 0LJ513      0.0000 
      4 C21       -13.9810  -31.4940   -3.7950 C.ar      1 0LJ513      0.0000 
      5 C22       -13.3150  -30.2970   -4.0850 C.ar      1 0LJ513      0.0000 
      6 C24       -11.2560  -31.2300   -3.2220 C.ar      1 0LJ513      0.0000 
      7 C01        -4.2600  -32.3750    2.3840 C.ar      1 0LJ513      0.0000 
      8 C02        -4.7560  -32.4360    3.6790 C.ar      1 0LJ513      0.0000 
      9 C03        -6.0720  -32.8090    3.8970 C.ar      1 0LJ513      0.0000 
     10 C04        -6.8910  -33.1230    2.8290 C.ar      1 0LJ513      0.0000 
     11 C05        -6.3950  -33.0640    1.5260 C.ar      1 0LJ513      0.0000 
     12 C06        -5.0780  -32.6870    1.3180 C.ar      1 0LJ513      0.0000 
     13 CL7        -3.7360  -32.0480    5.0030 Cl        1 0LJ513      0.0000 
     14 F08        -6.5450  -32.8650    5.1380 F         1 0LJ513      0.0000 
     15 N09        -7.2090  -33.3720    0.3580 N.am      1 0LJ513      0.0000 
     16 O11        -9.2950  -32.7910    1.2190 O.2       1 0LJ513      0.0000 
     17 C12        -9.3580  -33.5550   -1.0320 C.2       1 0LJ513      0.0000 
     18 N13       -10.7820  -33.4040   -1.1340 N.am      1 0LJ513      0.0000 
     19 O14        -8.7060  -33.9750   -2.0030 O.2       1 0LJ513      0.0000 
     20 C16       -12.6470  -34.5290   -2.0500 C.3       1 0LJ513      0.0000 
     21 C18       -13.2800  -32.5680   -3.2140 C.ar      1 0LJ513      0.0000 
     22 C19       -11.9280  -32.4380   -2.9320 C.ar      1 0LJ513      0.0000 
     23 N20       -12.4300  -35.8610   -2.5190 N.pl3     1 0LJ513      0.0000 
     24 C23       -11.9520  -30.1670   -3.7970 C.ar      1 0LJ513      0.0000 
     25 C25       -13.2480  -36.9400   -2.0820 C.cat     1 0LJ513      0.0000 
     26 N26       -14.2240  -36.7310   -1.2300 N.pl3     1 0LJ513      0.0000 
     27 N27       -13.0240  -38.1460   -2.5300 N.pl3     1 0LJ513      0.0000 
     28 H         -10.8218  -34.2139   -3.0284 H         1 0LJ513      0.0000 
     29 H         -14.6255  -33.8480   -2.2051 H         1 0LJ513      0.0000 
     30 H         -13.9444  -34.5148   -3.6989 H         1 0LJ513      0.0000 
     31 H         -14.9787  -31.5919   -4.0043 H         1 0LJ513      0.0000 
     32 H         -13.8266  -29.5158   -4.5085 H         1 0LJ513      0.0000 
     33 H         -10.2590  -31.1427   -3.0074 H         1 0LJ513      0.0000 
     34 H          -3.2813  -32.0965    2.2232 H         1 0LJ513      0.0000 
     35 H          -7.8692  -33.4015    2.9886 H         1 0LJ513      0.0000 
     36 H          -4.7071  -32.6399    0.3527 H         1 0LJ513      0.0000 
     37 H          -6.7133  -33.7431   -0.4847 H         1 0LJ513      0.0000 
     38 H         -11.3001  -33.0648   -0.3204 H         1 0LJ513      0.0000 
     39 H         -12.8621  -34.5035   -1.0107 H         1 0LJ513      0.0000 
     40 H         -11.6694  -36.0402   -3.1833 H         1 0LJ513      0.0000 
     41 H         -11.4661  -29.2884   -4.0097 H         1 0LJ513      0.0000 
     42 H         -14.3221  -35.7941   -0.8945 H         1 0LJ513      0.0000 
     43 H         -14.7804  -37.5278   -0.9941 H         1 0LJ513      0.0000 
     44 H         -13.6181  -38.8660   -2.1713 H         1 0LJ513      0.0000 
     45 H         -12.2790  -38.2387   -3.1906 H         1 0LJ513      0.0000 
@<TRIPOS>BOND
     1   15    1 am   
     2   16    1 2    
     3   17    1 1    
     4   18    2 1    
     5   20    2 1    
     6   22    2 1    
     7   28    2 1    
     8   20    3 1    
     9   21    3 1    
    10   29    3 1    
    11   30    3 1    
    12    5    4 ar   
    13   21    4 ar   
    14   31    4 1    
    15   24    5 ar   
    16   32    5 1    
    17   22    6 ar   
    18   24    6 ar   
    19   33    6 1    
    20    8    7 ar   
    21   12    7 ar   
    22   34    7 1    
    23    9    8 ar   
    24   13    8 1    
    25   10    9 ar   
    26   14    9 1    
    27   11   10 ar   
    28   35   10 1    
    29   12   11 ar   
    30   15   11 1    
    31   36   12 1    
    32   37   15 1    
    33   18   17 am   
    34   19   17 2    
    35   38   18 1    
    36   23   20 1    
    37   39   20 1    
    38   22   21 ar   
    39   25   23 ar   
    40   40   23 1    
    41   41   24 1    
    42   26   25 ar   
    43   27   25 ar   
    44   42   26 1    
    45   43   26 1    
    46   44   27 1    
    47   45   27 1    
@<TRIPOS>SUBSTRUCTURE
     1 0LJ513      1 GROUP   
@<TRIPOS>SET

