#    Name: 4ksh_HTT_1_INTS_M
#    Modification time : Tue Mar 25 08:52:18 2014

@<TRIPOS>MOLECULE
4ksh_HTT_1_INTS_M
   72     0    12     0     0
SMALL
NO_CHARGES


@<TRIPOS>ATOM
      1 CA         -9.4195   -2.5010   -9.6030 C.3       4 GLC5        0.0000 
      2 CA        -10.2390   -2.0660  -11.6370 C.3      12 GLL5        0.0000 
      3 CA         -8.6000   -2.9360   -7.5690 C.3       8 GLP5        0.0000 
      4 CA         -8.7310   -0.7450  -10.7540 C.3       4 GLC5        0.0000 
      5 CA         -7.2230    0.5760   -9.8710 C.3       8 GLP5        0.0000 
      6 CA        -16.0605   -1.8715   -9.7535 C.3       4 GLC5        0.0000 
      7 CA        -14.4640   -3.2690  -10.1050 C.3      12 GLL5        0.0000 
      8 CA        -17.6570   -0.4740   -9.4020 C.3       8 GLP5        0.0000 
      9 O         -14.6895   -4.5355  -12.7175 O.2       1 ALC1        0.0000 
     10 O         -13.3640   -4.3290  -12.6470 O.2       9 ALL1        0.0000 
     11 O         -16.0150   -4.7420  -12.7880 O.2       5 ALP1        0.0000 
     12 CA        -11.3595   -2.2100  -13.7000 C.3       4 GLC5        0.0000 
     13 CA        -11.1240   -4.2610  -13.3750 C.3      12 GLL5        0.0000 
     14 CA        -11.5950   -0.1590  -14.0250 C.3       8 GLP5        0.0000 
     15 CA         -7.4895   -6.1460  -13.6390 C.3       4 GLC5        0.0000 
     16 CA         -7.6780   -4.9160  -15.1400 C.3      12 GLL5        0.0000 
     17 CA         -7.3010   -7.3760  -12.1380 C.3       8 GLP5        0.0000 
     18 CA         -7.4460   -7.1460  -15.0695 C.3       4 GLC5        0.0000 
     19 CA         -7.2140   -9.3760  -14.9990 C.3       8 GLP5        0.0000 
     20 O          -8.8530   -0.8120  -15.5155 O.2       1 ALC1        0.0000 
     21 O          -8.3570   -1.8990  -16.2880 O.2       9 ALL1        0.0000 
     22 O          -9.3490    0.2750  -14.7430 O.2       5 ALP1        0.0000 
     23 CA        -10.0060   -1.5105  -14.0175 C.3       4 GLC5        0.0000 
     24 CA         -8.4170   -2.8620  -14.0100 C.3      12 GLL5        0.0000 
     25 CA         -7.1285   -2.7755  -12.4520 C.3       4 GLC5        0.0000 
     26 CA         -5.8400   -2.6890  -10.8940 C.3       8 GLP5        0.0000 
     27 CA        -10.5775   -6.5525  -13.2745 C.3       4 GLC5        0.0000 
     28 CA        -11.5300   -6.4000  -15.0240 C.3      12 GLL5        0.0000 
     29 CA         -9.6250   -6.7050  -11.5250 C.3       8 GLP5        0.0000 
     30 CA        -13.0755   -5.9565  -11.9090 C.3       4 GLC5        0.0000 
     31 CA        -12.4520   -4.9150  -13.4550 C.3      12 GLL5        0.0000 
     32 CA        -13.6990   -6.9980  -10.3630 C.3       8 GLP5        0.0000 
     33 CA        -12.2235   -9.1980  -14.4355 C.3       4 GLC5        0.0000 
     34 CA        -11.8450   -7.7780  -15.9430 C.3      12 GLL5        0.0000 
     35 CA        -12.6020  -10.6180  -12.9280 C.3       8 GLP5        0.0000 
     36 NZ         -9.8245  -12.8385  -16.4235 N.4       3 LYC4        0.0000 
     37 NZ         -9.6130  -12.2220  -17.7470 N.4      11 LYL4        0.0000 
     38 NZ        -10.0360  -13.4550  -15.1000 N.4       7 LYP4        0.0000 
     39 N          -9.8245  -12.8385  -16.4235 N.am      2 SEC2        0.0000 
     40 N          -9.6130  -12.2220  -17.7470 N.am     10 SEL2        0.0000 
     41 N         -10.0360  -13.4550  -15.1000 N.am      6 SEP2        0.0000 
     42 CA        -10.9620  -10.7435  -18.8700 C.3       4 GLC5        0.0000 
     43 CA         -9.2520   -9.8090  -18.1020 C.3      12 GLL5        0.0000 
     44 CA        -12.6720  -11.6780  -19.6380 C.3       8 GLP5        0.0000 
     45 CA        -11.2145   -1.4032  -13.0168 C.3       4 GLC5        0.0000 
     46 CA        -11.4290   -3.2290  -12.3800 C.3      12 GLL5        0.0000 
     47 CA        -10.0285   -4.2113  -11.2023 C.3       4 GLC5        0.0000 
     48 CA         -9.2230   -5.7750  -10.3960 C.3       8 GLP5        0.0000 
     49 CA        -12.3835   -1.5115  -12.7330 C.3       4 GLC5        0.0000 
     50 CA        -12.8280   -3.3020  -11.9460 C.3      12 GLL5        0.0000 
     51 CA        -13.9080   -1.0588   -9.7022 C.3       4 GLC5        0.0000 
     52 CA        -13.8260    0.7300   -8.8840 C.3       8 GLP5        0.0000 
     53 CA        -13.1225   -2.8967   -8.8323 C.3       4 GLC5        0.0000 
     54 CA        -13.5160   -2.4260  -10.9360 C.3      12 GLL5        0.0000 
     55 CA        -12.2550   -2.9460   -7.1440 C.3       8 GLP5        0.0000 
     56 CA        -13.2410   -4.7698  -10.0640 C.3       4 GLC5        0.0000 
     57 CA        -12.6640   -6.4730   -9.3550 C.3       8 GLP5        0.0000 
     58 CA         -5.9493   -4.3625  -13.8093 C.3       4 GLC5        0.0000 
     59 CA         -4.6240   -4.4050  -12.2190 C.3       8 GLP5        0.0000 
     60 CA        -13.3078   -6.8275  -16.5418 C.3       4 GLC5        0.0000 
     61 CA        -14.9280   -6.5660  -17.6000 C.3       8 GLP5        0.0000 
     62 CA        -10.5651   -5.7140  -12.5735 C.3       4 GLC5        0.0000 
     63 CA        -10.2163   -8.4103  -14.6500 C.3       4 GLC5        0.0000 
     64 CA         -9.2240   -8.8580  -12.8240 C.3       8 GLP5        0.0000 
     65 CA         -6.9257  -10.5670  -17.7110 C.3       4 GLC5        0.0000 
     66 CA         -7.1820  -10.3880  -19.8690 C.3      12 GLL5        0.0000 
     67 CA         -6.3130  -10.2340  -15.8680 C.3       8 GLP5        0.0000 
     68 CA         -7.4681   -9.7880  -17.2615 C.3       4 GLC5        0.0000 
     69 CA        -12.0109  -10.2116  -17.0330 C.3       4 GLC5        0.0000 
     70 CA        -10.2810   -9.4900  -17.2240 C.3      12 GLL5        0.0000 
     71 CA        -13.2770  -11.6970  -17.2160 C.3       8 GLP5        0.0000 
     72 CA         -8.7295   -8.9721  -16.1395 C.3       4 GLC5        0.0000 
@<TRIPOS>BOND
@<TRIPOS>SUBSTRUCTURE
     1 ALC1        9 GROUP        1 X    ALC  0     ROOT ALC X 1
     2 SEC2       39 GROUP        1 X    SEC  0     **** SEC X 2
     3 LYC4       36 GROUP        1 X    LYC  0     **** LYC X 4
     4 GLC5        1 GROUP        1 X    GLC  0     **** GLC X 6
     5 ALP1       11 GROUP        1 Y    ALP  0     ROOT ALP Y 8
     6 SEP2       41 GROUP        1 Y    SEP  0     **** SEP Y 9
     7 LYP4       38 GROUP        1 Y    LYP  0     **** LYP Y 11
     8 GLP5        3 GROUP        1 Y    GLP  0     **** GLP Y 13
     9 ALL1       10 GROUP        1 Z    ALL  0     ROOT ALL Z 15
    10 SEL2       40 GROUP        1 Z    SEL  0     **** SEL Z 16
    11 LYL4       37 GROUP        1 Z    LYL  0     **** LYL Z 18
    12 GLL5        2 GROUP        1 Z    GLL  0     **** GLL Z 20
@<TRIPOS>SET

