#    Name: 4ksh_HTT_1_ligand
#    Modification time : Tue Mar 25 08:52:18 2014

@<TRIPOS>MOLECULE
4ksh_HTT_1_ligand
   52    56     1     0     0
SMALL
NO_CHARGES


@<TRIPOS>ATOM
      1 CL8       -10.2390   -2.0660  -11.6370 Cl        1 HTT301      0.0000 
      2 C4        -11.4290   -3.2290  -12.3800 C.2       1 HTT301      0.0000 
      3 C5        -12.8280   -3.3020  -11.9460 C.2       1 HTT301      0.0000 
      4 C6        -13.5160   -2.4260  -10.9360 C.3       1 HTT301      0.0000 
      5 C7        -14.4640   -3.2690  -10.1050 C.3       1 HTT301      0.0000 
      6 N1        -13.3640   -4.3290  -12.6470 N.pl3     1 HTT301      0.0000 
      7 C3        -11.1240   -4.2610  -13.3750 C.ar      1 HTT301      0.0000 
      8 C9         -9.9930   -4.8010  -14.2030 C.ar      1 HTT301      0.0000 
      9 N13        -8.7150   -4.2530  -14.3440 N.3       1 HTT301      0.0000 
     10 C17        -7.6780   -4.9160  -15.1400 C.3       1 HTT301      0.0000 
     11 C16        -6.8710   -3.7240  -15.6590 C.3       1 HTT301      0.0000 
     12 C15        -7.5450   -2.4340  -15.1960 C.3       1 HTT301      0.0000 
     13 N18        -8.3570   -1.8990  -16.2880 N.4       1 HTT301      0.0000 
     14 C14        -8.4170   -2.8620  -14.0100 C.3       1 HTT301      0.0000 
     15 N10       -10.2920   -5.8500  -14.9960 N.ar      1 HTT301      0.0000 
     16 C11       -11.5300   -6.4000  -15.0240 C.ar      1 HTT301      0.0000 
     17 N12       -12.5680   -5.9470  -14.3030 N.ar      1 HTT301      0.0000 
     18 C2        -12.4520   -4.9150  -13.4550 C.ar      1 HTT301      0.0000 
     19 S19       -11.8450   -7.7780  -15.9430 S.3       1 HTT301      0.0000 
     20 C20       -10.5720   -8.1470  -17.0090 C.ar      1 HTT301      0.0000 
     21 C25        -9.8460   -7.1460  -17.6630 C.ar      1 HTT301      0.0000 
     22 N24        -8.8450   -7.4190  -18.5180 N.ar      1 HTT301      0.0000 
     23 C23        -8.5080   -8.7090  -18.7680 C.ar      1 HTT301      0.0000 
     24 C26        -7.4810   -9.0410  -19.6480 C.3       1 HTT301      0.0000 
     25 C27        -7.1820  -10.3880  -19.8690 C.2       1 HTT301      0.0000 
     26 C28        -7.8950  -11.4120  -19.2390 C.2       1 HTT301      0.0000 
     27 N29        -8.8960  -11.1510  -18.3770 N.pl3     1 HTT301      0.0000 
     28 O30        -9.6130  -12.2220  -17.7470 O.co2     1 HTT301      0.0000 
     29 C22        -9.2520   -9.8090  -18.1020 C.ar      1 HTT301      0.0000 
     30 C21       -10.2810   -9.4900  -17.2240 C.ar      1 HTT301      0.0000 
     31 H         -14.0790   -1.6490  -11.4451 H         1 HTT301      0.0000 
     32 H         -12.7787   -1.9666  -10.2839 H         1 HTT301      0.0000 
     33 H         -14.3052   -4.6141  -12.5760 H         1 HTT301      0.0000 
     34 H          -8.0932   -5.4352  -15.9657 H         1 HTT301      0.0000 
     35 H          -7.0496   -5.5193  -14.5361 H         1 HTT301      0.0000 
     36 H          -6.8462   -3.7505  -16.7385 H         1 HTT301      0.0000 
     37 H          -5.8679   -3.7696  -15.2611 H         1 HTT301      0.0000 
     38 H          -6.8076   -1.7650  -14.8623 H         1 HTT301      0.0000 
     39 H          -7.8444   -2.7860  -13.1209 H         1 HTT301      0.0000 
     40 H          -9.2932   -2.2650  -13.9981 H         1 HTT301      0.0000 
     41 H         -10.1114   -6.1471  -17.4625 H         1 HTT301      0.0000 
     42 H          -6.5173   -8.4931  -19.3257 H         1 HTT301      0.0000 
     43 H          -7.6770   -8.5308  -20.6649 H         1 HTT301      0.0000 
     44 H          -6.4103  -10.6348  -20.5179 H         1 HTT301      0.0000 
     45 H          -7.6271  -12.3998  -19.4576 H         1 HTT301      0.0000 
     46 H         -10.8078  -10.2193  -16.7507 H         1 HTT301      0.0000 
     47 H         -13.9820   -3.9935   -9.6124 H         1 HTT301      0.0000 
     48 H         -14.9466   -2.7210   -9.4218 H         1 HTT301      0.0000 
     49 H         -15.1599   -3.7118  -10.6703 H         1 HTT301      0.0000 
     50 H          -7.8049   -1.6971  -17.0970 H         1 HTT301      0.0000 
     51 H          -9.0682   -2.5422  -16.5716 H         1 HTT301      0.0000 
     52 H          -8.8167   -1.0500  -16.0275 H         1 HTT301      0.0000 
@<TRIPOS>BOND
     1    2    1 1    
     2    3    2 2    
     3    7    2 1    
     4    4    3 1    
     5    6    3 1    
     6    5    4 1    
     7   31    4 1    
     8   32    4 1    
     9   47    5 1    
    10   48    5 1    
    11   49    5 1    
    12   18    6 1    
    13   33    6 1    
    14    8    7 ar   
    15   18    7 ar   
    16    9    8 1    
    17   15    8 ar   
    18   10    9 1    
    19   14    9 1    
    20   11   10 1    
    21   34   10 1    
    22   35   10 1    
    23   12   11 1    
    24   36   11 1    
    25   37   11 1    
    26   13   12 1    
    27   14   12 1    
    28   38   12 1    
    29   50   13 1    
    30   51   13 1    
    31   52   13 1    
    32   39   14 1    
    33   40   14 1    
    34   16   15 ar   
    35   17   16 ar   
    36   19   16 1    
    37   18   17 ar   
    38   20   19 1    
    39   21   20 ar   
    40   30   20 ar   
    41   22   21 ar   
    42   41   21 1    
    43   23   22 ar   
    44   24   23 1    
    45   29   23 ar   
    46   25   24 1    
    47   42   24 1    
    48   43   24 1    
    49   26   25 2    
    50   44   25 1    
    51   27   26 1    
    52   45   26 1    
    53   28   27 1    
    54   29   27 1    
    55   30   29 ar   
    56   46   30 1    
@<TRIPOS>SUBSTRUCTURE
     1 HTT301      1 GROUP   
@<TRIPOS>SET

