#    Name: 1ZWL_1_CAVITY_N1_6.mol2
#    Modification time : Mon Mar 10 23:38:01 2014

@<TRIPOS>MOLECULE
1ZWL_1_CAVITY_N1_6.mol2
   73     0     4     0     0
SMALL
NO_CHARGES


@<TRIPOS>ATOM
      1 CA          5.2990   22.3310   26.5459 C.3       3 GLY6        0.0000 
      2 CA          4.2077   20.5581   24.3858 C.3       3 GLY6        0.0000 
      3 DU          3.6621   19.6716   23.3057 H         4 CUB7        0.0000 
      4 CA          2.8756   17.7027   23.2358 C.3       3 GLY6        0.0000 
      5 DU          3.1165   18.7851   22.2257 H         4 CUB7        0.0000 
      6 O           3.3573   19.8676   21.2156 O.2       2 ALA2        0.0000 
      7 CA          2.3300   16.8162   22.1558 C.3       3 GLY6        0.0000 
      8 O           2.5708   17.8987   21.1457 O.2       2 ALA2        0.0000 
      9 N           1.7844   15.9298   21.0757 N.2       2 ALA2        0.0000 
     10 CA          3.9226   22.8718   26.7973 C.3       3 GLY6        0.0000 
     11 N           4.1635   23.9543   25.7872 N.2       2 ALA2        0.0000 
     12 CA          3.3770   21.9854   25.7172 C.3       3 GLY6        0.0000 
     13 DU          3.6178   23.0678   24.7071 H         4 CUB7        0.0000 
     14 CA          2.8314   21.0989   24.6372 C.3       3 GLY6        0.0000 
     15 DU          3.0722   22.1813   23.6271 H         4 CUB7        0.0000 
     16 CA          2.0449   19.1300   24.5673 C.3       3 GLY6        0.0000 
     17 DU          2.2857   20.2124   23.5571 H         4 CUB7        0.0000 
     18 DU          2.5266   21.2949   22.5470 H         4 CUB7        0.0000 
     19 DU          2.7674   22.3773   21.5369 H         4 CUB7        0.0000 
     20 CA          1.4993   18.2435   23.4872 C.3       3 GLY6        0.0000 
     21 DU          1.7401   19.3260   22.4771 H         4 CUB7        0.0000 
     22 O           1.9810   20.4084   21.4670 O.2       2 ALA2        0.0000 
     23 O           2.2218   21.4909   20.4569 O.2       2 ALA2        0.0000 
     24 CA          0.9536   17.3571   22.4072 C.3       3 GLY6        0.0000 
     25 O           1.1945   18.4395   21.3971 O.2       2 ALA2        0.0000 
     26 CA          0.4080   16.4706   21.3271 C.3       3 GLY6        0.0000 
     27 CA          0.6489   17.5531   20.3170 C.3       3 GLY6        0.0000 
     28 N          -0.1376   15.5842   20.2471 N.2       2 ALA2        0.0000 
     29 N           2.5463   23.4127   27.0487 N.2       2 ALA2        0.0000 
     30 O           2.0007   22.5262   25.9686 O.2       2 ALA2        0.0000 
     31 N           2.2415   23.6086   24.9585 N.2       2 ALA2        0.0000 
     32 CA          2.4824   24.6911   23.9484 C.3       3 GLY6        0.0000 
     33 O           1.2142   20.5573   25.8987 O.2       2 ALA2        0.0000 
     34 O           1.4550   21.6397   24.8886 O.2       2 ALA2        0.0000 
     35 DU          1.6959   22.7222   23.8785 H         4 CUB7        0.0000 
     36 CA          1.9367   23.8046   22.8684 C.3       3 GLY6        0.0000 
     37 CA          0.6686   19.6708   24.8187 C.3       3 GLY6        0.0000 
     38 DU          0.9094   20.7533   23.8085 H         4 CUB7        0.0000 
     39 DU          1.1503   21.8357   22.7984 H         4 CUB7        0.0000 
     40 O           1.3911   22.9182   21.7883 O.2       2 ALA2        0.0000 
     41 CA          0.1229   18.7844   23.7386 C.3       3 GLY6        0.0000 
     42 DU          0.3638   19.8668   22.7285 H         4 CUB7        0.0000 
     43 O           0.6046   20.9493   21.7184 O.2       2 ALA2        0.0000 
     44 O           0.8455   22.0317   20.7083 O.2       2 ALA2        0.0000 
     45 O           1.0863   23.1141   19.6982 O.2       2 ALA2        0.0000 
     46 N          -0.4227   17.8979   22.6586 N.2       2 ALA2        0.0000 
     47 CA         -0.1818   18.9804   21.6485 C.3       3 GLY6        0.0000 
     48 N          -0.9683   17.0115   21.5785 N.2       2 ALA2        0.0000 
     49 N          -1.5139   16.1250   20.4985 N.2       2 ALA2        0.0000 
     50 N           0.6243   23.0670   26.2200 N.2       2 ALA2        0.0000 
     51 N           0.8652   24.1495   25.2099 N.2       2 ALA2        0.0000 
     52 O          -0.1621   21.0981   26.1501 O.2       2 ALA2        0.0000 
     53 N           0.0787   22.1806   25.1400 N.2       2 ALA2        0.0000 
     54 CA          0.3196   23.2630   24.1299 C.3       3 GLY6        0.0000 
     55 CA          0.5604   24.3455   23.1198 C.3       3 GLY6        0.0000 
     56 OG         -0.7078   20.2117   25.0701 O.2       1 SER1        0.0000 
     57 DU         -0.4669   21.2941   24.0599 H         4 CUB7        0.0000 
     58 CA         -0.2261   22.3766   23.0498 C.3       3 GLY6        0.0000 
     59 CA          0.0148   23.4590   22.0397 C.3       3 GLY6        0.0000 
     60 CA         -1.2534   19.3252   23.9900 C.3       3 GLY6        0.0000 
     61 DU         -1.0125   20.4077   22.9799 H         4 CUB7        0.0000 
     62 O          -0.7717   21.4901   21.9698 O.2       2 ALA2        0.0000 
     63 CA         -0.5308   22.5725   20.9597 C.3       3 GLY6        0.0000 
     64 CA         -1.7990   18.4388   22.9100 C.3       3 GLY6        0.0000 
     65 CA         -1.5582   19.5212   21.8999 C.3       3 GLY6        0.0000 
     66 CA         -1.3173   20.6036   20.8898 C.3       3 GLY6        0.0000 
     67 N          -2.3446   17.5523   21.8299 N.2       2 ALA2        0.0000 
     68 N          -1.2976   22.7214   25.3914 N.2       2 ALA2        0.0000 
     69 OG         -1.8432   21.8350   24.3113 O.2       1 SER1        0.0000 
     70 CA         -2.3889   20.9485   23.2313 C.3       3 GLY6        0.0000 
     71 CA         -2.1480   22.0310   22.2212 C.3       3 GLY6        0.0000 
     72 O          -1.9072   23.1134   21.2111 O.2       2 ALA2        0.0000 
     73 O          -2.6936   21.1445   21.1412 O.2       2 ALA2        0.0000 
@<TRIPOS>BOND
@<TRIPOS>SUBSTRUCTURE
     1 SER1       56 GROUP   
     2 ALA2        6 GROUP   
     3 GLY6        1 GROUP   
     4 CUB7        3 GROUP   
@<TRIPOS>SET

