#    Name: 1zwl_FMN_1_INTS_M
#    Modification time : Mon Mar 24 17:53:22 2014

@<TRIPOS>MOLECULE
1zwl_FMN_1_INTS_M
   64     0     9     0     0
SMALL
NO_CHARGES


@<TRIPOS>ATOM
      1 N           2.7950   21.7065   28.2930 N.am      2 SEC2        0.0000 
      2 N           3.7380   22.9540   27.9890 N.am      8 SEL2        0.0000 
      3 N           1.8520   20.4590   28.5970 N.am      5 SEP2        0.0000 
      4 N           2.7390   21.3925   29.3785 N.am      2 SEC2        0.0000 
      5 N           3.6260   22.3260   30.1600 N.am      8 SEL2        0.0000 
      6 N           3.4965   20.8485   30.4565 N.am      2 SEC2        0.0000 
      7 N           3.3670   19.3710   30.7530 N.am      5 SEP2        0.0000 
      8 N           4.5140   21.4410   31.1650 N.am      2 SEC2        0.0000 
      9 N           5.4020   20.5560   32.1700 N.am      5 SEP2        0.0000 
     10 O           3.9830   24.8675   31.1270 O.2       1 ALC1        0.0000 
     11 O           4.5220   24.3970   29.7170 O.2       7 ALL1        0.0000 
     12 O           3.4440   25.3380   32.5370 O.2       4 ALP1        0.0000 
     13 N           5.0785   27.6300   28.2055 N.am      2 SEC2        0.0000 
     14 N           5.5510   26.3390   29.1280 N.am      8 SEL2        0.0000 
     15 N           4.6060   28.9210   27.2830 N.am      5 SEP2        0.0000 
     16 N           4.8160   27.4580   26.8575 N.am      2 SEC2        0.0000 
     17 N           5.0260   25.9950   26.4320 N.am      8 SEL2        0.0000 
     18 CA          7.0205   28.0820   23.0470 C.3       3 GLC5        0.0000 
     19 CA          5.8440   27.1120   21.8320 C.3       9 GLL5        0.0000 
     20 CA          8.1970   29.0520   24.2620 C.3       6 GLP5        0.0000 
     21 CA         -0.1660   23.9540   24.5760 C.3       3 GLC5        0.0000 
     22 CA          1.5880   22.6980   25.0800 C.3       9 GLL5        0.0000 
     23 CA         -1.9200   25.2100   24.0720 C.3       6 GLP5        0.0000 
     24 O           1.3520   24.6690   26.4575 O.2       1 ALC1        0.0000 
     25 O           0.9800   23.3150   26.1910 O.2       7 ALL1        0.0000 
     26 O           1.7240   26.0230   26.7240 O.2       4 ALP1        0.0000 
     27 CA         -2.4385   21.6865   25.7165 C.3       3 GLC5        0.0000 
     28 CA         -0.6670   21.6200   24.6060 C.3       9 GLL5        0.0000 
     29 CA         -4.2100   21.7530   26.8270 C.3       6 GLP5        0.0000 
     30 N          -2.3725   20.6565   26.0605 N.am      2 SEC2        0.0000 
     31 N          -1.2650   20.7470   25.5320 N.am      8 SEL2        0.0000 
     32 N          -3.4800   20.5660   26.5890 N.am      5 SEP2        0.0000 
     33 CA         -2.9725   20.1025   23.5455 C.3       3 GLC5        0.0000 
     34 CA         -1.2580   21.3400   23.2370 C.3       9 GLL5        0.0000 
     35 CA         -4.6870   18.8650   23.8540 C.3       6 GLP5        0.0000 
     36 N          -2.9760   20.7990   19.7800 N.am      2 SEC2        0.0000 
     37 N          -3.2700   20.4890   21.3240 N.am      8 SEL2        0.0000 
     38 N          -2.6820   21.1090   18.2360 N.am      5 SEP2        0.0000 
     39 N          -4.4985   19.7670   21.4685 N.am      2 SEC2        0.0000 
     40 N          -5.7270   19.0450   21.6130 N.am      5 SEP2        0.0000 
     41 N          -5.4740   22.3850   21.0080 N.am      2 SEC2        0.0000 
     42 N          -4.7020   22.3990   21.9500 N.am      8 SEL2        0.0000 
     43 N          -6.2460   22.3710   20.0660 N.am      5 SEP2        0.0000 
     44 N          -5.7435   21.7885   22.6455 N.am      2 SEC2        0.0000 
     45 N          -6.7850   21.1780   23.3410 N.am      5 SEP2        0.0000 
     46 N          -5.2375   23.0470   23.1335 N.am      2 SEC2        0.0000 
     47 N          -5.7730   23.6950   24.3170 N.am      5 SEP2        0.0000 
     48 N          -3.1605   23.2995   19.6600 N.am      2 SEC2        0.0000 
     49 N          -2.6190   22.7840   20.6360 N.am      8 SEL2        0.0000 
     50 N          -3.7020   23.8150   18.6840 N.am      5 SEP2        0.0000 
     51 N          -2.6505   21.9465   19.4360 N.am      2 SEC2        0.0000 
     52 CA          3.8428   27.3253   25.2260 C.3       3 GLC5        0.0000 
     53 CA          4.7960   25.7020   25.0990 C.3       9 GLL5        0.0000 
     54 CA          2.7120   28.4890   25.8420 C.3       6 GLP5        0.0000 
     55 CA          3.6578   27.0550   22.4582 C.3       3 GLC5        0.0000 
     56 CA          4.9430   26.3580   22.7690 C.3       9 GLL5        0.0000 
     57 CA          1.9220   27.3750   22.6160 C.3       6 GLP5        0.0000 
     58 CA          3.0622   26.1657   22.1433 C.3       3 GLC5        0.0000 
     59 CA          4.3430   25.1410   22.3880 C.3       9 GLL5        0.0000 
     60 CA          3.0095   25.8687   23.3355 C.3       3 GLC5        0.0000 
     61 CA          3.9880   24.2290   23.3780 C.3       9 GLL5        0.0000 
     62 CA          3.1088   21.1200   26.3470 C.3       3 GLC5        0.0000 
     63 CA          3.9050   19.7110   27.4490 C.3       6 GLP5        0.0000 
     64 CA         -1.4412   23.3450   23.9967 C.3       3 GLC5        0.0000 
@<TRIPOS>BOND
@<TRIPOS>SUBSTRUCTURE
     1 ALC1       10 GROUP        1 X    ALC  0     ROOT ALC X 1
     2 SEC2        1 GROUP        1 X    SEC  0     **** SEC X 2
     3 GLC5       18 GROUP        1 X    GLC  0     **** GLC X 6
     4 ALP1       12 GROUP        1 Y    ALP  0     ROOT ALP Y 8
     5 SEP2        3 GROUP        1 Y    SEP  0     **** SEP Y 9
     6 GLP5       20 GROUP        1 Y    GLP  0     **** GLP Y 13
     7 ALL1       11 GROUP        1 Z    ALL  0     ROOT ALL Z 15
     8 SEL2        2 GROUP        1 Z    SEL  0     **** SEL Z 16
     9 GLL5       19 GROUP        1 Z    GLL  0     **** GLL Z 20
@<TRIPOS>SET

