#    Name: 1zwl_FMN_1_ligand
#    Modification time : Mon Mar 24 17:53:22 2014

@<TRIPOS>MOLECULE
1zwl_FMN_1_ligand
   50    52     1     0     0
SMALL
NO_CHARGES


@<TRIPOS>ATOM
      1 N1          3.7380   22.9540   27.9890 N.2       1 FMN199      0.0000 
      2 C2          3.9490   23.1900   29.3320 C.2       1 FMN199      0.0000 
      3 O2          3.6260   22.3260   30.1600 O.2       1 FMN199      0.0000 
      4 N3          4.5220   24.3970   29.7170 N.am      1 FMN199      0.0000 
      5 C4          4.8880   25.3540   28.7740 C.2       1 FMN199      0.0000 
      6 O4          5.5510   26.3390   29.1280 O.2       1 FMN199      0.0000 
      7 C4A         4.6670   25.0860   27.4150 C.2       1 FMN199      0.0000 
      8 N5          5.0260   25.9950   26.4320 N.2       1 FMN199      0.0000 
      9 C5A         4.7960   25.7020   25.0990 C.ar      1 FMN199      0.0000 
     10 C6          5.1510   26.6210   24.1210 C.ar      1 FMN199      0.0000 
     11 C7          4.9430   26.3580   22.7690 C.ar      1 FMN199      0.0000 
     12 C7M         5.8440   27.1120   21.8320 C.3       1 FMN199      0.0000 
     13 C8          4.3430   25.1410   22.3880 C.ar      1 FMN199      0.0000 
     14 C8M         4.0620   24.7720   20.9530 C.3       1 FMN199      0.0000 
     15 C9          3.9880   24.2290   23.3780 C.ar      1 FMN199      0.0000 
     16 C9A         4.2060   24.4960   24.7320 C.ar      1 FMN199      0.0000 
     17 N10         3.8500   23.5830   25.7210 N.pl3     1 FMN199      0.0000 
     18 C10         4.0910   23.8750   27.0410 C.2       1 FMN199      0.0000 
     19 C1'         3.0370   22.3600   25.4100 C.3       1 FMN199      0.0000 
     20 C2'         1.5880   22.6980   25.0800 C.3       1 FMN199      0.0000 
     21 O2'         0.9800   23.3150   26.1910 O.3       1 FMN199      0.0000 
     22 C3'         0.8520   21.4330   24.6230 C.3       1 FMN199      0.0000 
     23 O3'         1.2920   21.1160   23.3130 O.3       1 FMN199      0.0000 
     24 C4'        -0.6670   21.6200   24.6060 C.3       1 FMN199      0.0000 
     25 O4'        -1.2650   20.7470   25.5320 O.3       1 FMN199      0.0000 
     26 C5'        -1.2580   21.3400   23.2370 C.3       1 FMN199      0.0000 
     27 O5'        -2.4450   22.0770   23.1020 O.3       1 FMN199      0.0000 
     28 P          -3.2770   21.9600   21.7290 P.3       1 FMN199      0.0000 
     29 O1P        -3.2700   20.4890   21.3240 O.co2     1 FMN199      0.0000 
     30 O2P        -4.7020   22.3990   21.9500 O.co2     1 FMN199      0.0000 
     31 O3P        -2.6190   22.7840   20.6360 O.co2     1 FMN199      0.0000 
     32 H           4.6798   24.5885   30.7229 H         1 FMN199      0.0000 
     33 H           5.5805   27.5235   24.4009 H         1 FMN199      0.0000 
     34 H           3.5504   23.3276   23.1058 H         1 FMN199      0.0000 
     35 H           3.0535   21.6764   26.2696 H         1 FMN199      0.0000 
     36 H           3.4793   21.8291   24.5563 H         1 FMN199      0.0000 
     37 H           1.6160   23.3822   24.2188 H         1 FMN199      0.0000 
     38 H           1.0906   20.6378   25.3125 H         1 FMN199      0.0000 
     39 H          -0.8792   22.6552   24.8570 H         1 FMN199      0.0000 
     40 H          -1.4276   20.2601   23.1613 H         1 FMN199      0.0000 
     41 H          -0.5085   21.6168   22.4871 H         1 FMN199      0.0000 
     42 H           6.8085   26.9072   21.9989 H         1 FMN199      0.0000 
     43 H           5.6577   26.8865   20.8757 H         1 FMN199      0.0000 
     44 H           5.7339   28.1014   21.9266 H         1 FMN199      0.0000 
     45 H           4.8984   24.7467   20.4054 H         1 FMN199      0.0000 
     46 H           3.6352   23.8708   20.8780 H         1 FMN199      0.0000 
     47 H           3.4448   25.4259   20.5154 H         1 FMN199      0.0000 
     48 H           1.3898   24.2260   26.2374 H         1 FMN199      0.0000 
     49 H           2.2571   21.3772   23.2940 H         1 FMN199      0.0000 
     50 H          -1.6872   20.0306   24.9767 H         1 FMN199      0.0000 
@<TRIPOS>BOND
     1    2    1 1    
     2   18    1 2    
     3    3    2 2    
     4    4    2 am   
     5    5    4 am   
     6   32    4 1    
     7    6    5 2    
     8    7    5 1    
     9    8    7 2    
    10   18    7 1    
    11    9    8 1    
    12   10    9 ar   
    13   16    9 ar   
    14   11   10 ar   
    15   33   10 1    
    16   12   11 1    
    17   13   11 ar   
    18   42   12 1    
    19   43   12 1    
    20   44   12 1    
    21   14   13 1    
    22   15   13 ar   
    23   45   14 1    
    24   46   14 1    
    25   47   14 1    
    26   16   15 ar   
    27   34   15 1    
    28   17   16 1    
    29   18   17 1    
    30   19   17 1    
    31   20   19 1    
    32   35   19 1    
    33   36   19 1    
    34   21   20 1    
    35   22   20 1    
    36   37   20 1    
    37   48   21 1    
    38   23   22 1    
    39   24   22 1    
    40   38   22 1    
    41   49   23 1    
    42   25   24 1    
    43   26   24 1    
    44   39   24 1    
    45   50   25 1    
    46   27   26 1    
    47   40   26 1    
    48   41   26 1    
    49   28   27 1    
    50   29   28 ar   
    51   30   28 ar   
    52   31   28 ar   
@<TRIPOS>SUBSTRUCTURE
     1 FMN199      1 GROUP   
@<TRIPOS>SET

