#    Name: 3s3r_0IW_1_INTS_M
#    Modification time : Mon Apr  7 22:01:40 2014

@<TRIPOS>MOLECULE
3s3r_0IW_1_INTS_M
   95     0     9     0     0
SMALL
NO_CHARGES


@<TRIPOS>ATOM
      1 CA         -1.5180  -14.3455  -21.3800 C.3       3 GLC5        0.0000 
      2 CA         -0.3400  -13.6360  -22.7040 C.3       9 GLL5        0.0000 
      3 CA         -2.6960  -15.0550  -20.0560 C.3       6 GLP5        0.0000 
      4 CA         -2.7905  -12.7405  -23.3515 C.3       3 GLC5        0.0000 
      5 CA         -0.8730  -13.4730  -24.1180 C.3       9 GLL5        0.0000 
      6 CA         -4.7080  -12.0080  -22.5850 C.3       6 GLP5        0.0000 
      7 CA         -3.8865  -15.4770  -24.3555 C.3       3 GLC5        0.0000 
      8 CA         -2.3170  -15.0370  -25.4610 C.3       9 GLL5        0.0000 
      9 CA         -5.4560  -15.9170  -23.2500 C.3       6 GLP5        0.0000 
     10 CA         -2.5430  -16.8695  -25.4515 C.3       3 GLC5        0.0000 
     11 CA         -2.7690  -18.7020  -25.4420 C.3       6 GLP5        0.0000 
     12 CA         -1.6270  -15.1785  -27.3810 C.3       3 GLC5        0.0000 
     13 CA         -0.9370  -15.3200  -29.3010 C.3       6 GLP5        0.0000 
     14 CA         -2.5060  -13.4765  -26.9350 C.3       3 GLC5        0.0000 
     15 CA         -2.6950  -11.9160  -28.4090 C.3       6 GLP5        0.0000 
     16 CA         -0.8190  -17.5135  -25.2425 C.3       3 GLC5        0.0000 
     17 CA         -0.2010  -15.9020  -24.3970 C.3       9 GLL5        0.0000 
     18 CA         -1.4370  -19.1250  -26.0880 C.3       6 GLP5        0.0000 
     19 CA          2.8240  -15.8105  -24.7000 C.3       3 GLC5        0.0000 
     20 CA          1.1090  -15.2790  -23.9230 C.3       9 GLL5        0.0000 
     21 CA          4.5390  -16.3420  -25.4770 C.3       6 GLP5        0.0000 
     22 CA          2.0360  -13.5310  -23.4630 C.3       3 GLC5        0.0000 
     23 CA          2.9630  -11.7830  -23.0030 C.3       6 GLP5        0.0000 
     24 O          -0.0295  -13.4870  -20.1985 O.2       1 ALC1        0.0000 
     25 O           1.3630  -13.9180  -20.5330 O.2       7 ALL1        0.0000 
     26 O          -1.4220  -13.0560  -19.8640 O.2       4 ALP1        0.0000 
     27 CA          3.2445  -13.1115  -20.9010 C.3       3 GLC5        0.0000 
     28 CA          2.1910  -13.9920  -19.3270 C.3       9 GLL5        0.0000 
     29 CA          4.2980  -12.2310  -22.4750 C.3       6 GLP5        0.0000 
     30 N          -0.2725  -15.8155  -19.2875 N.am      2 SEC2        0.0000 
     31 N           0.9370  -15.7740  -18.4520 N.am      8 SEL2        0.0000 
     32 N          -1.4820  -15.8570  -20.1230 N.am      5 SEP2        0.0000 
     33 CA          0.0655  -13.6300  -17.3595 C.3       3 GLC5        0.0000 
     34 CA          1.6870  -12.8920  -18.3810 C.3       9 GLL5        0.0000 
     35 CA         -1.5560  -14.3680  -16.3380 C.3       6 GLP5        0.0000 
     36 CA          1.6085  -12.4070  -16.2810 C.3       3 GLC5        0.0000 
     37 CA          1.5300  -11.9220  -14.1810 C.3       6 GLP5        0.0000 
     38 CA          4.6035  -12.0860  -17.0185 C.3       3 GLC5        0.0000 
     39 CA          3.3930  -11.0360  -18.2660 C.3       9 GLL5        0.0000 
     40 CA          5.8140  -13.1360  -15.7710 C.3       6 GLP5        0.0000 
     41 CA          3.8455  -11.6335  -20.3705 C.3       3 GLC5        0.0000 
     42 CA          3.2285   -7.0280  -18.9745 C.3       3 GLC5        0.0000 
     43 CA          3.1570   -9.0340  -19.6120 C.3       9 GLL5        0.0000 
     44 CA          3.3000   -5.0220  -18.3370 C.3       6 GLP5        0.0000 
     45 CA          5.4915  -15.0270  -16.0400 C.3       3 GLC5        0.0000 
     46 CA          5.1690  -16.9180  -16.3090 C.3       9 GLL5        0.0000 
     47 CA          1.4645  -17.5630  -19.3515 C.3       3 GLC5        0.0000 
     48 CA          3.1000  -17.3700  -17.8600 C.3       9 GLL5        0.0000 
     49 CA         -0.1710  -17.7560  -20.8430 C.3       6 GLP5        0.0000 
     50 O           4.4530  -15.1570  -18.3720 O.2       1 ALC1        0.0000 
     51 O           3.1480  -16.0380  -18.4480 O.2       7 ALL1        0.0000 
     52 O           5.7580  -14.2760  -18.2960 O.2       4 ALP1        0.0000 
     53 CA          1.6160  -18.0485  -20.5155 C.3       3 GLC5        0.0000 
     54 CA          3.4030  -18.3410  -20.1880 C.3       9 GLL5        0.0000 
     55 CA          2.7205  -20.9675  -18.8615 C.3       3 GLC5        0.0000 
     56 CA          3.5010  -20.7740  -20.8030 C.3       9 GLL5        0.0000 
     57 CA          1.9400  -21.1610  -16.9200 C.3       6 GLP5        0.0000 
     58 CA          4.9830  -18.5735  -23.4510 C.3       3 GLC5        0.0000 
     59 CA          5.3120  -19.2950  -21.4970 C.3       9 GLL5        0.0000 
     60 CA          4.6540  -17.8520  -25.4050 C.3       6 GLP5        0.0000 
     61 CA          1.1783  -12.6687  -23.2070 C.3       3 GLC5        0.0000 
     62 CA          0.1415  -16.6732  -22.5015 C.3       3 GLC5        0.0000 
     63 CA          0.8505  -15.3197  -26.1575 C.3       3 GLC5        0.0000 
     64 CA          1.2470  -15.0490  -28.1550 C.3       6 GLP5        0.0000 
     65 CA          2.2765  -14.5865  -17.1170 C.3       3 GLC5        0.0000 
     66 CA          2.6140  -15.7310  -15.3800 C.3       6 GLP5        0.0000 
     67 CA          0.4925  -11.3010  -17.7358 C.3       3 GLC5        0.0000 
     68 CA         -0.9630  -10.3870  -16.8730 C.3       6 GLP5        0.0000 
     69 CA          2.4112  -11.4727  -21.1455 C.3       3 GLC5        0.0000 
     70 CA          2.2090  -11.5380  -18.8160 C.3       9 GLL5        0.0000 
     71 CA          5.1545  -11.3957  -18.9265 C.3       3 GLC5        0.0000 
     72 CA          3.8670   -9.7850  -18.6700 C.3       9 GLL5        0.0000 
     73 CA          6.6790  -12.3810  -19.3850 C.3       6 GLP5        0.0000 
     74 CA          0.3905  -10.2745  -18.4168 C.3       3 GLC5        0.0000 
     75 CA          1.5100  -10.7870  -19.7600 C.3       9 GLL5        0.0000 
     76 CA          2.7652  -10.5343  -21.4447 C.3       3 GLC5        0.0000 
     77 CA          1.9780   -9.5370  -20.1610 C.3       9 GLL5        0.0000 
     78 CA          3.2603   -8.2198  -21.5928 C.3       3 GLC5        0.0000 
     79 CA          3.9530   -7.1540  -23.2990 C.3       6 GLP5        0.0000 
     80 CA          3.6727   -8.8976  -17.2285 C.3       3 GLC5        0.0000 
     81 CA          3.9520   -8.0730  -15.4170 C.3       6 GLP5        0.0000 
     82 CA          3.5250  -16.4237  -15.8793 C.3       3 GLC5        0.0000 
     83 CA          3.0693  -16.7707  -16.8475 C.3       3 GLC5        0.0000 
     84 CA          2.8076  -19.4789  -17.4410 C.3       3 GLC5        0.0000 
     85 CA          3.7030  -17.3150  -16.4480 C.3       9 GLL5        0.0000 
     86 CA          1.9227  -21.3702  -21.4973 C.3       3 GLC5        0.0000 
     87 CA          0.0200  -21.4300  -21.8920 C.3       6 GLP5        0.0000 
     88 CA          4.4794  -20.5540  -23.6351 C.3       3 GLC5        0.0000 
     89 CA          5.9520  -20.3730  -22.1050 C.3       9 GLL5        0.0000 
     90 CA          3.6040  -20.0490  -25.3530 C.3       6 GLP5        0.0000 
     91 CA          5.5417  -23.6200  -17.8922 C.3       3 GLC5        0.0000 
     92 CA          6.3640  -21.8570  -17.6970 C.3       9 GLL5        0.0000 
     93 CA          5.1240  -25.4270  -18.6620 C.3       6 GLP5        0.0000 
     94 CA          3.7202  -21.1638  -16.5528 C.3       3 GLC5        0.0000 
     95 CA          5.5550  -21.7690  -16.5480 C.3       9 GLL5        0.0000 
@<TRIPOS>BOND
@<TRIPOS>SUBSTRUCTURE
     1 ALC1       24 GROUP        1 X    ALC  0     ROOT ALC X 1
     2 SEC2       30 GROUP        1 X    SEC  0     **** SEC X 2
     3 GLC5        1 GROUP        1 X    GLC  0     **** GLC X 6
     4 ALP1       26 GROUP        1 Y    ALP  0     ROOT ALP Y 8
     5 SEP2       32 GROUP        1 Y    SEP  0     **** SEP Y 9
     6 GLP5        3 GROUP        1 Y    GLP  0     **** GLP Y 13
     7 ALL1       25 GROUP        1 Z    ALL  0     ROOT ALL Z 15
     8 SEL2       31 GROUP        1 Z    SEL  0     **** SEL Z 16
     9 GLL5        2 GROUP        1 Z    GLL  0     **** GLL Z 20
@<TRIPOS>SET

