#    Name: 3s3r_0IW_1_ligand
#    Modification time : Mon Apr  7 22:01:41 2014

@<TRIPOS>MOLECULE
3s3r_0IW_1_ligand
   82    85     1     0     0
SMALL
NO_CHARGES


@<TRIPOS>ATOM
      1 N1          0.8360  -14.5110  -22.7020 N.am      1 0IW324      0.0000 
      2 C           1.6460  -14.6220  -21.6330 C.2       1 0IW324      0.0000 
      3 O           2.6330  -15.3620  -21.6570 O.2       1 0IW324      0.0000 
      4 C2         -0.3400  -13.6360  -22.7040 C.3       1 0IW324      0.0000 
      5 C3         -0.8730  -13.4730  -24.1180 C.3       1 0IW324      0.0000 
      6 N4         -1.1280  -14.8020  -24.6500 N.4       1 0IW324      0.0000 
      7 CM         -2.3170  -15.0370  -25.4610 C.3       1 0IW324      0.0000 
      8 C5         -0.2010  -15.9020  -24.3970 C.3       1 0IW324      0.0000 
      9 C6          1.1090  -15.2790  -23.9230 C.3       1 0IW324      0.0000 
     10 N           1.3630  -13.9180  -20.5330 N.am      1 0IW324      0.0000 
     11 CA          2.1910  -13.9920  -19.3270 C.3       1 0IW324      0.0000 
     12 C1          2.0430  -15.3480  -18.6960 C.2       1 0IW324      0.0000 
     13 O1          0.9370  -15.7740  -18.4520 O.2       1 0IW324      0.0000 
     14 CB          1.6870  -12.8920  -18.3810 C.3       1 0IW324      0.0000 
     15 CG          2.2090  -11.5380  -18.8160 C.ar      1 0IW324      0.0000 
     16 CD1         3.3930  -11.0360  -18.2660 C.ar      1 0IW324      0.0000 
     17 CD2         1.5100  -10.7870  -19.7600 C.ar      1 0IW324      0.0000 
     18 CE1         3.8670   -9.7850  -18.6700 C.ar      1 0IW324      0.0000 
     19 CE2         1.9780   -9.5370  -20.1610 C.ar      1 0IW324      0.0000 
     20 CZ          3.1570   -9.0340  -19.6120 C.ar      1 0IW324      0.0000 
     21 C11         5.1690  -16.9180  -16.3090 C.3       1 0IW324      0.0000 
     22 C21         3.7030  -17.3150  -16.4480 C.3       1 0IW324      0.0000 
     23 C31         3.1000  -17.3700  -17.8600 C.3       1 0IW324      0.0000 
     24 N2          3.1480  -16.0380  -18.4480 N.am      1 0IW324      0.0000 
     25 C4          3.9490  -18.2510  -18.7700 C.3       1 0IW324      0.0000 
     26 C51         3.4030  -18.3410  -20.1880 C.3       1 0IW324      0.0000 
     27 C1'         4.0910  -19.5040  -20.8540 C.ar      1 0IW324      0.0000 
     28 C2'         3.5010  -20.7740  -20.8030 C.ar      1 0IW324      0.0000 
     29 C3'         4.1500  -21.8470  -21.4020 C.ar      1 0IW324      0.0000 
     30 C4'         5.3650  -21.6430  -22.0570 C.ar      1 0IW324      0.0000 
     31 C5'         5.9520  -20.3730  -22.1050 C.ar      1 0IW324      0.0000 
     32 C6'         5.3120  -19.2950  -21.4970 C.ar      1 0IW324      0.0000 
     33 C12         6.3640  -21.8570  -17.6970 C.ar      1 0IW324      0.0000 
     34 C22         5.5550  -21.7690  -16.5480 C.ar      1 0IW324      0.0000 
     35 C32         5.4460  -20.5640  -15.8230 C.ar      1 0IW324      0.0000 
     36 C41         6.1520  -19.4390  -16.2500 C.ar      1 0IW324      0.0000 
     37 S1          6.0730  -18.0490  -15.4620 S.o2      1 0IW324      0.0000 
     38 O11         5.5530  -18.1990  -14.1350 O.2       1 0IW324      0.0000 
     39 O2          7.4260  -17.5740  -15.3300 O.2       1 0IW324      0.0000 
     40 C52         6.9640  -19.5380  -17.3860 C.ar      1 0IW324      0.0000 
     41 C61         7.0790  -20.7320  -18.1180 C.ar      1 0IW324      0.0000 
     42 H          -0.0860  -12.6462  -22.3122 H         1 0IW324      0.0000 
     43 H          -1.1348  -14.0553  -22.0793 H         1 0IW324      0.0000 
     44 H          -0.1292  -12.9489  -24.7094 H         1 0IW324      0.0000 
     45 H          -1.7837  -12.8841  -24.0783 H         1 0IW324      0.0000 
     46 H          -1.8694  -15.1450  -23.4614 H         1 0IW324      0.0000 
     47 H          -0.0077  -16.4664  -25.2982 H         1 0IW324      0.0000 
     48 H          -0.5720  -16.5561  -23.6208 H         1 0IW324      0.0000 
     49 H           1.8205  -16.0749  -23.7296 H         1 0IW324      0.0000 
     50 H           1.4903  -14.6354  -24.7088 H         1 0IW324      0.0000 
     51 H           0.5405  -13.2817  -20.4769 H         1 0IW324      0.0000 
     52 H           3.2097  -13.7984  -19.5605 H         1 0IW324      0.0000 
     53 H           2.0296  -13.1109  -17.3719 H         1 0IW324      0.0000 
     54 H           0.5992  -12.8876  -18.3936 H         1 0IW324      0.0000 
     55 H           3.9090  -11.5823  -17.5714 H         1 0IW324      0.0000 
     56 H           0.6380  -11.1604  -20.1655 H         1 0IW324      0.0000 
     57 H           4.7399   -9.4155  -18.2739 H         1 0IW324      0.0000 
     58 H           1.4591   -8.9906  -20.8550 H         1 0IW324      0.0000 
     59 H           3.5055   -8.1117  -19.8985 H         1 0IW324      0.0000 
     60 H           5.2786  -15.9902  -15.7600 H         1 0IW324      0.0000 
     61 H           5.6495  -16.8292  -17.2761 H         1 0IW324      0.0000 
     62 H           3.0834  -16.6144  -15.8311 H         1 0IW324      0.0000 
     63 H           3.5573  -18.3164  -15.9672 H         1 0IW324      0.0000 
     64 H           2.1180  -17.7406  -17.8228 H         1 0IW324      0.0000 
     65 H           4.0982  -15.6689  -18.6579 H         1 0IW324      0.0000 
     66 H           4.0039  -19.2612  -18.3407 H         1 0IW324      0.0000 
     67 H           4.9720  -17.8508  -18.8030 H         1 0IW324      0.0000 
     68 H           3.6258  -17.4296  -20.7154 H         1 0IW324      0.0000 
     69 H           2.3411  -18.5123  -20.1520 H         1 0IW324      0.0000 
     70 H           2.6055  -20.9040  -20.3305 H         1 0IW324      0.0000 
     71 H           3.7395  -22.7863  -21.3641 H         1 0IW324      0.0000 
     72 H           5.8393  -22.4385  -22.5133 H         1 0IW324      0.0000 
     73 H           6.8464  -20.2401  -22.5848 H         1 0IW324      0.0000 
     74 H           5.7299  -18.3638  -21.5210 H         1 0IW324      0.0000 
     75 H           6.4246  -22.7337  -18.2132 H         1 0IW324      0.0000 
     76 H           5.0331  -22.5985  -16.2304 H         1 0IW324      0.0000 
     77 H           4.8532  -20.5224  -14.9931 H         1 0IW324      0.0000 
     78 H           7.4988  -18.7046  -17.6993 H         1 0IW324      0.0000 
     79 H           7.6749  -20.7736  -18.9420 H         1 0IW324      0.0000 
     80 H          -2.3252  -14.4664  -26.2822 H         1 0IW324      0.0000 
     81 H          -2.3777  -15.9880  -25.7643 H         1 0IW324      0.0000 
     82 H          -3.1565  -14.8362  -24.9562 H         1 0IW324      0.0000 
@<TRIPOS>BOND
     1    2    1 am   
     2    4    1 1    
     3    9    1 1    
     4    3    2 2    
     5   10    2 am   
     6    5    4 1    
     7   42    4 1    
     8   43    4 1    
     9    6    5 1    
    10   44    5 1    
    11   45    5 1    
    12    7    6 1    
    13    8    6 1    
    14   46    6 1    
    15   80    7 1    
    16   81    7 1    
    17   82    7 1    
    18    9    8 1    
    19   47    8 1    
    20   48    8 1    
    21   49    9 1    
    22   50    9 1    
    23   11   10 1    
    24   51   10 1    
    25   12   11 1    
    26   14   11 1    
    27   52   11 1    
    28   13   12 2    
    29   24   12 am   
    30   15   14 1    
    31   53   14 1    
    32   54   14 1    
    33   16   15 ar   
    34   17   15 ar   
    35   18   16 ar   
    36   55   16 1    
    37   19   17 ar   
    38   56   17 1    
    39   20   18 ar   
    40   57   18 1    
    41   20   19 ar   
    42   58   19 1    
    43   59   20 1    
    44   22   21 1    
    45   37   21 1    
    46   60   21 1    
    47   61   21 1    
    48   23   22 1    
    49   62   22 1    
    50   63   22 1    
    51   24   23 1    
    52   25   23 1    
    53   64   23 1    
    54   65   24 1    
    55   26   25 1    
    56   66   25 1    
    57   67   25 1    
    58   27   26 1    
    59   68   26 1    
    60   69   26 1    
    61   28   27 ar   
    62   32   27 ar   
    63   29   28 ar   
    64   70   28 1    
    65   30   29 ar   
    66   71   29 1    
    67   31   30 ar   
    68   72   30 1    
    69   32   31 ar   
    70   73   31 1    
    71   74   32 1    
    72   34   33 ar   
    73   41   33 ar   
    74   75   33 1    
    75   35   34 ar   
    76   76   34 1    
    77   36   35 ar   
    78   77   35 1    
    79   37   36 1    
    80   40   36 ar   
    81   38   37 2    
    82   39   37 2    
    83   41   40 ar   
    84   78   40 1    
    85   79   41 1    
@<TRIPOS>SUBSTRUCTURE
     1 0IW324      1 GROUP   
@<TRIPOS>SET

