#    Name: 2pz8_APC_2_INTS_M
#    Modification time : Mon Mar 24 19:35:52 2014

@<TRIPOS>MOLECULE
2pz8_APC_2_INTS_M
   69     0    15     0     0
SMALL
NO_CHARGES


@<TRIPOS>ATOM
      1 Zn          7.1880  -13.5380  -29.4145 Zn        4 ZIC7        0.0000 
      2 Zn          6.7950  -14.2920  -29.9190 Zn       14 ZIL7        0.0000 
      3 Zn          7.5810  -12.7840  -28.9100 Zn        9 ZIP7        0.0000 
      4 N           7.0590  -13.9355  -31.3490 N.am      2 SEC2        0.0000 
      5 N           6.7950  -14.2920  -29.9190 N.am     12 SEL2        0.0000 
      6 N           7.3230  -13.5790  -32.7790 N.am      7 SEP2        0.0000 
      7 NZ          6.0280  -17.8620  -30.1620 N.4       3 LYC4        0.0000 
      8 NZ          6.3980  -16.5200  -29.9680 N.4      13 LYL4        0.0000 
      9 NZ          5.6580  -19.2040  -30.3560 N.4       8 LYP4        0.0000 
     10 N           6.0280  -17.8620  -30.1620 N.am      2 SEC2        0.0000 
     11 N           6.3980  -16.5200  -29.9680 N.am     12 SEL2        0.0000 
     12 N           5.6580  -19.2040  -30.3560 N.am      7 SEP2        0.0000 
     13 N           3.3005  -15.1135  -29.0790 N.am      2 SEC2        0.0000 
     14 N           4.4340  -15.0420  -30.1280 N.am     12 SEL2        0.0000 
     15 N           2.1670  -15.1850  -28.0300 N.am      7 SEP2        0.0000 
     16 N           4.9610  -15.5170  -24.6620 N.am      2 SEC2        0.0000 
     17 N           5.8360  -14.7590  -25.6020 N.am     12 SEL2        0.0000 
     18 N           4.0860  -16.2750  -23.7220 N.am      7 SEP2        0.0000 
     19 N           5.1030  -14.1210  -24.4935 N.am      2 SEC2        0.0000 
     20 N           4.3700  -13.4830  -23.3850 N.am      7 SEP2        0.0000 
     21 Zn          7.1620  -13.0475  -28.0285 Zn        4 ZIC7        0.0000 
     22 Zn          6.7430  -13.3110  -27.1470 Zn       14 ZIL7        0.0000 
     23 N           6.0765  -12.4360  -26.3680 N.am      2 SEC2        0.0000 
     24 N           6.7430  -13.3110  -27.1470 N.am     12 SEL2        0.0000 
     25 N           5.4100  -11.5610  -25.5890 N.am      7 SEP2        0.0000 
     26 N           4.3600  -16.3515  -27.1985 N.am      2 SEC2        0.0000 
     27 N           5.3030  -15.2790  -28.0070 N.am     12 SEL2        0.0000 
     28 N           3.4170  -17.4240  -26.3900 N.am      7 SEP2        0.0000 
     29 Zn          8.3960  -13.3720  -28.6805 Zn        4 ZIC7        0.0000 
     30 Zn          9.2110  -13.9600  -28.4510 Zn       14 ZIL7        0.0000 
     31 CA          6.6620  -17.0675  -26.2925 C.3       5 GLC5        0.0000 
     32 CA          7.7980  -15.7900  -27.0310 C.3      15 GLL5        0.0000 
     33 CA          5.5260  -18.3450  -25.5540 C.3      10 GLP5        0.0000 
     34 CA          7.8350  -12.0715  -20.4855 C.3       5 GLC5        0.0000 
     35 CA          8.3910  -13.1200  -22.3930 C.3      15 GLL5        0.0000 
     36 CA          7.2790  -11.0230  -18.5780 C.3      10 GLP5        0.0000 
     37 CA          7.2255  -11.7720  -23.7215 C.3       5 GLC5        0.0000 
     38 CA          6.0600  -10.4240  -25.0500 C.3      10 GLP5        0.0000 
     39 O           7.2090  -13.1320  -20.6655 O.2       1 ALC1        0.0000 
     40 O           8.2570  -13.8340  -21.1740 O.2      11 ALL1        0.0000 
     41 O           6.1610  -12.4300  -20.1570 O.2       6 ALP1        0.0000 
     42 CA          9.1715   -7.1065  -21.9595 C.3       5 GLC5        0.0000 
     43 CA          8.3710   -7.8350  -23.8420 C.3      15 GLL5        0.0000 
     44 CA          9.9720   -6.3780  -20.0770 C.3      10 GLP5        0.0000 
     45 O           7.5280   -5.8510  -25.0200 O.2       1 ALC1        0.0000 
     46 O           8.4200   -6.8690  -24.7720 O.2      11 ALL1        0.0000 
     47 O           6.6360   -4.8330  -25.2680 O.2       6 ALP1        0.0000 
     48 N           6.4130   -6.6460  -22.6165 N.am      2 SEC2        0.0000 
     49 N           7.6650   -7.5980  -22.6880 N.am     12 SEL2        0.0000 
     50 N           5.1610   -5.6940  -22.5450 N.am      7 SEP2        0.0000 
     51 N           7.6775   -6.5400  -21.4590 N.am      2 SEC2        0.0000 
     52 N           7.6900   -5.4820  -20.2300 N.am      7 SEP2        0.0000 
     53 CA          7.4435   -9.7985  -20.1580 C.3       5 GLC5        0.0000 
     54 CA          7.6080   -8.5740  -21.7380 C.3      15 GLL5        0.0000 
     55 CA          5.8790   -9.5735  -21.2130 C.3       5 GLC5        0.0000 
     56 CA          4.1500  -10.5730  -20.6880 C.3      10 GLP5        0.0000 
     57 CA          6.3320   -9.0895  -22.9960 C.3       5 GLC5        0.0000 
     58 CA          5.0560   -9.6050  -24.2540 C.3      10 GLP5        0.0000 
     59 CA          8.7900   -7.4760  -20.9075 C.3       5 GLC5        0.0000 
     60 CA         11.9265  -15.1028  -23.7180 C.3       5 GLC5        0.0000 
     61 CA          9.8730  -14.4780  -23.6020 C.3      15 GLL5        0.0000 
     62 CA         13.7300  -15.4540  -23.1780 C.3      10 GLP5        0.0000 
     63 CA          6.5198  -13.9560  -22.6442 C.3       5 GLC5        0.0000 
     64 CA          8.4160  -14.0380  -23.6040 C.3      15 GLL5        0.0000 
     65 CA          4.6360  -14.3330  -22.2900 C.3      10 GLP5        0.0000 
     66 CA          7.4211   -9.8295  -24.2374 C.3       5 GLC5        0.0000 
     67 CA          9.0160   -9.0990  -23.9930 C.3      15 GLL5        0.0000 
     68 CA         10.4681   -8.8650  -22.8154 C.3       5 GLC5        0.0000 
     69 CA         12.1540   -8.4950  -22.2060 C.3      10 GLP5        0.0000 
@<TRIPOS>BOND
@<TRIPOS>SUBSTRUCTURE
     1 ALC1       39 GROUP        1 X    ALC  0     ROOT ALC X 1
     2 SEC2        4 GROUP        1 X    SEC  0     **** SEC X 2
     3 LYC4        7 GROUP        1 X    LYC  0     **** LYC X 4
     4 ZIC7        1 GROUP        1 X    ZIC  0     **** ZIC X 5
     5 GLC5       31 GROUP        1 X    GLC  0     **** GLC X 6
     6 ALP1       41 GROUP        1 Y    ALP  0     ROOT ALP Y 8
     7 SEP2        6 GROUP        1 Y    SEP  0     **** SEP Y 9
     8 LYP4        9 GROUP        1 Y    LYP  0     **** LYP Y 11
     9 ZIP7        3 GROUP        1 Y    ZIP  0     **** ZIP Y 12
    10 GLP5       33 GROUP        1 Y    GLP  0     **** GLP Y 13
    11 ALL1       40 GROUP        1 Z    ALL  0     ROOT ALL Z 15
    12 SEL2        5 GROUP        1 Z    SEL  0     **** SEL Z 16
    13 LYL4        8 GROUP        1 Z    LYL  0     **** LYL Z 18
    14 ZIL7        2 GROUP        1 Z    ZIL  0     **** ZIL Z 19
    15 GLL5       32 GROUP        1 Z    GLL  0     **** GLL Z 20
@<TRIPOS>SET

