#    Name: 2pz8_APC_2_ligand
#    Modification time : Mon Mar 24 19:35:52 2014

@<TRIPOS>MOLECULE
2pz8_APC_2_ligand
   45    47     1     0     0
SMALL
NO_CHARGES


@<TRIPOS>ATOM
      1 PG          5.7530  -15.2820  -29.4900 P.3       1 APC3002     0.0000 
      2 O1G         6.7950  -14.2920  -29.9190 O.co2     1 APC3002     0.0000 
      3 O2G         6.3980  -16.5200  -29.9680 O.co2     1 APC3002     0.0000 
      4 O3G         4.4340  -15.0420  -30.1280 O.co2     1 APC3002     0.0000 
      5 PB          6.3490  -14.7450  -26.9760 P.3       1 APC3002     0.0000 
      6 O1B         5.8360  -14.7590  -25.6020 O.co2     1 APC3002     0.0000 
      7 O2B         6.7430  -13.3110  -27.1470 O.co2     1 APC3002     0.0000 
      8 O3B         5.3030  -15.2790  -28.0070 O.3       1 APC3002     0.0000 
      9 PA          9.3380  -14.9160  -27.3300 P.3       1 APC3002     0.0000 
     10 O1A         9.2110  -13.9600  -28.4510 O.co2     1 APC3002     0.0000 
     11 O2A        10.3480  -15.8820  -27.7980 O.co2     1 APC3002     0.0000 
     12 C3A         7.7980  -15.7900  -27.0310 C.3       1 APC3002     0.0000 
     13 O5'         9.9090  -14.2260  -26.0040 O.3       1 APC3002     0.0000 
     14 C5'        10.3730  -15.0250  -24.9140 C.3       1 APC3002     0.0000 
     15 C4'         9.8730  -14.4780  -23.6020 C.3       1 APC3002     0.0000 
     16 O4'        10.5830  -13.2640  -23.2560 O.3       1 APC3002     0.0000 
     17 C3'         8.4160  -14.0380  -23.6040 C.3       1 APC3002     0.0000 
     18 O3'         7.5180  -15.1410  -23.5690 O.3       1 APC3002     0.0000 
     19 C2'         8.3910  -13.1200  -22.3930 C.3       1 APC3002     0.0000 
     20 O2'         8.2570  -13.8340  -21.1740 O.3       1 APC3002     0.0000 
     21 C1'         9.7380  -12.3740  -22.5190 C.3       1 APC3002     0.0000 
     22 N9          9.5800  -11.1340  -23.3030 N.pl3     1 APC3002     0.0000 
     23 C8         10.1030  -10.8400  -24.5550 C.2       1 APC3002     0.0000 
     24 N7          9.7860   -9.6390  -25.0030 N.2       1 APC3002     0.0000 
     25 C5          9.0160   -9.0990  -23.9930 C.ar      1 APC3002     0.0000 
     26 C6          8.3710   -7.8350  -23.8420 C.ar      1 APC3002     0.0000 
     27 N6          8.4200   -6.8690  -24.7720 N.pl3     1 APC3002     0.0000 
     28 N1          7.6650   -7.5980  -22.6880 N.ar      1 APC3002     0.0000 
     29 C2          7.6080   -8.5740  -21.7380 C.ar      1 APC3002     0.0000 
     30 N3          8.1750   -9.8010  -21.7710 N.ar      1 APC3002     0.0000 
     31 C4          8.8710  -10.0030  -22.9320 C.ar      1 APC3002     0.0000 
     32 H           7.6675  -16.4564  -27.8332 H         1 APC3002     0.0000 
     33 H           7.8863  -16.2448  -26.0876 H         1 APC3002     0.0000 
     34 H          11.4741  -15.0523  -24.8778 H         1 APC3002     0.0000 
     35 H          10.0273  -16.0674  -25.0059 H         1 APC3002     0.0000 
     36 H          10.0032  -15.2004  -22.8159 H         1 APC3002     0.0000 
     37 H           8.2947  -13.4093  -24.4799 H         1 APC3002     0.0000 
     38 H           7.6173  -12.3927  -22.5592 H         1 APC3002     0.0000 
     39 H          10.1124  -12.1874  -21.5564 H         1 APC3002     0.0000 
     40 H          10.6674  -11.5045  -25.0471 H         1 APC3002     0.0000 
     41 H           8.9731   -7.0653  -25.5816 H         1 APC3002     0.0000 
     42 H           7.8990   -6.0391  -24.5723 H         1 APC3002     0.0000 
     43 H           7.0315   -8.3305  -20.8397 H         1 APC3002     0.0000 
     44 H           6.8818  -14.9806  -24.3236 H         1 APC3002     0.0000 
     45 H           7.5048  -13.3845  -20.6922 H         1 APC3002     0.0000 
@<TRIPOS>BOND
     1    2    1 ar   
     2    3    1 ar   
     3    4    1 ar   
     4    8    1 1    
     5    6    5 ar   
     6    7    5 ar   
     7    8    5 1    
     8   12    5 1    
     9   10    9 ar   
    10   11    9 ar   
    11   12    9 1    
    12   13    9 1    
    13   32   12 1    
    14   33   12 1    
    15   14   13 1    
    16   15   14 1    
    17   34   14 1    
    18   35   14 1    
    19   16   15 1    
    20   17   15 1    
    21   36   15 1    
    22   21   16 1    
    23   18   17 1    
    24   19   17 1    
    25   37   17 1    
    26   44   18 1    
    27   20   19 1    
    28   21   19 1    
    29   38   19 1    
    30   45   20 1    
    31   22   21 1    
    32   39   21 1    
    33   23   22 1    
    34   31   22 1    
    35   24   23 2    
    36   40   23 1    
    37   25   24 1    
    38   26   25 ar   
    39   31   25 ar   
    40   27   26 1    
    41   28   26 ar   
    42   41   27 1    
    43   42   27 1    
    44   29   28 ar   
    45   30   29 ar   
    46   43   29 1    
    47   31   30 ar   
@<TRIPOS>SUBSTRUCTURE
     1 APC3002     1 GROUP   
@<TRIPOS>SET

