#    Name: 3g1z_AMP_1_INTS_M
#    Modification time : Tue Mar 25 07:00:03 2014

@<TRIPOS>MOLECULE
3g1z_AMP_1_INTS_M
   58     0    12     0     0
SMALL
NO_CHARGES


@<TRIPOS>ATOM
      1 NZ          4.6205    5.2250  -18.0170 N.4       3 LYC4        0.0000 
      2 NZ          5.3650    5.8110  -18.9350 N.4      11 LYL4        0.0000 
      3 NZ          3.0060    5.1970  -16.2450 N.4       7 LYP4        0.0000 
      4 N           4.6205    5.2250  -18.0170 N.am      2 SEC2        0.0000 
      5 N           5.3650    5.8110  -18.9350 N.am     10 SEL2        0.0000 
      6 N           3.8760    4.6390  -17.0990 N.am      6 SEP2        0.0000 
      7 NZ          4.0115    7.1730  -16.7460 N.4       3 LYC4        0.0000 
      8 NZ          4.9680    7.8440  -17.4780 N.4      11 LYL4        0.0000 
      9 N           4.0115    7.1730  -16.7460 N.am      2 SEC2        0.0000 
     10 N           4.9680    7.8440  -17.4780 N.am     10 SEL2        0.0000 
     11 N           3.0550    6.5020  -16.0140 N.am      6 SEP2        0.0000 
     12 N           4.4220    6.2415  -17.2885 N.am      2 SEC2        0.0000 
     13 CA          3.1390    5.5600  -20.7780 C.3       4 GLC5        0.0000 
     14 CA          3.6710    7.3700  -21.0190 C.3      12 GLL5        0.0000 
     15 CA          2.6070    3.7500  -20.5370 C.3       8 GLP5        0.0000 
     16 CA          4.7690    6.1200  -21.9670 C.3       4 GLC5        0.0000 
     17 CA          5.8670    4.8700  -22.9150 C.3       8 GLP5        0.0000 
     18 CA          2.3165    6.0180  -21.9030 C.3       4 GLC5        0.0000 
     19 CA          2.3770    7.9760  -21.5300 C.3      12 GLL5        0.0000 
     20 CA          2.2560    4.0600  -22.2760 C.3       8 GLP5        0.0000 
     21 CA          0.7580    7.5645  -22.9350 C.3       4 GLC5        0.0000 
     22 CA         -0.8610    7.1530  -24.3400 C.3       8 GLP5        0.0000 
     23 O           3.1465   11.3245  -21.0345 O.2       1 ALC1        0.0000 
     24 O           2.7270   10.4090  -21.9680 O.2       9 ALL1        0.0000 
     25 O           3.5660   12.2400  -20.1010 O.2       5 ALP1        0.0000 
     26 CA         -1.0260   10.5275  -21.7070 C.3       4 GLC5        0.0000 
     27 CA          0.6700    9.5510  -21.0820 C.3      12 GLL5        0.0000 
     28 CA         -2.7220   11.5040  -22.3320 C.3       8 GLP5        0.0000 
     29 O           0.1765   11.3440  -22.7525 O.2       1 ALC1        0.0000 
     30 O           0.2440    9.8520  -22.4110 O.2       9 ALL1        0.0000 
     31 O           0.1090   12.8360  -23.0940 O.2       5 ALP1        0.0000 
     32 CA         -0.2940    6.3405  -20.2510 C.3       4 GLC5        0.0000 
     33 CA          0.1490    8.1450  -20.8000 C.3      12 GLL5        0.0000 
     34 CA         -0.7370    4.5360  -19.7020 C.3       8 GLP5        0.0000 
     35 N           0.4300    8.1075  -16.0360 N.am      2 SEC2        0.0000 
     36 N          -0.3690    7.6310  -17.2080 N.am     10 SEL2        0.0000 
     37 N           1.2290    8.5840  -14.8640 N.am      6 SEP2        0.0000 
     38 CA         -3.7570    5.8475  -18.2905 C.3       4 GLC5        0.0000 
     39 CA         -2.9830    7.4810  -17.0490 C.3      12 GLL5        0.0000 
     40 CA         -4.5310    4.2140  -19.5320 C.3       8 GLP5        0.0000 
     41 O          -2.3000    7.5455  -14.5400 O.2       1 ALC1        0.0000 
     42 O          -3.1210    7.2810  -15.7310 O.2       9 ALL1        0.0000 
     43 O          -1.4790    7.8100  -13.3490 O.2       5 ALP1        0.0000 
     44 O          -4.3245    6.3835  -15.7155 O.2       1 ALC1        0.0000 
     45 O          -5.5280    5.4860  -15.7000 O.2       5 ALP1        0.0000 
     46 N          -5.4400    7.5525  -17.1060 N.am      2 SEC2        0.0000 
     47 N          -4.0530    7.5100  -17.8650 N.am     10 SEL2        0.0000 
     48 N          -6.8270    7.5950  -16.3470 N.am      6 SEP2        0.0000 
     49 CA         -4.9760    8.7800  -17.8695 C.3       4 GLC5        0.0000 
     50 CA         -3.9720    7.7010  -19.2040 C.3      12 GLL5        0.0000 
     51 CA         -5.9800    9.8590  -16.5350 C.3       8 GLP5        0.0000 
     52 CA         -4.2515    5.9575  -19.3680 C.3       4 GLC5        0.0000 
     53 CA         -5.6430    8.3190  -19.6025 C.3       4 GLC5        0.0000 
     54 CA         -7.3140    8.9370  -20.0010 C.3       8 GLP5        0.0000 
     55 CA         -0.2257    8.0005  -22.6405 C.3       4 GLC5        0.0000 
     56 CA         -2.5112    9.2395  -16.3528 C.3       4 GLC5        0.0000 
     57 CA         -1.6500    7.6450  -17.6420 C.3      12 GLL5        0.0000 
     58 CA         -2.7060   10.9160  -15.3600 C.3       8 GLP5        0.0000 
@<TRIPOS>BOND
@<TRIPOS>SUBSTRUCTURE
     1 ALC1       23 GROUP        1 X    ALC  0     ROOT ALC X 1
     2 SEC2        4 GROUP        1 X    SEC  0     **** SEC X 2
     3 LYC4        1 GROUP        1 X    LYC  0     **** LYC X 4
     4 GLC5       13 GROUP        1 X    GLC  0     **** GLC X 6
     5 ALP1       25 GROUP        1 Y    ALP  0     ROOT ALP Y 8
     6 SEP2        6 GROUP        1 Y    SEP  0     **** SEP Y 9
     7 LYP4        3 GROUP        1 Y    LYP  0     **** LYP Y 11
     8 GLP5       15 GROUP        1 Y    GLP  0     **** GLP Y 13
     9 ALL1       24 GROUP        1 Z    ALL  0     ROOT ALL Z 15
    10 SEL2        5 GROUP        1 Z    SEL  0     **** SEL Z 16
    11 LYL4        2 GROUP        1 Z    LYL  0     **** LYL Z 18
    12 GLL5       14 GROUP        1 Z    GLL  0     **** GLL Z 20
@<TRIPOS>SET

