#    Name: 3g1z_AMP_1_ligand
#    Modification time : Tue Mar 25 07:00:03 2014

@<TRIPOS>MOLECULE
3g1z_AMP_1_ligand
   35    37     1     0     0
SMALL
NO_CHARGES


@<TRIPOS>ATOM
      1 P           5.2230    7.3250  -18.8600 P.3       1 AMP401      0.0000 
      2 O1P         5.3650    5.8110  -18.9350 O.co2     1 AMP401      0.0000 
      3 O2P         4.9680    7.8440  -17.4780 O.co2     1 AMP401      0.0000 
      4 O3P         6.3280    7.9910  -19.6480 O.co2     1 AMP401      0.0000 
      5 O5'         3.8480    7.6710  -19.6310 O.3       1 AMP401      0.0000 
      6 C5'         3.6710    7.3700  -21.0190 C.3       1 AMP401      0.0000 
      7 C4'         2.3770    7.9760  -21.5300 C.3       1 AMP401      0.0000 
      8 O4'         1.2310    7.2680  -21.0000 O.3       1 AMP401      0.0000 
      9 C3'         2.1710    9.4210  -21.0890 C.3       1 AMP401      0.0000 
     10 O3'         2.7270   10.4090  -21.9680 O.3       1 AMP401      0.0000 
     11 C2'         0.6700    9.5510  -21.0820 C.3       1 AMP401      0.0000 
     12 O2'         0.2440    9.8520  -22.4110 O.3       1 AMP401      0.0000 
     13 C1'         0.1490    8.1450  -20.8000 C.3       1 AMP401      0.0000 
     14 N9         -0.3380    7.9510  -19.4140 N.pl3     1 AMP401      0.0000 
     15 C8          0.4080    7.8320  -18.2960 C.2       1 AMP401      0.0000 
     16 N7         -0.3690    7.6310  -17.2080 N.2       1 AMP401      0.0000 
     17 C5         -1.6500    7.6450  -17.6420 C.ar      1 AMP401      0.0000 
     18 C6         -2.9830    7.4810  -17.0490 C.ar      1 AMP401      0.0000 
     19 N6         -3.1210    7.2810  -15.7310 N.pl3     1 AMP401      0.0000 
     20 N1         -4.0530    7.5100  -17.8650 N.ar      1 AMP401      0.0000 
     21 C2         -3.9720    7.7010  -19.2040 C.ar      1 AMP401      0.0000 
     22 N3         -2.7880    7.8700  -19.8080 N.ar      1 AMP401      0.0000 
     23 C4         -1.6220    7.8350  -19.0990 C.ar      1 AMP401      0.0000 
     24 H           3.6301    6.2854  -21.1934 H         1 AMP401      0.0000 
     25 H           4.4960    7.7697  -21.6257 H         1 AMP401      0.0000 
     26 H           2.3569    7.9492  -22.6047 H         1 AMP401      0.0000 
     27 H           2.5053    9.5153  -20.0787 H         1 AMP401      0.0000 
     28 H           0.3464   10.2022  -20.3673 H         1 AMP401      0.0000 
     29 H          -0.6415    7.9312  -21.5012 H         1 AMP401      0.0000 
     30 H           1.3897    7.8844  -18.2739 H         1 AMP401      0.0000 
     31 H          -2.7491    7.9939  -15.1365 H         1 AMP401      0.0000 
     32 H          -3.5835    6.4368  -15.4602 H         1 AMP401      0.0000 
     33 H          -4.8552    7.7157  -19.7716 H         1 AMP401      0.0000 
     34 H           3.0904   11.1179  -21.3635 H         1 AMP401      0.0000 
     35 H           0.2589   10.8503  -22.4676 H         1 AMP401      0.0000 
@<TRIPOS>BOND
     1    2    1 ar   
     2    3    1 ar   
     3    4    1 ar   
     4    5    1 1    
     5    6    5 1    
     6    7    6 1    
     7   24    6 1    
     8   25    6 1    
     9    8    7 1    
    10    9    7 1    
    11   26    7 1    
    12   13    8 1    
    13   10    9 1    
    14   11    9 1    
    15   27    9 1    
    16   34   10 1    
    17   12   11 1    
    18   13   11 1    
    19   28   11 1    
    20   35   12 1    
    21   14   13 1    
    22   29   13 1    
    23   15   14 1    
    24   23   14 1    
    25   16   15 2    
    26   30   15 1    
    27   17   16 1    
    28   18   17 ar   
    29   23   17 ar   
    30   19   18 1    
    31   20   18 ar   
    32   31   19 1    
    33   32   19 1    
    34   21   20 ar   
    35   22   21 ar   
    36   33   21 1    
    37   23   22 ar   
@<TRIPOS>SUBSTRUCTURE
     1 AMP401      1 GROUP   
@<TRIPOS>SET

