#    Name: 3ilz_B72_1_INTS_M
#    Modification time : Tue Mar 25 16:45:19 2014

@<TRIPOS>MOLECULE
3ilz_B72_1_INTS_M
  100     0     9     0     0
SMALL
NO_CHARGES


@<TRIPOS>ATOM
      1 CA         26.3240   37.5460   36.7905 C.3       3 GLC5        0.0000 
      2 CA         24.9020   36.1460   35.8840 C.3       9 GLL5        0.0000 
      3 CA         27.7460   38.9460   37.6970 C.3       6 GLP5        0.0000 
      4 CA         26.2875   34.6130   35.6685 C.3       3 GLC5        0.0000 
      5 CA         27.6730   33.0800   35.4530 C.3       6 GLP5        0.0000 
      6 CA         24.3570   34.2885   36.7410 C.3       3 GLC5        0.0000 
      7 CA         23.8120   32.4310   37.5980 C.3       6 GLP5        0.0000 
      8 CA         23.7545   35.1780   34.2265 C.3       3 GLC5        0.0000 
      9 CA         22.6070   34.2100   32.5690 C.3       6 GLP5        0.0000 
     10 CA         24.2055   38.0405   36.6545 C.3       3 GLC5        0.0000 
     11 CA         23.5090   39.9350   37.4250 C.3       6 GLP5        0.0000 
     12 N          24.3070   38.4250   35.8270 N.am      2 SEC2        0.0000 
     13 N          25.3920   37.4440   35.5560 N.am      8 SEL2        0.0000 
     14 N          23.2220   39.4060   36.0980 N.am      5 SEP2        0.0000 
     15 CA         24.5610   38.8410   35.8130 C.3       3 GLC5        0.0000 
     16 CA         25.6130   37.7470   34.2010 C.3       9 GLL5        0.0000 
     17 CA         27.3505   42.2735   30.8225 C.3       3 GLC5        0.0000 
     18 CA         27.3350   40.7470   32.3190 C.3       9 GLL5        0.0000 
     19 CA         27.3660   43.8000   29.3260 C.3       6 GLP5        0.0000 
     20 CA         26.3815   42.3980   33.2570 C.3       3 GLC5        0.0000 
     21 CA         25.4280   44.0490   34.1950 C.3       6 GLP5        0.0000 
     22 CA         25.3115   40.6165   31.4335 C.3       3 GLC5        0.0000 
     23 CA         23.2880   40.4860   30.5480 C.3       6 GLP5        0.0000 
     24 CA         24.2480   35.3855   32.9425 C.3       3 GLC5        0.0000 
     25 CA         25.8890   36.5610   33.3160 C.3       9 GLL5        0.0000 
     26 CA         28.1350   34.8390   30.0545 C.3       3 GLC5        0.0000 
     27 CA         26.4700   35.6840   30.9280 C.3       9 GLL5        0.0000 
     28 CA         29.8000   33.9940   29.1810 C.3       6 GLP5        0.0000 
     29 CA         26.3670   33.5815   31.6225 C.3       3 GLC5        0.0000 
     30 CA         26.2640   31.4790   32.3170 C.3       6 GLP5        0.0000 
     31 CA         24.5385   34.9470   31.7485 C.3       3 GLC5        0.0000 
     32 CA         24.6530   36.8820   31.0515 C.3       3 GLC5        0.0000 
     33 CA         22.8360   38.0800   31.1750 C.3       6 GLP5        0.0000 
     34 CA         27.0155   36.1555   28.8480 C.3       3 GLC5        0.0000 
     35 CA         27.5610   36.6270   26.7680 C.3       6 GLP5        0.0000 
     36 CA         26.2795   34.4105   29.5120 C.3       3 GLC5        0.0000 
     37 CA         26.0890   33.1370   28.0960 C.3       6 GLP5        0.0000 
     38 CA         25.1555   39.5445   30.3290 C.3       3 GLC5        0.0000 
     39 CA         27.0230   38.6030   30.1100 C.3       9 GLL5        0.0000 
     40 CA         25.9200   38.8560   28.5680 C.3       3 GLC5        0.0000 
     41 CA         24.8170   39.1090   27.0260 C.3       6 GLP5        0.0000 
     42 CA         28.2090   41.7895   29.2085 C.3       3 GLC5        0.0000 
     43 CA         29.0520   39.7790   29.0910 C.3       9 GLL5        0.0000 
     44 CA         28.7635   38.6335   27.4905 C.3       3 GLC5        0.0000 
     45 CA         28.4750   37.4880   25.8900 C.3       6 GLP5        0.0000 
     46 CA         31.0395   42.8360   26.0260 C.3       3 GLC5        0.0000 
     47 CA         30.1830   41.1610   26.6390 C.3       9 GLL5        0.0000 
     48 CA         31.8960   44.5110   25.4130 C.3       6 GLP5        0.0000 
     49 CA         28.2665   42.1620   26.8795 C.3       3 GLC5        0.0000 
     50 CA         26.3500   43.1630   27.1200 C.3       6 GLP5        0.0000 
     51 CA         30.0870   41.3510   24.8015 C.3       3 GLC5        0.0000 
     52 CA         29.9910   41.5410   22.9640 C.3       6 GLP5        0.0000 
     53 CA         29.1975   43.0610   29.0520 C.3       3 GLC5        0.0000 
     54 CA         31.0290   42.3220   28.7780 C.3       9 GLL5        0.0000 
     55 CA         31.6470   43.9375   29.4910 C.3       3 GLC5        0.0000 
     56 CA         32.2650   45.5530   30.2040 C.3       6 GLP5        0.0000 
     57 CA         31.0705   41.2655   30.7555 C.3       3 GLC5        0.0000 
     58 CA         31.1120   40.2090   32.7330 C.3       6 GLP5        0.0000 
     59 O          33.2040   37.5515   28.7405 O.2       1 ALC1        0.0000 
     60 O          32.6850   38.8050   28.7710 O.2       7 ALL1        0.0000 
     61 O          33.7230   36.2980   28.7100 O.2       4 ALP1        0.0000 
     62 CA         30.7990   35.8120   30.3570 C.3       3 GLC5        0.0000 
     63 CA         30.8520   37.5930   29.9920 C.3       9 GLL5        0.0000 
     64 CA         30.7460   34.0310   30.7220 C.3       6 GLP5        0.0000 
     65 CA         29.6245   35.7650   29.7570 C.3       3 GLC5        0.0000 
     66 CA         29.4490   37.5360   30.3330 C.3       9 GLL5        0.0000 
     67 CA         29.4250   37.3570   32.4325 C.3       3 GLC5        0.0000 
     68 CA         29.4010   37.1780   34.5320 C.3       6 GLP5        0.0000 
     69 CA         28.5050   37.0815   28.5505 C.3       3 GLC5        0.0000 
     70 CA         26.8595   38.6732   35.8970 C.3       3 GLC5        0.0000 
     71 CA         26.3330   39.0540   33.9930 C.3       9 GLL5        0.0000 
     72 CA         27.6870   37.7892   34.3145 C.3       3 GLC5        0.0000 
     73 CA         28.0572   38.0117   33.2982 C.3       3 GLC5        0.0000 
     74 CA         26.5820   39.4410   32.5460 C.3       9 GLL5        0.0000 
     75 CA         24.5243   39.4189   33.1227 C.3       3 GLC5        0.0000 
     76 CA         22.7710   39.9170   32.9240 C.3       6 GLP5        0.0000 
     77 CA         28.6891   40.3001   33.4336 C.3       3 GLC5        0.0000 
     78 CA         30.4820   40.6030   34.0730 C.3       6 GLP5        0.0000 
     79 CA         27.7200   36.9458   33.5592 C.3       3 GLC5        0.0000 
     80 CA         26.1890   36.8660   31.8570 C.3       9 GLL5        0.0000 
     81 CA         24.5195   37.5697   31.8465 C.3       3 GLC5        0.0000 
     82 CA         27.6732   37.6268   28.3768 C.3       3 GLC5        0.0000 
     83 CA         29.9560   39.7118   31.1045 C.3       3 GLC5        0.0000 
     84 CA         28.5480   38.6500   29.8610 C.3       9 GLL5        0.0000 
     85 CA         31.0205   39.7575   30.8545 C.3       3 GLC5        0.0000 
     86 CA         30.4810   39.8400   28.7560 C.3       9 GLL5        0.0000 
     87 CA         32.0277   42.8003   27.1625 C.3       3 GLC5        0.0000 
     88 CA         30.9900   41.0390   27.9320 C.3       9 GLL5        0.0000 
     89 CA         33.0460   43.9200   25.9700 C.3       6 GLP5        0.0000 
     90 CA         32.1472   40.1615   26.1653 C.3       3 GLC5        0.0000 
     91 CA         33.7080   39.2230   25.0450 C.3       6 GLP5        0.0000 
     92 CA         32.7122   41.4603   29.1810 C.3       3 GLC5        0.0000 
     93 CA         34.4150   41.2400   30.0070 C.3       6 GLP5        0.0000 
     94 CA         30.2061   38.9751   26.8152 C.3       3 GLC5        0.0000 
     95 CA         29.9530   37.1500   26.1390 C.3       6 GLP5        0.0000 
     96 CA         30.5337   37.6662   27.8665 C.3       3 GLC5        0.0000 
     97 CA         31.3770   38.7720   29.1960 C.3       9 GLL5        0.0000 
     98 CA         32.1038   36.8413   28.6910 C.3       3 GLC5        0.0000 
     99 CA         33.0930   35.5000   27.7880 C.3       6 GLP5        0.0000 
    100 CA         30.6313   38.8868   31.4477 C.3       3 GLC5        0.0000 
@<TRIPOS>BOND
@<TRIPOS>SUBSTRUCTURE
     1 ALC1       59 GROUP        1 X    ALC  0     ROOT ALC X 1
     2 SEC2       12 GROUP        1 X    SEC  0     **** SEC X 2
     3 GLC5        1 GROUP        1 X    GLC  0     **** GLC X 6
     4 ALP1       61 GROUP        1 Y    ALP  0     ROOT ALP Y 8
     5 SEP2       14 GROUP        1 Y    SEP  0     **** SEP Y 9
     6 GLP5        3 GROUP        1 Y    GLP  0     **** GLP Y 13
     7 ALL1       60 GROUP        1 Z    ALL  0     ROOT ALL Z 15
     8 SEL2       13 GROUP        1 Z    SEL  0     **** SEL Z 16
     9 GLL5        2 GROUP        1 Z    GLL  0     **** GLL Z 20
@<TRIPOS>SET

