#    Name: 3ilz_B72_1_ligand
#    Modification time : Tue Mar 25 16:45:19 2014

@<TRIPOS>MOLECULE
3ilz_B72_1_ligand
   47    48     1     0     0
SMALL
NO_CHARGES


@<TRIPOS>ATOM
      1 O1         23.5700   35.7970   37.7720 O.co2     1 B721        0.0000 
      2 C20        24.6510   36.0900   37.3860 C.2       1 B721        0.0000 
      3 O2         25.3480   37.0050   38.1820 O.co2     1 B721        0.0000 
      4 C19        24.9020   36.1460   35.8840 C.3       1 B721        0.0000 
      5 O3         25.3920   37.4440   35.5560 O.3       1 B721        0.0000 
      6 C1         25.6130   37.7470   34.2010 C.ar      1 B721        0.0000 
      7 C2         26.3330   39.0540   33.9930 C.ar      1 B721        0.0000 
      8 C3         26.5820   39.4410   32.5460 C.ar      1 B721        0.0000 
      9 C17        27.3350   40.7470   32.3190 C.3       1 B721        0.0000 
     10 C4         26.8450   38.2500   31.5830 C.ar      1 B721        0.0000 
     11 C5         26.1890   36.8660   31.8570 C.ar      1 B721        0.0000 
     12 C6         25.8890   36.5610   33.3160 C.ar      1 B721        0.0000 
     13 C18        26.4700   35.6840   30.9280 C.3       1 B721        0.0000 
     14 C7         27.0230   38.6030   30.1100 C.3       1 B721        0.0000 
     15 C8         28.5480   38.6500   29.8610 C.ar      1 B721        0.0000 
     16 C13        29.0520   39.7790   29.0910 C.ar      1 B721        0.0000 
     17 C12        30.4810   39.8400   28.7560 C.ar      1 B721        0.0000 
     18 C14        30.9900   41.0390   27.9320 C.3       1 B721        0.0000 
     19 C16        30.1830   41.1610   26.6390 C.3       1 B721        0.0000 
     20 C15        31.0290   42.3220   28.7780 C.3       1 B721        0.0000 
     21 C11        31.3770   38.7720   29.1960 C.ar      1 B721        0.0000 
     22 O4         32.6850   38.8050   28.7710 O.3       1 B721        0.0000 
     23 C10        30.8520   37.5930   29.9920 C.ar      1 B721        0.0000 
     24 C9         29.4490   37.5360   30.3330 C.ar      1 B721        0.0000 
     25 H          23.9604   35.9259   35.3774 H         1 B721        0.0000 
     26 H          25.6212   35.3638   35.6339 H         1 B721        0.0000 
     27 H          26.6159   39.6056   34.7181 H         1 B721        0.0000 
     28 H          25.8779   35.6608   33.6470 H         1 B721        0.0000 
     29 H          26.6056   39.5656   29.9119 H         1 B721        0.0000 
     30 H          26.5910   37.8428   29.4973 H         1 B721        0.0000 
     31 H          28.4369   40.5070   28.7913 H         1 B721        0.0000 
     32 H          32.0352   40.7962   27.6471 H         1 B721        0.0000 
     33 H          31.4924   36.8820   30.2619 H         1 B721        0.0000 
     34 H          29.0608   36.7964   30.8620 H         1 B721        0.0000 
     35 H          28.2451   40.7277   32.7329 H         1 B721        0.0000 
     36 H          27.4597   40.9394   31.3456 H         1 B721        0.0000 
     37 H          26.8505   41.5283   32.7125 H         1 B721        0.0000 
     38 H          27.4433   35.4561   30.9010 H         1 B721        0.0000 
     39 H          25.9839   34.8597   31.2183 H         1 B721        0.0000 
     40 H          26.1875   35.8751   29.9880 H         1 B721        0.0000 
     41 H          30.4890   41.9329   26.0817 H         1 B721        0.0000 
     42 H          30.2627   40.3407   26.0726 H         1 B721        0.0000 
     43 H          29.2093   41.2983   26.8205 H         1 B721        0.0000 
     44 H          31.6364   42.2284   29.5669 H         1 B721        0.0000 
     45 H          31.3542   43.1059   28.2491 H         1 B721        0.0000 
     46 H          30.1246   42.5616   29.1312 H         1 B721        0.0000 
     47 H          33.1111   37.9002   28.7676 H         1 B721        0.0000 
@<TRIPOS>BOND
     1    2    1 ar   
     2    3    2 ar   
     3    4    2 1    
     4    5    4 1    
     5   25    4 1    
     6   26    4 1    
     7    6    5 1    
     8    7    6 ar   
     9   12    6 ar   
    10    8    7 ar   
    11   27    7 1    
    12    9    8 1    
    13   10    8 ar   
    14   35    9 1    
    15   36    9 1    
    16   37    9 1    
    17   11   10 ar   
    18   14   10 1    
    19   12   11 ar   
    20   13   11 1    
    21   28   12 1    
    22   38   13 1    
    23   39   13 1    
    24   40   13 1    
    25   15   14 1    
    26   29   14 1    
    27   30   14 1    
    28   16   15 ar   
    29   24   15 ar   
    30   17   16 ar   
    31   31   16 1    
    32   18   17 1    
    33   21   17 ar   
    34   19   18 1    
    35   20   18 1    
    36   32   18 1    
    37   41   19 1    
    38   42   19 1    
    39   43   19 1    
    40   44   20 1    
    41   45   20 1    
    42   46   20 1    
    43   22   21 1    
    44   23   21 ar   
    45   47   22 1    
    46   24   23 ar   
    47   33   23 1    
    48   34   24 1    
@<TRIPOS>SUBSTRUCTURE
     1 B721        1 GROUP   
@<TRIPOS>SET

