#    Name: 1WKH_1_CAVITY_N1_6.mol2
#    Modification time : Mon Mar 10 16:29:21 2014

@<TRIPOS>MOLECULE
1WKH_1_CAVITY_N1_6.mol2
  135     0     7     0     0
SMALL
NO_CHARGES


@<TRIPOS>ATOM
      1 NZ         43.1500    4.9685   61.0644 N.2       4 LYS4        0.0000 
      2 N          42.8545    3.5287   60.7650 N.2       2 ALA2        0.0000 
      3 CA         43.6616    3.6253   59.5043 C.3       6 GLY6        0.0000 
      4 NZ         41.4089    6.7212   61.8688 N.2       4 LYS4        0.0000 
      5 OG         42.2160    6.8177   60.6081 O.2       1 SER1        0.0000 
      6 DU         43.0230    6.9143   59.3474 H         7 CUB7        0.0000 
      7 NZ         41.9205    5.3779   60.3087 N.2       4 LYS4        0.0000 
      8 DU         42.7276    5.4745   59.0480 H         7 CUB7        0.0000 
      9 DU         43.5346    5.5710   57.7873 H         7 CUB7        0.0000 
     10 NZ         42.4322    4.0346   58.7487 N.2       4 LYS4        0.0000 
     11 DU         43.2392    4.1312   57.4880 H         7 CUB7        0.0000 
     12 O          42.1368    2.5948   58.4493 O.2       2 ALA2        0.0000 
     13 CA         42.9438    2.6913   57.1886 C.3       6 GLY6        0.0000 
     14 OG         41.2820    8.6669   60.1519 O.2       1 SER1        0.0000 
     15 OG         42.0890    8.7635   58.8911 O.2       1 SER1        0.0000 
     16 DU         42.8960    8.8600   57.6304 H         7 CUB7        0.0000 
     17 OG         40.1795    7.1305   61.1132 O.2       1 SER1        0.0000 
     18 OG         40.9866    7.2271   59.8525 O.2       1 SER1        0.0000 
     19 DU         41.7936    7.3236   58.5918 H         7 CUB7        0.0000 
     20 DU         42.6006    7.4202   57.3311 H         7 CUB7        0.0000 
     21 NZ         40.6911    5.7873   59.5531 N.2       4 LYS4        0.0000 
     22 NZ         41.4982    5.8838   58.2924 N.2       4 LYS4        0.0000 
     23 CA         42.3052    5.9804   57.0317 C.3       6 GLY6        0.0000 
     24 CA         43.1122    6.0769   55.7710 C.3       6 GLY6        0.0000 
     25 NZ         41.2028    4.4440   57.9930 N.2       4 LYS4        0.0000 
     26 OG         42.0098    4.5405   56.7323 O.2       1 SER1        0.0000 
     27 CA         42.8168    4.6371   55.4716 C.3       6 GLY6        0.0000 
     28 CZ         40.9073    3.0042   57.6936 C.ar      5 PHE5        0.0000 
     29 CZ         41.7144    3.1007   56.4329 C.ar      5 PHE5        0.0000 
     30 CZ         42.5214    3.1973   55.1722 C.ar      5 PHE5        0.0000 
     31 O          40.0526    9.0763   59.3962 O.2       2 ALA2        0.0000 
     32 CA         40.8596    9.1728   58.1355 C.3       6 GLY6        0.0000 
     33 DU         41.6666    9.2694   56.8748 H         7 CUB7        0.0000 
     34 O          38.9501    7.5399   60.3575 O.2       2 ALA2        0.0000 
     35 O          39.7572    7.6364   59.0968 O.2       2 ALA2        0.0000 
     36 DU         40.5642    7.7330   57.8361 H         7 CUB7        0.0000 
     37 CA         41.3712    7.8295   56.5754 C.3       6 GLY6        0.0000 
     38 CA         42.1783    7.9261   55.3147 C.3       6 GLY6        0.0000 
     39 NZ         39.4617    6.1966   58.7975 N.2       4 LYS4        0.0000 
     40 OG         40.2688    6.2932   57.5368 O.2       1 SER1        0.0000 
     41 OG         41.0758    6.3897   56.2760 O.2       1 SER1        0.0000 
     42 NZ         39.1663    4.7568   58.4981 N.2       4 LYS4        0.0000 
     43 OG         39.9734    4.8533   57.2374 O.2       1 SER1        0.0000 
     44 NZ         38.8709    3.3170   58.1987 N.2       4 LYS4        0.0000 
     45 CZ         39.6779    3.4135   56.9380 C.ar      5 PHE5        0.0000 
     46 CZ         35.3474    1.4909   62.9422 C.ar      5 PHE5        0.0000 
     47 CA         36.1544    1.5875   61.6814 C.3       6 GLY6        0.0000 
     48 CA         36.9614    1.6840   60.4207 C.3       6 GLY6        0.0000 
     49 NZ         37.7685    1.7806   59.1600 N.2       4 LYS4        0.0000 
     50 CZ         38.5755    1.8771   57.8993 C.ar      5 PHE5        0.0000 
     51 NZ         34.2449   -0.0454   63.9035 N.2       4 LYS4        0.0000 
     52 N          35.0520    0.0511   62.6428 N.2       2 ALA2        0.0000 
     53 O          38.8232    9.4856   58.6406 O.2       2 ALA2        0.0000 
     54 CA         39.6302    9.5822   57.3799 C.3       6 GLY6        0.0000 
     55 CZ         40.4372    9.6787   56.1192 C.ar      5 PHE5        0.0000 
     56 O          38.5278    8.0458   58.3412 O.2       2 ALA2        0.0000 
     57 DU         39.3348    8.1424   57.0805 H         7 CUB7        0.0000 
     58 CZ         40.1418    8.2389   55.8198 C.ar      5 PHE5        0.0000 
     59 CA         40.9489    8.3355   54.5591 C.3       6 GLY6        0.0000 
     60 CZ         36.6183    6.4129   60.5632 C.ar      5 PHE5        0.0000 
     61 NZ         37.4253    6.5094   59.3025 N.2       4 LYS4        0.0000 
     62 DU         38.2323    6.6060   58.0418 H         7 CUB7        0.0000 
     63 OG         39.0394    6.7025   56.7811 O.2       1 SER1        0.0000 
     64 OG         39.8464    6.7991   55.5204 O.2       1 SER1        0.0000 
     65 CZ         36.3229    4.9730   60.2638 C.ar      5 PHE5        0.0000 
     66 NZ         37.1299    5.0696   59.0031 N.2       4 LYS4        0.0000 
     67 CZ         37.9369    5.1661   57.7424 C.ar      5 PHE5        0.0000 
     68 OG         38.7440    5.2627   56.4817 O.2       1 SER1        0.0000 
     69 CZ         36.0274    3.5332   59.9645 C.ar      5 PHE5        0.0000 
     70 NZ         36.8345    3.6298   58.7038 N.2       4 LYS4        0.0000 
     71 CZ         37.6415    3.7263   57.4431 C.ar      5 PHE5        0.0000 
     72 CZ         33.3109    1.8037   63.4472 C.ar      5 PHE5        0.0000 
     73 CZ         34.1180    1.9003   62.1865 C.ar      5 PHE5        0.0000 
     74 CZ         34.9250    1.9968   60.9258 C.ar      5 PHE5        0.0000 
     75 OD1        35.7320    2.0934   59.6651 O.3       3 ASP3        0.0000 
     76 CZ         36.5391    2.1899   58.4044 C.ar      5 PHE5        0.0000 
     77 N          33.0155    0.3639   63.1478 N.2       2 ALA2        0.0000 
     78 OD1        33.8226    0.4605   61.8871 O.3       3 ASP3        0.0000 
     79 OD1        34.6296    0.5570   60.6264 O.3       3 ASP3        0.0000 
     80 N          38.4008    9.9915   56.6242 N.2       2 ALA2        0.0000 
     81 O          36.4913    8.3586   58.8463 O.2       2 ALA2        0.0000 
     82 CA         37.2984    8.4552   57.5855 C.3       6 GLY6        0.0000 
     83 CZ         38.1054    8.5517   56.3248 C.ar      5 PHE5        0.0000 
     84 CZ         35.3889    6.8222   59.8076 C.ar      5 PHE5        0.0000 
     85 O          36.1959    6.9188   58.5469 O.2       2 ALA2        0.0000 
     86 CA         37.0029    7.0153   57.2862 C.3       6 GLY6        0.0000 
     87 CZ         37.8100    7.1119   56.0255 C.ar      5 PHE5        0.0000 
     88 CZ         38.6170    7.2084   54.7648 C.ar      5 PHE5        0.0000 
     89 CZ         35.0935    5.3824   59.5082 C.ar      5 PHE5        0.0000 
     90 DU         35.9005    5.4790   58.2475 H         7 CUB7        0.0000 
     91 CZ         36.7075    5.5755   56.9868 C.ar      5 PHE5        0.0000 
     92 CZ         37.5146    5.6721   55.7261 C.ar      5 PHE5        0.0000 
     93 CZ         34.7980    3.9426   59.2088 C.ar      5 PHE5        0.0000 
     94 OG         35.6051    4.0391   57.9481 O.2       1 SER1        0.0000 
     95 CZ         36.4121    4.1357   56.6874 C.ar      5 PHE5        0.0000 
     96 CZ         32.0815    2.2131   62.6916 C.ar      5 PHE5        0.0000 
     97 CZ         32.8886    2.3096   61.4309 C.ar      5 PHE5        0.0000 
     98 CZ         33.6956    2.4062   60.1702 C.ar      5 PHE5        0.0000 
     99 OG         34.5026    2.5028   58.9095 O.2       1 SER1        0.0000 
    100 CA         31.7861    0.7733   62.3922 C.3       6 GLY6        0.0000 
    101 CA         32.5932    0.8698   61.1315 C.3       6 GLY6        0.0000 
    102 OD1        33.4002    0.9664   59.8708 O.3       3 ASP3        0.0000 
    103 CA         34.1595    7.2316   59.0519 C.3       6 GLY6        0.0000 
    104 O          34.9665    7.3281   57.7912 O.2       2 ALA2        0.0000 
    105 CZ         36.5806    7.5212   55.2698 C.ar      5 PHE5        0.0000 
    106 CZ         33.0570    5.6952   60.0133 C.ar      5 PHE5        0.0000 
    107 CZ         33.8641    5.7918   58.7526 C.ar      5 PHE5        0.0000 
    108 O          34.6711    5.8883   57.4919 O.2       2 ALA2        0.0000 
    109 O          35.4781    5.9849   56.2312 O.2       2 ALA2        0.0000 
    110 N          36.2852    6.0814   54.9704 N.2       2 ALA2        0.0000 
    111 CZ         32.7616    4.2554   59.7139 C.ar      5 PHE5        0.0000 
    112 OG         33.5686    4.3519   58.4532 O.2       1 SER1        0.0000 
    113 OG         34.3757    4.4485   57.1925 O.2       1 SER1        0.0000 
    114 O          35.1827    4.5450   55.9318 O.2       2 ALA2        0.0000 
    115 N          30.8521    2.6225   61.9359 N.2       2 ALA2        0.0000 
    116 CZ         31.6592    2.7190   60.6752 C.ar      5 PHE5        0.0000 
    117 OG         32.4662    2.8156   59.4145 O.2       1 SER1        0.0000 
    118 CA         30.5567    1.1826   61.6366 C.3       6 GLY6        0.0000 
    119 CA         31.3638    1.2792   60.3758 C.3       6 GLY6        0.0000 
    120 OG         32.1708    1.3757   59.1151 O.2       1 SER1        0.0000 
    121 CA         31.0206    6.0080   60.5183 C.3       6 GLY6        0.0000 
    122 CA         31.8276    6.1046   59.2576 C.3       6 GLY6        0.0000 
    123 CA         32.6347    6.2011   57.9969 C.3       6 GLY6        0.0000 
    124 CA         30.7252    4.5682   60.2190 C.3       6 GLY6        0.0000 
    125 OG         31.5322    4.6647   58.9583 O.2       1 SER1        0.0000 
    126 O          32.3392    4.7613   57.6975 O.2       2 ALA2        0.0000 
    127 O          30.4298    3.1284   59.9196 O.2       2 ALA2        0.0000 
    128 OG         31.2368    3.2249   58.6589 O.2       1 SER1        0.0000 
    129 CA         30.1343    1.6885   59.6202 C.3       6 GLY6        0.0000 
    130 OG         30.9414    1.7851   58.3595 O.2       1 SER1        0.0000 
    131 CA         30.5982    6.5139   58.5020 C.3       6 GLY6        0.0000 
    132 CA         29.4958    4.9776   59.4633 C.3       6 GLY6        0.0000 
    133 O          30.3028    5.0741   58.2026 O.2       2 ALA2        0.0000 
    134 O          30.0074    3.6343   57.9032 O.2       2 ALA2        0.0000 
    135 O          29.7120    2.1944   57.6039 O.2       2 ALA2        0.0000 
@<TRIPOS>BOND
@<TRIPOS>SUBSTRUCTURE
     1 SER1        5 GROUP   
     2 ALA2        2 GROUP   
     3 ASP3       75 GROUP   
     4 LYS4        1 GROUP   
     5 PHE5       28 GROUP   
     6 GLY6        3 GROUP   
     7 CUB7        6 GROUP   
@<TRIPOS>SET

