#    Name: 1wkh_PPE_1_INTS_M
#    Modification time : Tue Mar 25 09:05:53 2014

@<TRIPOS>MOLECULE
1wkh_PPE_1_INTS_M
   61     0     9     0     0
SMALL
NO_CHARGES


@<TRIPOS>ATOM
      1 N          30.4250    0.4780   64.6520 N.am      1 SEC2        0.0000 
      2 N          31.2480    0.8350   63.5720 N.am      7 SEL2        0.0000 
      3 N          29.6020    0.1210   65.7320 N.am      4 SEP2        0.0000 
      4 CA         32.9330   -1.1150   66.3340 C.3       3 GLC5        0.0000 
      5 CA         32.7580   -0.7620   64.4880 C.3       9 GLL5        0.0000 
      6 CA         33.1080   -1.4680   68.1800 C.3       6 GLP5        0.0000 
      7 CA         33.5545   -2.2995   63.2060 C.3       3 GLC5        0.0000 
      8 CA         34.3510   -3.8370   61.9240 C.3       6 GLP5        0.0000 
      9 CA         33.8145    3.5325   61.1600 C.3       3 GLC5        0.0000 
     10 CA         33.6770    2.1450   60.0770 C.3       9 GLL5        0.0000 
     11 CA         33.9520    4.9200   62.2430 C.3       6 GLP5        0.0000 
     12 CA         30.6280    2.9015   64.3480 C.3       3 GLC5        0.0000 
     13 CA         30.7400    1.7890   62.7260 C.3       9 GLL5        0.0000 
     14 CA         30.5160    4.0140   65.9700 C.3       6 GLP5        0.0000 
     15 CA         29.3690    0.7765   62.6280 C.3       3 GLC5        0.0000 
     16 CA         27.9980   -0.2360   62.5300 C.3       6 GLP5        0.0000 
     17 CA         29.0180    2.3790   60.3080 C.3       3 GLC5        0.0000 
     18 CA         30.7960    3.2460   60.7960 C.3       9 GLL5        0.0000 
     19 CA         27.2400    1.5120   59.8200 C.3       6 GLP5        0.0000 
     20 CA         28.8395    4.1275   61.0035 C.3       3 GLC5        0.0000 
     21 CA         26.8830    5.0090   61.2110 C.3       6 GLP5        0.0000 
     22 CA         32.3740    4.0830   61.5195 C.3       3 GLC5        0.0000 
     23 CA         30.5055    4.7710   61.8740 C.3       3 GLC5        0.0000 
     24 CA         30.2150    6.2960   62.9520 C.3       6 GLP5        0.0000 
     25 N          28.3370    2.2015   57.8375 N.am      1 SEC2        0.0000 
     26 N          29.6020    2.4970   57.2380 N.am      7 SEL2        0.0000 
     27 N          27.0720    1.9060   58.4370 N.am      4 SEP2        0.0000 
     28 N          32.0920    4.2415   56.6170 N.am      1 SEC2        0.0000 
     29 N          31.5960    3.8650   58.0330 N.am      7 SEL2        0.0000 
     30 N          32.5880    4.6180   55.2010 N.am      4 SEP2        0.0000 
     31 N          32.4335    3.0050   57.3295 N.am      1 SEC2        0.0000 
     32 N          33.2710    2.1450   56.6260 N.am      4 SEP2        0.0000 
     33 N          28.2225    4.2095   59.3475 N.am      1 SEC2        0.0000 
     34 N          29.2080    4.5680   58.2830 N.am      7 SEL2        0.0000 
     35 N          27.2370    3.8510   60.4120 N.am      4 SEP2        0.0000 
     36 CA         36.5880    0.7010   57.4175 C.3       3 GLC5        0.0000 
     37 CA         36.0360    1.6580   59.2220 C.3       9 GLL5        0.0000 
     38 CA         37.1400   -0.2560   55.6130 C.3       6 GLP5        0.0000 
     39 CA         36.6520    2.5320   56.5900 C.3       3 GLC5        0.0000 
     40 CA         36.0620    2.9170   58.3290 C.3       9 GLL5        0.0000 
     41 CA         37.2420    2.1470   54.8510 C.3       6 GLP5        0.0000 
     42 CA         35.0760    4.5855   60.6545 C.3       3 GLC5        0.0000 
     43 CA         36.2000    4.2510   59.0660 C.3       9 GLL5        0.0000 
     44 NZ         38.6590    0.3215   61.0955 N.4       2 LYC4        0.0000 
     45 NZ         37.6080    1.4580   61.0290 N.4       8 LYL4        0.0000 
     46 NZ         40.9500   -0.4600   60.8520 N.4       5 LYP4        0.0000 
     47 N          38.6590    0.3215   61.0955 N.am      1 SEC2        0.0000 
     48 N          37.6080    1.4580   61.0290 N.am      7 SEL2        0.0000 
     49 N          39.7100   -0.8150   61.1620 N.am      4 SEP2        0.0000 
     50 NZ         39.7015    0.2315   59.8435 N.4       2 LYC4        0.0000 
     51 NZ         38.4530    0.9230   58.8350 N.4       8 LYL4        0.0000 
     52 CA         31.0833   -1.1707   62.8020 C.3       3 GLC5        0.0000 
     53 CA         32.5050    0.2530   63.3820 C.3       9 GLL5        0.0000 
     54 CA         29.5350   -2.0870   61.6690 C.3       6 GLP5        0.0000 
     55 CA         33.4832    0.5860   59.1917 C.3       3 GLC5        0.0000 
     56 CA         32.8460    1.6850   61.2940 C.3       9 GLL5        0.0000 
     57 CA         33.7050   -0.7430   57.6980 C.3       6 GLP5        0.0000 
     58 CA         31.1883    0.0762   61.0184 C.3       3 GLC5        0.0000 
     59 CA         33.3040    0.6950   62.2250 C.3       9 GLL5        0.0000 
     60 CA         30.0790   -1.5360   60.3400 C.3       6 GLP5        0.0000 
     61 CA         34.8770    0.7722   58.2368 C.3       3 GLC5        0.0000 
@<TRIPOS>BOND
@<TRIPOS>SUBSTRUCTURE
     1 SEC2        1 GROUP        1 X    SEC  0     ROOT SEC X 2
     2 LYC4       44 GROUP        1 X    LYC  0     **** LYC X 4
     3 GLC5        4 GROUP        1 X    GLC  0     **** GLC X 6
     4 SEP2        3 GROUP        1 Y    SEP  0     ROOT SEP Y 9
     5 LYP4       46 GROUP        1 Y    LYP  0     **** LYP Y 11
     6 GLP5        6 GROUP        1 Y    GLP  0     **** GLP Y 13
     7 SEL2        2 GROUP        1 Z    SEL  0     ROOT SEL Z 16
     8 LYL4       45 GROUP        1 Z    LYL  0     **** LYL Z 18
     9 GLL5        5 GROUP        1 Z    GLL  0     **** GLL Z 20
@<TRIPOS>SET

