#    Name: 1wkh_PPE_1_ligand
#    Modification time : Tue Mar 25 09:05:53 2014

@<TRIPOS>MOLECULE
1wkh_PPE_1_ligand
   39    39     1     0     0
SMALL
NO_CHARGES


@<TRIPOS>ATOM
      1 N1         31.2480    0.8350   63.5720 N.ar      1 PPE513      0.0000 
      2 C2         32.5050    0.2530   63.3820 C.ar      1 PPE513      0.0000 
      3 C2A        32.7580   -0.7620   64.4880 C.3       1 PPE513      0.0000 
      4 C3         33.3040    0.6950   62.2250 C.ar      1 PPE513      0.0000 
      5 O3         34.5050    0.0440   62.1680 O.3       1 PPE513      0.0000 
      6 C4         32.8460    1.6850   61.2940 C.ar      1 PPE513      0.0000 
      7 C4A        33.6770    2.1450   60.0770 C.3       1 PPE513      0.0000 
      8 C5         31.5200    2.1870   61.6340 C.ar      1 PPE513      0.0000 
      9 C6         30.7400    1.7890   62.7260 C.ar      1 PPE513      0.0000 
     10 C5A        30.7960    3.2460   60.7960 C.3       1 PPE513      0.0000 
     11 OP4        30.1030    2.7760   59.6920 O.3       1 PPE513      0.0000 
     12 P          30.1550    3.4050   58.2080 P.3       1 PPE513      0.0000 
     13 OP1        29.6020    2.4970   57.2380 O.co2     1 PPE513      0.0000 
     14 OP2        31.5960    3.8650   58.0330 O.co2     1 PPE513      0.0000 
     15 OP3        29.2080    4.5680   58.2830 O.co2     1 PPE513      0.0000 
     16 NA         35.1380    1.8320   60.4450 N.4       1 PPE513      0.0000 
     17 CAA        36.0360    1.6580   59.2220 C.3       1 PPE513      0.0000 
     18 CBA        36.0620    2.9170   58.3290 C.3       1 PPE513      0.0000 
     19 CGA        36.2000    4.2510   59.0660 C.3       1 PPE513      0.0000 
     20 CDA        36.8010    5.2880   58.1490 C.2       1 PPE513      0.0000 
     21 OE1        36.0720    5.6760   57.2420 O.co2     1 PPE513      0.0000 
     22 OE2        37.9830    5.6090   58.4570 O.co2     1 PPE513      0.0000 
     23 CA         37.4740    1.3150   59.6640 C.2       1 PPE513      0.0000 
     24 OA         37.6080    1.4580   61.0290 O.co2     1 PPE513      0.0000 
     25 OXT        38.4530    0.9230   58.8350 O.co2     1 PPE513      0.0000 
     26 H          33.5582    3.1923   59.9418 H         1 PPE513      0.0000 
     27 H          33.3946    1.5817   59.2213 H         1 PPE513      0.0000 
     28 H          29.8234    2.2031   62.8775 H         1 PPE513      0.0000 
     29 H          31.5757    4.0095   60.5112 H         1 PPE513      0.0000 
     30 H          30.1249    3.8066   61.5082 H         1 PPE513      0.0000 
     31 H          35.6675    0.8286   58.6290 H         1 PPE513      0.0000 
     32 H          35.1336    2.9355   57.7240 H         1 PPE513      0.0000 
     33 H          36.8979    2.8169   57.6082 H         1 PPE513      0.0000 
     34 H          36.8396    4.1110   59.9339 H         1 PPE513      0.0000 
     35 H          35.2165    4.5761   59.3960 H         1 PPE513      0.0000 
     36 H          33.6516   -1.2005   64.3924 H         1 PPE513      0.0000 
     37 H          32.7349   -0.3382   65.3934 H         1 PPE513      0.0000 
     38 H          32.0727   -1.4902   64.4877 H         1 PPE513      0.0000 
     39 H          34.9295    0.2059   63.0588 H         1 PPE513      0.0000 
@<TRIPOS>BOND
     1    2    1 ar   
     2    9    1 ar   
     3    3    2 1    
     4    4    2 ar   
     5   36    3 1    
     6   37    3 1    
     7   38    3 1    
     8    5    4 1    
     9    6    4 ar   
    10   39    5 1    
    11    7    6 1    
    12    8    6 ar   
    13   16    7 1    
    14   26    7 1    
    15   27    7 1    
    16    9    8 ar   
    17   10    8 1    
    18   28    9 1    
    19   11   10 1    
    20   29   10 1    
    21   30   10 1    
    22   12   11 1    
    23   13   12 ar   
    24   14   12 ar   
    25   15   12 ar   
    26   17   16 1    
    27   18   17 1    
    28   23   17 1    
    29   31   17 1    
    30   19   18 1    
    31   32   18 1    
    32   33   18 1    
    33   20   19 1    
    34   34   19 1    
    35   35   19 1    
    36   21   20 ar   
    37   22   20 ar   
    38   24   23 ar   
    39   25   23 ar   
@<TRIPOS>SUBSTRUCTURE
     1 PPE513      1 GROUP   
@<TRIPOS>SET

