#    Name: 3iam_NAI_4_INTS_M
#    Modification time : Tue Mar 25 16:09:30 2014

@<TRIPOS>MOLECULE
3iam_NAI_4_INTS_M
   53     0    12     0     0
SMALL
NO_CHARGES


@<TRIPOS>ATOM
      1 NZ         23.0880  -11.5745  139.8500 N.4       3 LYC4        0.0000 
      2 NZ         24.1570  -10.7740  140.0440 N.4      11 LYL4        0.0000 
      3 NZ         22.0190  -12.3750  139.6560 N.4       7 LYP4        0.0000 
      4 N          23.0880  -11.5745  139.8500 N.am      2 SEC2        0.0000 
      5 N          24.1570  -10.7740  140.0440 N.am     10 SEL2        0.0000 
      6 N          22.0190  -12.3750  139.6560 N.am      6 SEP2        0.0000 
      7 N          21.3210  -12.5020  146.0770 N.am      2 SEC2        0.0000 
      8 N          22.0390  -11.7680  144.8460 N.am     10 SEL2        0.0000 
      9 N          20.6030  -13.2360  147.3080 N.am      6 SEP2        0.0000 
     10 O          22.4885  -13.0010  144.5805 O.2       1 ALC1        0.0000 
     11 O          22.0390  -11.7680  144.8460 O.2       9 ALL1        0.0000 
     12 O          22.9380  -14.2340  144.3150 O.2       5 ALP1        0.0000 
     13 CA         20.3950   -7.9750  143.7895 C.3       4 GLC5        0.0000 
     14 CA         20.3510   -9.7880  143.1900 C.3      12 GLL5        0.0000 
     15 CA         20.4390   -6.1620  144.3890 C.3       8 GLP5        0.0000 
     16 CA         15.9675  -12.7520  141.4725 C.3       4 GLC5        0.0000 
     17 CA         15.8970  -10.8120  142.3270 C.3      12 GLL5        0.0000 
     18 CA         16.0380  -14.6920  140.6180 C.3       8 GLP5        0.0000 
     19 N          25.5695  -12.5105  144.6890 N.am      2 SEC2        0.0000 
     20 N          25.8340  -11.9190  143.1770 N.am     10 SEL2        0.0000 
     21 N          25.3050  -13.1020  146.2010 N.am      6 SEP2        0.0000 
     22 CA         30.3995  -12.0215  145.1870 C.3       4 GLC5        0.0000 
     23 CA         31.7540  -10.5140  144.8460 C.3      12 GLL5        0.0000 
     24 CA         29.0450  -13.5290  145.5280 C.3       8 GLP5        0.0000 
     25 CA         30.9705  -12.7420  146.0610 C.3       4 GLC5        0.0000 
     26 CA         32.8960  -11.9550  146.5940 C.3      12 GLL5        0.0000 
     27 N          36.2320  -14.7915  148.1035 N.am      2 SEC2        0.0000 
     28 N          34.7330  -14.2080  148.7190 N.am     10 SEL2        0.0000 
     29 N          37.7310  -15.3750  147.4880 N.am      6 SEP2        0.0000 
     30 CA         24.7495   -9.1675  144.4845 C.3       4 GLC5        0.0000 
     31 CA         23.8210   -9.6040  143.1090 C.3      12 GLL5        0.0000 
     32 CA         26.3440   -8.6240  145.5730 C.3       8 GLP5        0.0000 
     33 CA         22.5645   -8.3200  144.7970 C.3       4 GLC5        0.0000 
     34 CA         21.9740   -6.9290  146.1980 C.3       8 GLP5        0.0000 
     35 CA         21.9275  -12.4530  141.6653 C.3       4 GLC5        0.0000 
     36 CA         22.0520  -11.1500  143.6100 C.3      12 GLL5        0.0000 
     37 CA         22.4360  -13.7820  139.9960 C.3       8 GLP5        0.0000 
     38 CA         19.5138  -11.1965  141.4433 C.3       4 GLC5        0.0000 
     39 CA         20.7860  -11.0980  143.0590 C.3      12 GLL5        0.0000 
     40 CA         18.4590  -11.9500  139.7620 C.3       8 GLP5        0.0000 
     41 CA         28.6255   -8.7658  144.2952 C.3       4 GLC5        0.0000 
     42 CA         29.3240  -10.0830  142.3810 C.3      12 GLL5        0.0000 
     43 CA         27.4910   -7.6030  145.6350 C.3       8 GLP5        0.0000 
     44 CA         29.9645  -11.9838  142.9518 C.3       4 GLC5        0.0000 
     45 CA         30.1960   -9.7740  143.5300 C.3      12 GLL5        0.0000 
     46 CA         30.1690  -14.0390  142.9480 C.3       8 GLP5        0.0000 
     47 CA         31.2937   -9.0715  146.1407 C.3       4 GLC5        0.0000 
     48 CA         30.5380   -8.0970  147.8360 C.3       8 GLP5        0.0000 
     49 CA         33.7150  -11.1423  147.9117 C.3       4 GLC5        0.0000 
     50 CA         34.1140   -9.8380  149.0560 C.3       8 GLP5        0.0000 
     51 CA         35.6876  -13.1246  146.3544 C.3       4 GLC5        0.0000 
     52 CA         33.7360  -12.9380  146.9410 C.3      12 GLL5        0.0000 
     53 CA         37.2330  -12.9810  147.3110 C.3       8 GLP5        0.0000 
@<TRIPOS>BOND
@<TRIPOS>SUBSTRUCTURE
     1 ALC1       10 GROUP        1 X    ALC  0     ROOT ALC X 1
     2 SEC2        4 GROUP        1 X    SEC  0     **** SEC X 2
     3 LYC4        1 GROUP        1 X    LYC  0     **** LYC X 4
     4 GLC5       13 GROUP        1 X    GLC  0     **** GLC X 6
     5 ALP1       12 GROUP        1 Y    ALP  0     ROOT ALP Y 8
     6 SEP2        6 GROUP        1 Y    SEP  0     **** SEP Y 9
     7 LYP4        3 GROUP        1 Y    LYP  0     **** LYP Y 11
     8 GLP5       15 GROUP        1 Y    GLP  0     **** GLP Y 13
     9 ALL1       11 GROUP        1 Z    ALL  0     ROOT ALL Z 15
    10 SEL2        5 GROUP        1 Z    SEL  0     **** SEL Z 16
    11 LYL4        2 GROUP        1 Z    LYL  0     **** LYL Z 18
    12 GLL5       14 GROUP        1 Z    GLL  0     **** GLL Z 20
@<TRIPOS>SET

