#    Name: 3iam_NAI_4_ligand
#    Modification time : Tue Mar 25 16:09:30 2014

@<TRIPOS>MOLECULE
3iam_NAI_4_ligand
   71    75     1     0     0
SMALL
NO_CHARGES


@<TRIPOS>ATOM
      1 PA         24.8900   -9.4620  140.7110 P.3       1 NAI441      0.0000 
      2 O1A        25.1500   -8.5210  139.6460 O.co2     1 NAI441      0.0000 
      3 O2A        24.1570  -10.7740  140.0440 O.co2     1 NAI441      0.0000 
      4 O5B        23.8740   -8.8790  141.8810 O.3       1 NAI441      0.0000 
      5 C5B        23.8210   -9.6040  143.1090 C.3       1 NAI441      0.0000 
      6 C4B        22.4890   -9.8180  143.6830 C.3       1 NAI441      0.0000 
      7 O4B        21.4710   -9.0240  143.1560 O.3       1 NAI441      0.0000 
      8 C3B        22.0520  -11.1500  143.6100 C.3       1 NAI441      0.0000 
      9 O3B        22.0390  -11.7680  144.8460 O.3       1 NAI441      0.0000 
     10 C2B        20.7860  -11.0980  143.0590 C.3       1 NAI441      0.0000 
     11 O2B        19.9700  -11.9860  143.7100 O.3       1 NAI441      0.0000 
     12 C1B        20.3510   -9.7880  143.1900 C.3       1 NAI441      0.0000 
     13 N9A        19.4150   -9.3420  142.1580 N.pl3     1 NAI441      0.0000 
     14 C8A        19.7330   -8.3730  141.0610 C.2       1 NAI441      0.0000 
     15 N7A        18.6270   -8.1980  140.2970 N.2       1 NAI441      0.0000 
     16 C5A        17.5060   -9.0710  140.8670 C.ar      1 NAI441      0.0000 
     17 C6A        16.0290   -9.2980  140.4380 C.ar      1 NAI441      0.0000 
     18 N6A        15.4900   -8.6810  139.2030 N.pl3     1 NAI441      0.0000 
     19 N1A        15.3170  -10.0760  141.1000 N.ar      1 NAI441      0.0000 
     20 C2A        15.8970  -10.8120  142.3270 C.ar      1 NAI441      0.0000 
     21 N3A        17.1880  -10.6100  142.6970 N.ar      1 NAI441      0.0000 
     22 C4A        18.0080   -9.7350  141.9710 C.ar      1 NAI441      0.0000 
     23 O3         26.3600   -9.8150  141.4500 O.3       1 NAI441      0.0000 
     24 PN         26.8630  -11.3020  142.0260 P.3       1 NAI441      0.0000 
     25 O1N        25.8340  -11.9190  143.1770 O.co2     1 NAI441      0.0000 
     26 O2N        26.8710  -12.2270  140.9100 O.co2     1 NAI441      0.0000 
     27 O5D        28.4260  -11.1630  142.6630 O.3       1 NAI441      0.0000 
     28 C5D        29.3240  -10.0830  142.3810 C.3       1 NAI441      0.0000 
     29 C4D        30.1960   -9.7740  143.5300 C.3       1 NAI441      0.0000 
     30 O4D        30.6200  -10.9060  144.1980 O.3       1 NAI441      0.0000 
     31 C3D        31.3250   -9.1070  143.1520 C.3       1 NAI441      0.0000 
     32 O3D        31.1420   -7.7320  143.1380 O.3       1 NAI441      0.0000 
     33 C2D        32.3450   -9.5780  144.0450 C.3       1 NAI441      0.0000 
     34 O2D        32.9650   -8.5920  144.7810 O.3       1 NAI441      0.0000 
     35 C1D        31.7540  -10.5140  144.8460 C.3       1 NAI441      0.0000 
     36 N1N        32.6230  -11.5440  145.1880 N.pl3     1 NAI441      0.0000 
     37 C2N        32.8960  -11.9550  146.5940 C.2       1 NAI441      0.0000 
     38 C3N        33.7360  -12.9380  146.9410 C.2       1 NAI441      0.0000 
     39 C7N        33.9770  -13.3320  148.4340 C.2       1 NAI441      0.0000 
     40 O7N        34.7330  -14.2080  148.7190 O.2       1 NAI441      0.0000 
     41 N7N        33.3050  -12.6640  149.5160 N.am      1 NAI441      0.0000 
     42 C4N        34.5010  -13.7110  145.8500 C.3       1 NAI441      0.0000 
     43 C5N        34.1660  -13.2120  144.4000 C.2       1 NAI441      0.0000 
     44 C6N        33.3110  -12.2280  144.1600 C.2       1 NAI441      0.0000 
     45 H          24.4653   -9.0929  143.8855 H         1 NAI441      0.0000 
     46 H          24.3203  -10.6110  142.9830 H         1 NAI441      0.0000 
     47 H          22.5693   -9.5668  144.7928 H         1 NAI441      0.0000 
     48 H          22.7181  -11.6946  142.9153 H         1 NAI441      0.0000 
     49 H          20.8560  -11.3519  141.9895 H         1 NAI441      0.0000 
     50 H          19.8577   -9.6618  144.1750 H         1 NAI441      0.0000 
     51 H          20.5889   -7.9902  140.9829 H         1 NAI441      0.0000 
     52 H          16.1238   -8.1060  138.6856 H         1 NAI441      0.0000 
     53 H          14.5361   -8.8896  138.9870 H         1 NAI441      0.0000 
     54 H          15.2490  -11.4285  142.8022 H         1 NAI441      0.0000 
     55 H          28.7585   -9.1684  142.1040 H         1 NAI441      0.0000 
     56 H          29.9598  -10.3241  141.5031 H         1 NAI441      0.0000 
     57 H          29.6114   -9.1394  144.2299 H         1 NAI441      0.0000 
     58 H          31.6091   -9.4628  142.1275 H         1 NAI441      0.0000 
     59 H          33.1077  -10.1047  143.4064 H         1 NAI441      0.0000 
     60 H          31.4394   -9.9833  145.7980 H         1 NAI441      0.0000 
     61 H          32.3658  -11.4011  147.3152 H         1 NAI441      0.0000 
     62 H          32.6456  -11.9586  149.2559 H         1 NAI441      0.0000 
     63 H          33.5532  -12.9606  150.4382 H         1 NAI441      0.0000 
     64 H          34.2504  -14.7717  145.9133 H         1 NAI441      0.0000 
     65 H          35.5750  -13.5987  146.0109 H         1 NAI441      0.0000 
     66 H          34.6841  -13.7352  143.6727 H         1 NAI441      0.0000 
     67 H          33.1102  -11.9147  143.1724 H         1 NAI441      0.0000 
     68 H          22.4127  -12.6810  144.6826 H         1 NAI441      0.0000 
     69 H          20.4928  -12.2787  144.5106 H         1 NAI441      0.0000 
     70 H          31.7703   -7.3804  143.8320 H         1 NAI441      0.0000 
     71 H          32.6408   -8.7258  145.7175 H         1 NAI441      0.0000 
@<TRIPOS>BOND
     1    2    1 ar   
     2    3    1 ar   
     3    4    1 1    
     4   23    1 1    
     5    5    4 1    
     6    6    5 1    
     7   45    5 1    
     8   46    5 1    
     9    7    6 1    
    10    8    6 1    
    11   47    6 1    
    12   12    7 1    
    13    9    8 1    
    14   10    8 1    
    15   48    8 1    
    16   68    9 1    
    17   11   10 1    
    18   12   10 1    
    19   49   10 1    
    20   69   11 1    
    21   13   12 1    
    22   50   12 1    
    23   14   13 1    
    24   22   13 1    
    25   15   14 2    
    26   51   14 1    
    27   16   15 1    
    28   17   16 ar   
    29   22   16 ar   
    30   18   17 1    
    31   19   17 ar   
    32   52   18 1    
    33   53   18 1    
    34   20   19 ar   
    35   21   20 ar   
    36   54   20 1    
    37   22   21 ar   
    38   24   23 1    
    39   25   24 ar   
    40   26   24 ar   
    41   27   24 1    
    42   28   27 1    
    43   29   28 1    
    44   55   28 1    
    45   56   28 1    
    46   30   29 1    
    47   31   29 1    
    48   57   29 1    
    49   35   30 1    
    50   32   31 1    
    51   33   31 1    
    52   58   31 1    
    53   70   32 1    
    54   34   33 1    
    55   35   33 1    
    56   59   33 1    
    57   71   34 1    
    58   36   35 1    
    59   60   35 1    
    60   37   36 1    
    61   44   36 1    
    62   38   37 2    
    63   61   37 1    
    64   39   38 1    
    65   42   38 1    
    66   40   39 2    
    67   41   39 am   
    68   62   41 1    
    69   63   41 1    
    70   43   42 1    
    71   64   42 1    
    72   65   42 1    
    73   44   43 2    
    74   66   43 1    
    75   67   44 1    
@<TRIPOS>SUBSTRUCTURE
     1 NAI441      1 GROUP   
@<TRIPOS>SET

