#    Name: 1U3F_1_CAVITY_N1_6.mol2
#    Modification time : Tue Mar 11 12:59:46 2014

@<TRIPOS>MOLECULE
1U3F_1_CAVITY_N1_6.mol2
   44     0     6     0     0
SMALL
NO_CHARGES


@<TRIPOS>ATOM
      1 CA         -3.5834   14.7064   23.2728 C.3       5 GLY6        0.0000 
      2 OD1        -4.4470   13.9423   22.3135 O.3       2 ASP3        0.0000 
      3 CA         -3.8581   16.4653   22.1192 C.3       5 GLY6        0.0000 
      4 CA         -2.8645   15.3416   22.1197 C.3       5 GLY6        0.0000 
      5 OD1        -3.7280   14.5775   21.1604 O.3       2 ASP3        0.0000 
      6 CZ         -6.6039   12.0367   25.7727 C.ar      4 PHE5        0.0000 
      7 CZ         -6.4738   10.1489   24.8139 C.ar      4 PHE5        0.0000 
      8 CA         -6.3437    8.2611   23.8551 C.3       5 GLY6        0.0000 
      9 N          -5.1515   15.3238   26.5378 N.2       1 ALA2        0.0000 
     10 O          -6.0150   14.5597   25.5785 O.2       1 ALA2        0.0000 
     11 N          -5.0214   13.4360   25.5790 N.2       1 ALA2        0.0000 
     12 O          -5.8849   12.6719   24.6197 O.2       1 ALA2        0.0000 
     13 N          -4.8913   11.5482   24.6202 N.2       1 ALA2        0.0000 
     14 O          -3.8976   10.4246   24.6208 O.2       1 ALA2        0.0000 
     15 O          -6.7485   11.9078   23.6603 O.2       1 ALA2        0.0000 
     16 OD1        -5.7549   10.7841   23.6608 O.3       2 ASP3        0.0000 
     17 CA         -4.7612    9.6604   23.6614 C.3       5 GLY6        0.0000 
     18 O           1.0196   18.7754   20.5792 O.2       1 ALA2        0.0000 
     19 CZ          2.0132   17.6517   20.5798 C.ar      4 PHE5        0.0000 
     20 CA         -5.2960   15.1949   24.4254 C.3       5 GLY6        0.0000 
     21 N          -4.3024   14.0712   24.4259 N.2       1 ALA2        0.0000 
     22 O          -6.1596   14.4308   23.4660 O.2       1 ALA2        0.0000 
     23 O          -5.1660   13.3071   23.4666 O.2       1 ALA2        0.0000 
     24 O          -4.1723   12.1834   23.4671 O.2       1 ALA2        0.0000 
     25 OD1        -5.0359   11.4193   22.5078 O.3       2 ASP3        0.0000 
     26 CZ          2.3024   17.9096   24.8047 C.ar      4 PHE5        0.0000 
     27 CZ          0.4452   18.2691   23.8448 C.ar      4 PHE5        0.0000 
     28 O           1.4389   17.1455   23.8453 O.2       1 ALA2        0.0000 
     29 O          -0.4184   17.5050   22.8854 O.2       1 ALA2        0.0000 
     30 O           0.5753   16.3813   22.8860 O.2       1 ALA2        0.0000 
     31 CA         -2.2756   17.8646   21.9255 C.3       5 GLY6        0.0000 
     32 O          -1.2819   16.7409   21.9260 O.2       1 ALA2        0.0000 
     33 NZ         -3.1391   17.1005   20.9661 N.2       3 LYS4        0.0000 
     34 CA         -2.1455   15.9768   20.9667 C.3       5 GLY6        0.0000 
     35 OD1        -4.0027   16.3364   20.0067 O.3       2 ASP3        0.0000 
     36 CA          0.1705   20.0280   22.6911 C.3       5 GLY6        0.0000 
     37 CZ          1.1642   18.9043   22.6917 C.ar      4 PHE5        0.0000 
     38 CA          2.1578   17.7807   22.6922 C.3       5 GLY6        0.0000 
     39 O          -0.6930   19.2639   21.7317 O.2       1 ALA2        0.0000 
     40 O           0.3006   18.1402   21.7323 O.2       1 ALA2        0.0000 
     41 O           1.2943   17.0165   21.7329 O.2       1 ALA2        0.0000 
     42 O          -0.5630   17.3761   20.7729 O.2       1 ALA2        0.0000 
     43 DU          1.8831   19.5395   21.5386 H         6 CUB7        0.0000 
     44 CZ          2.8768   18.4158   21.5391 C.ar      4 PHE5        0.0000 
@<TRIPOS>BOND
@<TRIPOS>SUBSTRUCTURE
     1 ALA2        9 GROUP   
     2 ASP3        2 GROUP   
     3 LYS4       33 GROUP   
     4 PHE5        6 GROUP   
     5 GLY6        1 GROUP   
     6 CUB7       43 GROUP   
@<TRIPOS>SET

