#    Name: 1U3F_1_CAVITY_N1_ALL.mol2
#    Modification time : Tue Mar 11 12:59:46 2014

@<TRIPOS>MOLECULE
1U3F_1_CAVITY_N1_ALL.mol2
   72     0     6     0     0
SMALL
NO_CHARGES


@<TRIPOS>ATOM
      1 CA         -3.5834   14.7064   23.2728 C.3       5 GLY6        0.0000 
      2 OD1        -4.4470   13.9423   22.3135 O.3       2 ASP3        0.0000 
      3 CA         -3.8581   16.4653   22.1192 C.3       5 GLY6        0.0000 
      4 CA         -2.8645   15.3416   22.1197 C.3       5 GLY6        0.0000 
      5 OD1        -3.7280   14.5775   21.1604 O.3       2 ASP3        0.0000 
      6 CZ         -6.6039   12.0367   25.7727 C.ar      4 PHE5        0.0000 
      7 CZ         -6.4738   10.1489   24.8139 C.ar      4 PHE5        0.0000 
      8 CA         -6.3437    8.2611   23.8551 C.3       5 GLY6        0.0000 
      9 N          -5.1515   15.3238   26.5378 N.2       1 ALA2        0.0000 
     10 O          -6.0150   14.5597   25.5785 O.2       1 ALA2        0.0000 
     11 N          -5.0214   13.4360   25.5790 N.2       1 ALA2        0.0000 
     12 O          -5.8849   12.6719   24.6197 O.2       1 ALA2        0.0000 
     13 N          -4.8913   11.5482   24.6202 N.2       1 ALA2        0.0000 
     14 O          -3.8976   10.4246   24.6208 O.2       1 ALA2        0.0000 
     15 O          -6.7485   11.9078   23.6603 O.2       1 ALA2        0.0000 
     16 OD1        -5.7549   10.7841   23.6608 O.3       2 ASP3        0.0000 
     17 CA         -4.7612    9.6604   23.6614 C.3       5 GLY6        0.0000 
     18 O           1.0196   18.7754   20.5792 O.2       1 ALA2        0.0000 
     19 CZ          2.0132   17.6517   20.5798 C.ar      4 PHE5        0.0000 
     20 CA          5.1928   22.4671   23.2636 C.3       5 GLY6        0.0000 
     21 CA          3.3356   22.8266   22.3037 C.3       5 GLY6        0.0000 
     22 CA          4.3292   21.7029   22.3042 C.3       5 GLY6        0.0000 
     23 DU          6.3165   19.4556   22.3053 H         6 CUB7        0.0000 
     24 CZ          2.4720   22.0625   21.3443 C.ar      4 PHE5        0.0000 
     25 DU          3.4657   20.9388   21.3449 H         6 CUB7        0.0000 
     26 DU          4.4593   19.8151   21.3454 H         6 CUB7        0.0000 
     27 CZ          5.4530   18.6915   21.3460 C.ar      4 PHE5        0.0000 
     28 CZ          2.6021   20.1747   20.3855 C.ar      4 PHE5        0.0000 
     29 CZ          3.5958   19.0510   20.3860 C.ar      4 PHE5        0.0000 
     30 O           1.7385   19.4106   19.4261 O.2       1 ALA2        0.0000 
     31 CA         -5.2960   15.1949   24.4254 C.3       5 GLY6        0.0000 
     32 N          -4.3024   14.0712   24.4259 N.2       1 ALA2        0.0000 
     33 O          -6.1596   14.4308   23.4660 O.2       1 ALA2        0.0000 
     34 O          -5.1660   13.3071   23.4666 O.2       1 ALA2        0.0000 
     35 O          -4.1723   12.1834   23.4671 O.2       1 ALA2        0.0000 
     36 OD1        -5.0359   11.4193   22.5078 O.3       2 ASP3        0.0000 
     37 CA          4.1596   17.5500   25.7646 C.3       5 GLY6        0.0000 
     38 CZ          2.3024   17.9096   24.8047 C.ar      4 PHE5        0.0000 
     39 CA          3.2961   16.7859   24.8052 C.3       5 GLY6        0.0000 
     40 CZ          0.4452   18.2691   23.8448 C.ar      4 PHE5        0.0000 
     41 O           1.4389   17.1455   23.8453 O.2       1 ALA2        0.0000 
     42 O          -0.4184   17.5050   22.8854 O.2       1 ALA2        0.0000 
     43 O           0.5753   16.3813   22.8860 O.2       1 ALA2        0.0000 
     44 CA         -2.2756   17.8646   21.9255 C.3       5 GLY6        0.0000 
     45 O          -1.2819   16.7409   21.9260 O.2       1 ALA2        0.0000 
     46 NZ         -3.1391   17.1005   20.9661 N.2       3 LYS4        0.0000 
     47 CA         -2.1455   15.9768   20.9667 C.3       5 GLY6        0.0000 
     48 OD1        -4.0027   16.3364   20.0067 O.3       2 ASP3        0.0000 
     49 CZ          4.7485   20.0730   25.5703 C.ar      4 PHE5        0.0000 
     50 CZ          3.8850   19.3089   24.6110 C.ar      4 PHE5        0.0000 
     51 DU          4.8786   18.1852   24.6115 H         6 CUB7        0.0000 
     52 CZ          3.0214   18.5448   23.6516 C.ar      4 PHE5        0.0000 
     53 CA          4.0150   17.4211   23.6522 C.3       5 GLY6        0.0000 
     54 CA          0.1705   20.0280   22.6911 C.3       5 GLY6        0.0000 
     55 CZ          1.1642   18.9043   22.6917 C.ar      4 PHE5        0.0000 
     56 CA          2.1578   17.7807   22.6922 C.3       5 GLY6        0.0000 
     57 O          -0.6930   19.2639   21.7317 O.2       1 ALA2        0.0000 
     58 O           0.3006   18.1402   21.7323 O.2       1 ALA2        0.0000 
     59 O           1.2943   17.0165   21.7329 O.2       1 ALA2        0.0000 
     60 O          -0.5630   17.3761   20.7729 O.2       1 ALA2        0.0000 
     61 CZ          4.4738   21.8319   24.4167 C.ar      4 PHE5        0.0000 
     62 DU          5.4675   20.7082   24.4172 H         6 CUB7        0.0000 
     63 CZ          3.6103   21.0678   23.4573 C.ar      4 PHE5        0.0000 
     64 CZ          4.6039   19.9441   23.4579 C.ar      4 PHE5        0.0000 
     65 DU          5.5976   18.8204   23.4584 H         6 CUB7        0.0000 
     66 CZ          1.7531   21.4273   22.4974 C.ar      4 PHE5        0.0000 
     67 CZ          2.7467   20.3036   22.4979 C.ar      4 PHE5        0.0000 
     68 DU          3.7404   19.1800   22.4985 H         6 CUB7        0.0000 
     69 CZ          4.7340   18.0563   22.4991 C.ar      4 PHE5        0.0000 
     70 CZ          0.8895   20.6632   21.5380 C.ar      4 PHE5        0.0000 
     71 DU          1.8831   19.5395   21.5386 H         6 CUB7        0.0000 
     72 CZ          2.8768   18.4158   21.5391 C.ar      4 PHE5        0.0000 
@<TRIPOS>BOND
@<TRIPOS>SUBSTRUCTURE
     1 ALA2        9 GROUP   
     2 ASP3        2 GROUP   
     3 LYS4       46 GROUP   
     4 PHE5        6 GROUP   
     5 GLY6        1 GROUP   
     6 CUB7       23 GROUP   
@<TRIPOS>SET

