#    Name: 1u3f_ADP_1_INTS_M
#    Modification time : Tue Mar 25 06:07:17 2014

@<TRIPOS>MOLECULE
1u3f_ADP_1_INTS_M
   45     0    12     0     0
SMALL
NO_CHARGES


@<TRIPOS>ATOM
      1 N          -0.7855   14.2155   22.6655 N.am      1 SEC2        0.0000 
      2 N          -1.7770   14.9270   22.0830 N.am      9 SEL2        0.0000 
      3 N           0.2060   13.5040   23.2480 N.am      5 SEP2        0.0000 
      4 NZ         -2.0000   11.5910   21.1000 N.4       2 LYC4        0.0000 
      5 NZ         -2.9360   13.2200   20.5360 N.4      10 LYL4        0.0000 
      6 NZ         -1.0640    9.9620   21.6640 N.4       6 LYP4        0.0000 
      7 N          -2.0670   13.5890   19.5685 N.am      1 SEC2        0.0000 
      8 N          -2.9360   13.2200   20.5360 N.am      9 SEL2        0.0000 
      9 N          -1.1980   13.9580   18.6010 N.am      5 SEP2        0.0000 
     10 Zn         -5.0855   15.0200   20.6310 Zn        3 ZIC7        0.0000 
     11 Zn         -3.9780   15.4740   21.1230 Zn       11 ZIL7        0.0000 
     12 Zn         -6.1930   14.5660   20.1390 Zn        7 ZIP7        0.0000 
     13 NZ         -6.6650   12.3410   21.6440 N.4       2 LYC4        0.0000 
     14 NZ         -6.1740   13.6250   22.3650 N.4      10 LYL4        0.0000 
     15 NZ         -7.1560   11.0570   20.9230 N.4       6 LYP4        0.0000 
     16 Zn         -6.1835   14.0955   21.2520 Zn        3 ZIC7        0.0000 
     17 Zn         -6.1740   13.6250   22.3650 Zn       11 ZIL7        0.0000 
     18 N          -6.6650   12.3410   21.6440 N.am      1 SEC2        0.0000 
     19 N          -6.1740   13.6250   22.3650 N.am      9 SEL2        0.0000 
     20 N          -7.1560   11.0570   20.9230 N.am      5 SEP2        0.0000 
     21 N          -7.4545   13.6940   22.9740 N.am      1 SEC2        0.0000 
     22 N          -8.7350   13.7630   23.5830 N.am      5 SEP2        0.0000 
     23 NZ         -6.0815   11.3055   21.8700 N.4       2 LYC4        0.0000 
     24 NZ         -5.0070   11.5540   22.8170 N.4      10 LYL4        0.0000 
     25 N          -6.0815   11.3055   21.8700 N.am      1 SEC2        0.0000 
     26 N          -5.0070   11.5540   22.8170 N.am      9 SEL2        0.0000 
     27 N          -3.4500   11.2400   22.4315 N.am      1 SEC2        0.0000 
     28 N          -1.8930   10.9260   22.0460 N.am      5 SEP2        0.0000 
     29 CA         -7.4165   14.7500   24.3200 C.3       4 GLC5        0.0000 
     30 CA         -5.4160   14.5550   25.2070 C.3      12 GLL5        0.0000 
     31 CA         -9.4170   14.9450   23.4330 C.3       8 GLP5        0.0000 
     32 CA         -8.0155   12.5930   25.9535 C.3       4 GLC5        0.0000 
     33 CA         -6.8180   13.5810   27.1230 C.3      12 GLL5        0.0000 
     34 CA         -9.2130   11.6050   24.7840 C.3       8 GLP5        0.0000 
     35 CA         -8.7605   13.6910   25.8395 C.3       4 GLC5        0.0000 
     36 CA         -8.0390   14.4690   27.3210 C.3      12 GLL5        0.0000 
     37 CA         -9.4820   12.9130   24.3580 C.3       8 GLP5        0.0000 
     38 CA        -10.6485   17.2660   25.3600 C.3       4 GLC5        0.0000 
     39 CA         -9.6410   18.5780   26.5750 C.3      12 GLL5        0.0000 
     40 CA        -11.6560   15.9540   24.1450 C.3       8 GLP5        0.0000 
     41 CA         -4.5403   15.9880   25.2140 C.3       4 GLC5        0.0000 
     42 CA         -5.6830   14.5170   26.7130 C.3      12 GLL5        0.0000 
     43 CA         -3.5310   17.4400   24.4680 C.3       8 GLP5        0.0000 
     44 CA         -8.5744   19.9330   27.1708 C.3       4 GLC5        0.0000 
     45 CA         -7.5200   21.4890   27.1700 C.3       8 GLP5        0.0000 
@<TRIPOS>BOND
@<TRIPOS>SUBSTRUCTURE
     1 SEC2        1 GROUP        1 X    SEC  0     ROOT SEC X 2
     2 LYC4        4 GROUP        1 X    LYC  0     **** LYC X 4
     3 ZIC7       10 GROUP        1 X    ZIC  0     **** ZIC X 5
     4 GLC5       29 GROUP        1 X    GLC  0     **** GLC X 6
     5 SEP2        3 GROUP        1 Y    SEP  0     ROOT SEP Y 9
     6 LYP4        6 GROUP        1 Y    LYP  0     **** LYP Y 11
     7 ZIP7       12 GROUP        1 Y    ZIP  0     **** ZIP Y 12
     8 GLP5       31 GROUP        1 Y    GLP  0     **** GLP Y 13
     9 SEL2        2 GROUP        1 Z    SEL  0     ROOT SEL Z 16
    10 LYL4        5 GROUP        1 Z    LYL  0     **** LYL Z 18
    11 ZIL7       11 GROUP        1 Z    ZIL  0     **** ZIL Z 19
    12 GLL5       30 GROUP        1 Z    GLL  0     **** GLL Z 20
@<TRIPOS>SET

