#    Name: 1u3f_ADP_1_ligand
#    Modification time : Tue Mar 25 06:07:17 2014

@<TRIPOS>MOLECULE
1u3f_ADP_1_ligand
   39    41     1     0     0
SMALL
NO_CHARGES


@<TRIPOS>ATOM
      1 PB         -3.0890   14.3930   21.6420 P.3       1 ADP201      0.0000 
      2 O1B        -1.7770   14.9270   22.0830 O.co2     1 ADP201      0.0000 
      3 O2B        -2.9360   13.2200   20.5360 O.co2     1 ADP201      0.0000 
      4 O3B        -3.9780   15.4740   21.1230 O.co2     1 ADP201      0.0000 
      5 PA         -5.1090   12.9780   23.1490 P.3       1 ADP201      0.0000 
      6 O1A        -6.1740   13.6250   22.3650 O.co2     1 ADP201      0.0000 
      7 O2A        -5.0070   11.5540   22.8170 O.co2     1 ADP201      0.0000 
      8 O3A        -3.7310   13.6820   22.8710 O.3       1 ADP201      0.0000 
      9 O5'        -5.2970   13.2240   24.7050 O.3       1 ADP201      0.0000 
     10 C5'        -5.4160   14.5550   25.2070 C.3       1 ADP201      0.0000 
     11 C4'        -5.6830   14.5170   26.7130 C.3       1 ADP201      0.0000 
     12 O4'        -6.1110   15.8370   27.0650 O.3       1 ADP201      0.0000 
     13 C3'        -6.8180   13.5810   27.1230 C.3       1 ADP201      0.0000 
     14 O3'        -6.5290   12.8780   28.3450 O.3       1 ADP201      0.0000 
     15 C2'        -8.0390   14.4690   27.3210 C.3       1 ADP201      0.0000 
     16 O2'        -8.9700   13.9820   28.2960 O.3       1 ADP201      0.0000 
     17 C1'        -7.4400   15.8310   27.6290 C.3       1 ADP201      0.0000 
     18 N9         -8.2520   16.9230   26.9930 N.pl3     1 ADP201      0.0000 
     19 C8         -8.1900   17.2650   25.6910 C.2       1 ADP201      0.0000 
     20 N7         -9.0350   18.2680   25.4520 N.2       1 ADP201      0.0000 
     21 C5         -9.6410   18.5780   26.5750 C.ar      1 ADP201      0.0000 
     22 C6        -10.6020   19.5140   26.9570 C.ar      1 ADP201      0.0000 
     23 N6        -11.1130   20.3610   26.0520 N.pl3     1 ADP201      0.0000 
     24 N1        -11.0260   19.5670   28.2600 N.ar      1 ADP201      0.0000 
     25 C2        -10.5330   18.7250   29.2080 C.ar      1 ADP201      0.0000 
     26 N3         -9.6020   17.8160   28.8480 N.ar      1 ADP201      0.0000 
     27 C4         -9.1360   17.7080   27.5770 C.ar      1 ADP201      0.0000 
     28 H          -6.2443   15.0959   24.7354 H         1 ADP201      0.0000 
     29 H          -4.5001   15.1348   25.0456 H         1 ADP201      0.0000 
     30 H          -4.7958   14.2591   27.2290 H         1 ADP201      0.0000 
     31 H          -7.0216   12.9187   26.3083 H         1 ADP201      0.0000 
     32 H          -8.5053   14.5614   26.3239 H         1 ADP201      0.0000 
     33 H          -7.4078   15.9637   28.6837 H         1 ADP201      0.0000 
     34 H          -7.6116   16.8381   25.0300 H         1 ADP201      0.0000 
     35 H         -11.3785   21.2626   26.3938 H         1 ADP201      0.0000 
     36 H         -11.1830   20.0155   25.1162 H         1 ADP201      0.0000 
     37 H         -10.8673   18.7838   30.1820 H         1 ADP201      0.0000 
     38 H          -7.2790   13.1141   28.9628 H         1 ADP201      0.0000 
     39 H          -9.0475   14.7171   28.9695 H         1 ADP201      0.0000 
@<TRIPOS>BOND
     1    2    1 ar   
     2    3    1 ar   
     3    4    1 ar   
     4    8    1 1    
     5    6    5 ar   
     6    7    5 ar   
     7    8    5 1    
     8    9    5 1    
     9   10    9 1    
    10   11   10 1    
    11   28   10 1    
    12   29   10 1    
    13   12   11 1    
    14   13   11 1    
    15   30   11 1    
    16   17   12 1    
    17   14   13 1    
    18   15   13 1    
    19   31   13 1    
    20   38   14 1    
    21   16   15 1    
    22   17   15 1    
    23   32   15 1    
    24   39   16 1    
    25   18   17 1    
    26   33   17 1    
    27   19   18 1    
    28   27   18 1    
    29   20   19 2    
    30   34   19 1    
    31   21   20 1    
    32   22   21 ar   
    33   27   21 ar   
    34   23   22 1    
    35   24   22 ar   
    36   35   23 1    
    37   36   23 1    
    38   25   24 ar   
    39   26   25 ar   
    40   37   25 1    
    41   27   26 ar   
@<TRIPOS>SUBSTRUCTURE
     1 ADP201      1 GROUP   
@<TRIPOS>SET

