#    Name: 1qr2_FAD_2_INTS_M
#    Modification time : Mon Mar 24 23:50:15 2014

@<TRIPOS>MOLECULE
1qr2_FAD_2_INTS_M
  101     0     9     0     0
SMALL
NO_CHARGES


@<TRIPOS>ATOM
      1 N          31.2015   27.5340    0.3650 N.am      2 SEC2        0.0000 
      2 N          30.9080   26.3390   -0.4590 N.am      8 SEL2        0.0000 
      3 N          31.4950   28.7290    1.1890 N.am      5 SEP2        0.0000 
      4 CA         28.7525   27.8390    0.4425 C.3       3 GLC5        0.0000 
      5 CA         28.3090   27.1320   -1.0860 C.3       9 GLL5        0.0000 
      6 CA         29.1960   28.5460    1.9710 C.3       6 GLP5        0.0000 
      7 CA         26.8770   26.9015    0.3665 C.3       3 GLC5        0.0000 
      8 CA         25.4450   26.6710    1.8190 C.3       6 GLP5        0.0000 
      9 N          27.4475   29.7405   -3.6055 N.am      2 SEC2        0.0000 
     10 N          28.1270   28.9180   -2.4340 N.am      8 SEL2        0.0000 
     11 N          26.7680   30.5630   -4.7770 N.am      5 SEP2        0.0000 
     12 CA         27.2870   29.5695   -2.8080 C.3       3 GLC5        0.0000 
     13 CA         29.1910   29.5220   -3.1380 C.3       9 GLL5        0.0000 
     14 CA         25.3830   29.6170   -2.4780 C.3       6 GLP5        0.0000 
     15 N          31.1910   32.7065    0.0605 N.am      2 SEC2        0.0000 
     16 N          30.5100   31.9170   -0.6880 N.am      8 SEL2        0.0000 
     17 N          31.8720   33.4960    0.8090 N.am      5 SEP2        0.0000 
     18 CA         27.8960   34.1440    0.7230 C.3       3 GLC5        0.0000 
     19 CA         28.8770   33.9130   -0.9340 C.3       9 GLL5        0.0000 
     20 CA         26.9150   34.3750    2.3800 C.3       6 GLP5        0.0000 
     21 O          30.6085   34.1505    0.3780 O.2       1 ALC1        0.0000 
     22 O          29.3450   34.8050   -0.0530 O.2       7 ALL1        0.0000 
     23 O          31.8720   33.4960    0.8090 O.2       4 ALP1        0.0000 
     24 CA         25.7820   32.5210   -1.9390 C.3       3 GLC5        0.0000 
     25 CA         27.2600   33.4530   -2.5280 C.3       9 GLL5        0.0000 
     26 CA         24.3040   31.5890   -1.3500 C.3       6 GLP5        0.0000 
     27 CA         25.8330   35.0980   -2.6365 C.3       3 GLC5        0.0000 
     28 CA         24.4060   36.7430   -2.7450 C.3       6 GLP5        0.0000 
     29 N          27.2260   31.3970   -3.8205 N.am      2 SEC2        0.0000 
     30 N          27.6840   32.2310   -2.8640 N.am      8 SEL2        0.0000 
     31 CA         27.0825   30.7395   -2.3180 C.3       3 GLC5        0.0000 
     32 CA         28.7820   31.8620   -2.1580 C.3       9 GLL5        0.0000 
     33 N          25.1095   18.9105    5.7695 N.am      2 SEC2        0.0000 
     34 N          25.6590   17.6220    6.4060 N.am      8 SEL2        0.0000 
     35 N          24.5600   20.1990    5.1330 N.am      5 SEP2        0.0000 
     36 N          24.1030   19.2030    6.2075 N.am      2 SEC2        0.0000 
     37 N          23.6460   18.2070    7.2820 N.am      8 SEL2        0.0000 
     38 N          22.9135   18.6095    6.1100 N.am      2 SEC2        0.0000 
     39 N          22.1810   19.0120    4.9380 N.am      5 SEP2        0.0000 
     40 N          23.1005   17.8500    8.4355 N.am      2 SEC2        0.0000 
     41 N          22.5550   17.4930    9.5890 N.am      5 SEP2        0.0000 
     42 O          23.7495   17.0760    8.9835 O.2       1 ALC1        0.0000 
     43 O          24.9440   16.6590    8.3780 O.2       7 ALL1        0.0000 
     44 O          22.5550   17.4930    9.5890 O.2       4 ALP1        0.0000 
     45 N          26.6000   15.2070   10.8265 N.am      2 SEC2        0.0000 
     46 N          26.2150   15.1290    9.4830 N.am      8 SEL2        0.0000 
     47 N          26.9850   15.2850   12.1700 N.am      5 SEP2        0.0000 
     48 N          28.7280   15.0925    8.9100 N.am      2 SEC2        0.0000 
     49 N          28.2470   15.3330    7.6000 N.am      8 SEL2        0.0000 
     50 N          29.2090   14.8520   10.2200 N.am      5 SEP2        0.0000 
     51 CA         33.9005   12.9960    7.3590 C.3       3 GLC5        0.0000 
     52 CA         32.7230   14.1630    6.2260 C.3       9 GLL5        0.0000 
     53 CA         35.0780   11.8290    8.4920 C.3       6 GLP5        0.0000 
     54 CA         32.8545   15.6980    7.4485 C.3       3 GLC5        0.0000 
     55 CA         32.9860   17.2330    8.6710 C.3       6 GLP5        0.0000 
     56 CA         31.9910   12.9465    7.9630 C.3       3 GLC5        0.0000 
     57 CA         31.2590   11.7300    9.7000 C.3       6 GLP5        0.0000 
     58 CA         34.1595   15.7575    3.4065 C.3       3 GLC5        0.0000 
     59 CA         32.4180   16.0700    3.8630 C.3       9 GLL5        0.0000 
     60 CA         35.9010   15.4450    2.9500 C.3       6 GLP5        0.0000 
     61 CA         32.5005   15.9165    1.8915 C.3       3 GLC5        0.0000 
     62 CA         32.5830   15.7630   -0.0800 C.3       6 GLP5        0.0000 
     63 CA         32.7790   17.2600    5.2145 C.3       3 GLC5        0.0000 
     64 CA         33.1400   18.4500    6.5660 C.3       6 GLP5        0.0000 
     65 CA         29.8045   20.8610    5.8765 C.3       3 GLC5        0.0000 
     66 CA         28.3950   19.4220    4.9620 C.3       9 GLL5        0.0000 
     67 CA         31.2140   22.3000    6.7910 C.3       6 GLP5        0.0000 
     68 O          28.3825   19.1310    7.1895 O.2       1 ALC1        0.0000 
     69 O          27.7610   19.8720    6.1810 O.2       7 ALL1        0.0000 
     70 O          29.0040   18.3900    8.1980 O.2       4 ALP1        0.0000 
     71 O          28.0985   20.3645    1.5660 O.2       1 ALC1        0.0000 
     72 O          28.7280   19.8460    2.6170 O.2       7 ALL1        0.0000 
     73 O          27.4690   20.8830    0.5150 O.2       4 ALP1        0.0000 
     74 CA         29.9915   22.0715    5.4300 C.3       3 GLC5        0.0000 
     75 CA         28.7690   21.8430    4.0690 C.3       9 GLL5        0.0000 
     76 N          28.4905   23.6140    5.8830 N.am      2 SEC2        0.0000 
     77 N          28.1530   22.5110    5.1730 N.am      8 SEL2        0.0000 
     78 N          28.8280   24.7170    6.5930 N.am      5 SEP2        0.0000 
     79 CA         27.2275   24.1650    2.7910 C.3       3 GLC5        0.0000 
     80 CA         28.6390   22.8380    2.9020 C.3       9 GLL5        0.0000 
     81 CA         25.8160   25.4920    2.6800 C.3       6 GLP5        0.0000 
     82 CA         27.9305   22.7955    0.9740 C.3       3 GLC5        0.0000 
     83 CA         27.2220   22.7530   -0.9540 C.3       6 GLP5        0.0000 
     84 N          32.9220   23.7750    2.6615 N.am      2 SEC2        0.0000 
     85 N          31.6420   23.4860    2.2110 N.am      8 SEL2        0.0000 
     86 N          34.2020   24.0640    3.1120 N.am      5 SEP2        0.0000 
     87 N          31.3690   27.3120    3.4115 N.am      2 SEC2        0.0000 
     88 N          31.0580   25.8180    2.9290 N.am      8 SEL2        0.0000 
     89 N          31.6800   28.8060    3.8940 N.am      5 SEP2        0.0000 
     90 N          31.0670   25.9390    4.3350 N.am      2 SEC2        0.0000 
     91 N          31.0760   26.0600    5.7410 N.am      5 SEP2        0.0000 
     92 CA         26.8155   28.4610   -2.1463 C.3       3 GLC5        0.0000 
     93 CA         30.2538   33.4700    0.5257 C.3       3 GLC5        0.0000 
     94 CA         29.4280   32.6290   -1.1910 C.3       9 GLL5        0.0000 
     95 CA         31.3550   33.6690    2.1140 C.3       6 GLP5        0.0000 
     96 CA         30.6426   15.8974    8.0553 C.3       3 GLC5        0.0000 
     97 CA         29.2280   15.5070    6.6630 C.3       9 GLL5        0.0000 
     98 CA         30.6680   16.7280    9.7420 C.3       6 GLP5        0.0000 
     99 CA         26.1666   19.6303    4.0496 C.3       3 GLC5        0.0000 
    100 CA         27.7460   18.0820    4.4910 C.3       9 GLL5        0.0000 
    101 CA         24.2190   19.6750    3.8260 C.3       6 GLP5        0.0000 
@<TRIPOS>BOND
@<TRIPOS>SUBSTRUCTURE
     1 ALC1       21 GROUP        1 X    ALC  0     ROOT ALC X 1
     2 SEC2        1 GROUP        1 X    SEC  0     **** SEC X 2
     3 GLC5        4 GROUP        1 X    GLC  0     **** GLC X 6
     4 ALP1       23 GROUP        1 Y    ALP  0     ROOT ALP Y 8
     5 SEP2        3 GROUP        1 Y    SEP  0     **** SEP Y 9
     6 GLP5        6 GROUP        1 Y    GLP  0     **** GLP Y 13
     7 ALL1       22 GROUP        1 Z    ALL  0     ROOT ALL Z 15
     8 SEL2        2 GROUP        1 Z    SEL  0     **** SEL Z 16
     9 GLL5        5 GROUP        1 Z    GLL  0     **** GLL Z 20
@<TRIPOS>SET

