#    Name: 1qr2_FAD_2_ligand
#    Modification time : Mon Mar 24 23:50:15 2014

@<TRIPOS>MOLECULE
1qr2_FAD_2_ligand
   84    89     1     0     0
SMALL
NO_CHARGES


@<TRIPOS>ATOM
      1 PA         29.9290   25.2220   -0.4770 P.3       1 FAD233      0.0000 
      2 O1A        30.1320   24.0440   -1.3660 O.co2     1 FAD233      0.0000 
      3 O2A        30.9080   26.3390   -0.4590 O.co2     1 FAD233      0.0000 
      4 O5B        28.4960   25.7550   -0.8800 O.3       1 FAD233      0.0000 
      5 C5B        28.3090   27.1320   -1.0860 C.3       1 FAD233      0.0000 
      6 C4B        28.1870   27.4780   -2.5430 C.3       1 FAD233      0.0000 
      7 O4B        28.1270   28.9180   -2.4340 O.3       1 FAD233      0.0000 
      8 C3B        29.3120   27.2570   -3.5520 C.3       1 FAD233      0.0000 
      9 O3B        28.7980   27.2530   -4.8870 O.3       1 FAD233      0.0000 
     10 C2B        30.2440   28.4150   -3.1780 C.3       1 FAD233      0.0000 
     11 O2B        31.3560   28.6680   -4.0380 O.3       1 FAD233      0.0000 
     12 C1B        29.1910   29.5220   -3.1380 C.3       1 FAD233      0.0000 
     13 N9A        29.4810   30.6770   -2.2480 N.pl3     1 FAD233      0.0000 
     14 C8A        30.4970   30.7860   -1.3390 C.2       1 FAD233      0.0000 
     15 N7A        30.5100   31.9170   -0.6880 N.2       1 FAD233      0.0000 
     16 C5A        29.4280   32.6290   -1.1910 C.ar      1 FAD233      0.0000 
     17 C6A        28.8770   33.9130   -0.9340 C.ar      1 FAD233      0.0000 
     18 N6A        29.3450   34.8050   -0.0530 N.pl3     1 FAD233      0.0000 
     19 N1A        27.7800   34.2980   -1.6300 N.ar      1 FAD233      0.0000 
     20 C2A        27.2600   33.4530   -2.5280 C.ar      1 FAD233      0.0000 
     21 N3A        27.6840   32.2310   -2.8640 N.ar      1 FAD233      0.0000 
     22 C4A        28.7820   31.8620   -2.1580 C.ar      1 FAD233      0.0000 
     23 N1         25.6590   17.6220    6.4060 N.2       1 FAD233      0.0000 
     24 C2         24.6810   17.5460    7.3620 C.2       1 FAD233      0.0000 
     25 O2         23.6460   18.2070    7.2820 O.2       1 FAD233      0.0000 
     26 N3         24.9440   16.6590    8.3780 N.am      1 FAD233      0.0000 
     27 C4         26.0980   15.8600    8.4930 C.2       1 FAD233      0.0000 
     28 O4         26.2150   15.1290    9.4830 O.2       1 FAD233      0.0000 
     29 C4X        27.0560   16.0260    7.4220 C.2       1 FAD233      0.0000 
     30 N5         28.2470   15.3330    7.6000 N.2       1 FAD233      0.0000 
     31 C5X        29.2280   15.5070    6.6630 C.ar      1 FAD233      0.0000 
     32 C6         30.3990   14.8360    6.8750 C.ar      1 FAD233      0.0000 
     33 C7         31.4210   14.9620    5.9680 C.ar      1 FAD233      0.0000 
     34 C7M        32.7230   14.1630    6.2260 C.3       1 FAD233      0.0000 
     35 C8         31.2570   15.7790    4.8290 C.ar      1 FAD233      0.0000 
     36 C8M        32.4180   16.0700    3.8630 C.3       1 FAD233      0.0000 
     37 C9         30.0610   16.4100    4.6000 C.ar      1 FAD233      0.0000 
     38 C9A        29.0480   16.3170    5.5340 C.ar      1 FAD233      0.0000 
     39 N10        27.8530   17.0320    5.3530 N.pl3     1 FAD233      0.0000 
     40 C10        26.8720   16.9100    6.3420 C.2       1 FAD233      0.0000 
     41 C1'        27.7460   18.0820    4.4910 C.3       1 FAD233      0.0000 
     42 C2'        28.3950   19.4220    4.9620 C.3       1 FAD233      0.0000 
     43 O2'        27.7610   19.8720    6.1810 O.3       1 FAD233      0.0000 
     44 C3'        28.1580   20.4190    3.8200 C.3       1 FAD233      0.0000 
     45 O3'        28.7280   19.8460    2.6170 O.3       1 FAD233      0.0000 
     46 C4'        28.7690   21.8430    4.0690 C.3       1 FAD233      0.0000 
     47 O4'        28.1530   22.5110    5.1730 O.3       1 FAD233      0.0000 
     48 C5'        28.6390   22.8380    2.9020 C.3       1 FAD233      0.0000 
     49 O5'        29.3940   24.0130    3.2390 O.3       1 FAD233      0.0000 
     50 P          30.5970   24.5280    2.3470 P.3       1 FAD233      0.0000 
     51 O1P        31.6420   23.4860    2.2110 O.co2     1 FAD233      0.0000 
     52 O2P        31.0580   25.8180    2.9290 O.co2     1 FAD233      0.0000 
     53 O3P        29.7230   24.8120    1.0430 O.3       1 FAD233      0.0000 
     54 H          29.1498   27.7267   -0.6665 H         1 FAD233      0.0000 
     55 H          27.3946   27.5024   -0.5728 H         1 FAD233      0.0000 
     56 H          27.2528   27.1517   -2.9331 H         1 FAD233      0.0000 
     57 H          29.7977   26.3447   -3.2653 H         1 FAD233      0.0000 
     58 H          30.5189   28.2447   -2.1348 H         1 FAD233      0.0000 
     59 H          28.9013   29.8109   -4.0836 H         1 FAD233      0.0000 
     60 H          31.1611   30.0398   -1.2075 H         1 FAD233      0.0000 
     61 H          28.6725   35.4362    0.3336 H         1 FAD233      0.0000 
     62 H          30.3253   34.7604    0.1398 H         1 FAD233      0.0000 
     63 H          26.3623   33.8136   -3.0613 H         1 FAD233      0.0000 
     64 H          24.2176   16.5569    9.1551 H         1 FAD233      0.0000 
     65 H          30.5165   14.2397    7.7080 H         1 FAD233      0.0000 
     66 H          29.9145   16.9526    3.7355 H         1 FAD233      0.0000 
     67 H          26.6758   18.3425    4.2451 H         1 FAD233      0.0000 
     68 H          28.2036   17.8711    3.4812 H         1 FAD233      0.0000 
     69 H          29.4345   19.2592    5.0666 H         1 FAD233      0.0000 
     70 H          27.0852   20.5382    3.6918 H         1 FAD233      0.0000 
     71 H          29.8378   21.7242    4.2695 H         1 FAD233      0.0000 
     72 H          27.5836   23.0578    2.7691 H         1 FAD233      0.0000 
     73 H          29.0203   22.3529    2.0081 H         1 FAD233      0.0000 
     74 H          33.4030   14.3197    5.5098 H         1 FAD233      0.0000 
     75 H          33.1485   14.4167    7.0947 H         1 FAD233      0.0000 
     76 H          32.5539   13.1780    6.2591 H         1 FAD233      0.0000 
     77 H          33.1792   16.5263    4.3239 H         1 FAD233      0.0000 
     78 H          32.7816   15.2320    3.4562 H         1 FAD233      0.0000 
     79 H          32.1342   16.6625    3.1091 H         1 FAD233      0.0000 
     80 H          29.5737   27.5097   -5.4636 H         1 FAD233      0.0000 
     81 H          32.0675   29.0359   -3.4394 H         1 FAD233      0.0000 
     82 H          28.2068   19.3539    6.9109 H         1 FAD233      0.0000 
     83 H          28.6018   20.5447    1.9128 H         1 FAD233      0.0000 
     84 H          27.8828   21.7800    5.7996 H         1 FAD233      0.0000 
@<TRIPOS>BOND
     1    2    1 ar   
     2    3    1 ar   
     3    4    1 1    
     4   53    1 1    
     5    5    4 1    
     6    6    5 1    
     7   54    5 1    
     8   55    5 1    
     9    7    6 1    
    10    8    6 1    
    11   56    6 1    
    12   12    7 1    
    13    9    8 1    
    14   10    8 1    
    15   57    8 1    
    16   80    9 1    
    17   11   10 1    
    18   12   10 1    
    19   58   10 1    
    20   81   11 1    
    21   13   12 1    
    22   59   12 1    
    23   14   13 1    
    24   22   13 1    
    25   15   14 2    
    26   60   14 1    
    27   16   15 1    
    28   17   16 ar   
    29   22   16 ar   
    30   18   17 1    
    31   19   17 ar   
    32   61   18 1    
    33   62   18 1    
    34   20   19 ar   
    35   21   20 ar   
    36   63   20 1    
    37   22   21 ar   
    38   24   23 1    
    39   40   23 2    
    40   25   24 2    
    41   26   24 am   
    42   27   26 am   
    43   64   26 1    
    44   28   27 2    
    45   29   27 1    
    46   30   29 2    
    47   40   29 1    
    48   31   30 1    
    49   32   31 ar   
    50   38   31 ar   
    51   33   32 ar   
    52   65   32 1    
    53   34   33 1    
    54   35   33 ar   
    55   74   34 1    
    56   75   34 1    
    57   76   34 1    
    58   36   35 1    
    59   37   35 ar   
    60   77   36 1    
    61   78   36 1    
    62   79   36 1    
    63   38   37 ar   
    64   66   37 1    
    65   39   38 1    
    66   40   39 1    
    67   41   39 1    
    68   42   41 1    
    69   67   41 1    
    70   68   41 1    
    71   43   42 1    
    72   44   42 1    
    73   69   42 1    
    74   82   43 1    
    75   45   44 1    
    76   46   44 1    
    77   70   44 1    
    78   83   45 1    
    79   47   46 1    
    80   48   46 1    
    81   71   46 1    
    82   84   47 1    
    83   49   48 1    
    84   72   48 1    
    85   73   48 1    
    86   50   49 1    
    87   51   50 ar   
    88   52   50 ar   
    89   53   50 1    
@<TRIPOS>SUBSTRUCTURE
     1 FAD233      1 GROUP   
@<TRIPOS>SET

