#    Name: 1jeh_FAD_2_INTS_M
#    Modification time : Tue Mar 25 08:52:34 2014

@<TRIPOS>MOLECULE
1jeh_FAD_2_INTS_M
  130     0     9     0     0
SMALL
NO_CHARGES


@<TRIPOS>ATOM
      1 N          29.3350   34.6300   17.2870 N.am      2 SEC2        0.0000 
      2 N          28.3920   35.1430   18.1710 N.am      8 SEL2        0.0000 
      3 N          30.2780   34.1170   16.4030 N.am      5 SEP2        0.0000 
      4 N          27.3260   33.6940   15.9270 N.am      2 SEC2        0.0000 
      5 N          26.6000   33.8300   17.1030 N.am      8 SEL2        0.0000 
      6 N          28.0520   33.5580   14.7510 N.am      5 SEP2        0.0000 
      7 CA         28.5610   33.4775   20.5010 C.3       3 GLC5        0.0000 
      8 CA         27.1950   32.1130   19.7330 C.3       9 GLL5        0.0000 
      9 CA         29.9270   34.8420   21.2690 C.3       6 GLP5        0.0000 
     10 CA         25.3895   31.1825   20.5300 C.3       3 GLC5        0.0000 
     11 CA         23.5840   30.2520   21.3270 C.3       6 GLP5        0.0000 
     12 CA         25.2735   32.5860   19.2500 C.3       3 GLC5        0.0000 
     13 CA         23.3520   33.0590   18.7670 C.3       6 GLP5        0.0000 
     14 CA         27.9040   30.4410   21.8830 C.3       3 GLC5        0.0000 
     15 CA         28.0830   30.8530   19.8690 C.3       9 GLL5        0.0000 
     16 CA         27.7250   30.0290   23.8970 C.3       6 GLP5        0.0000 
     17 N          31.1180   30.1880   17.4650 N.am      2 SEC2        0.0000 
     18 N          29.9030   30.6890   18.1960 N.am      8 SEL2        0.0000 
     19 N          32.3330   29.6870   16.7340 N.am      5 SEP2        0.0000 
     20 N          30.2660   30.5910   16.7940 N.am      2 SEC2        0.0000 
     21 N          30.6290   30.4930   15.3920 N.am      5 SEP2        0.0000 
     22 N          27.6270   26.4325   17.3400 N.am      2 SEC2        0.0000 
     23 N          28.1280   27.9910   17.7770 N.am      8 SEL2        0.0000 
     24 N          27.1260   24.8740   16.9030 N.am      5 SEP2        0.0000 
     25 CA         27.8040   29.2805   22.0305 C.3       3 GLC5        0.0000 
     26 CA         27.8830   28.5320   20.1640 C.3       9 GLL5        0.0000 
     27 O          23.9435   23.3355   23.0500 O.2       1 ALC1        0.0000 
     28 O          23.9010   24.1580   21.6050 O.2       7 ALL1        0.0000 
     29 O          23.9860   22.5130   24.4950 O.2       4 ALP1        0.0000 
     30 N          26.3505   23.3495   23.7035 N.am      2 SEC2        0.0000 
     31 N          25.9440   24.4390   22.6990 N.am      8 SEL2        0.0000 
     32 N          26.7570   22.2600   24.7080 N.am      5 SEP2        0.0000 
     33 CA         25.8670   25.7190   24.0715 C.3       3 GLC5        0.0000 
     34 CA         27.1260   25.0940   22.8720 C.3       9 GLL5        0.0000 
     35 CA         24.6080   26.3440   25.2710 C.3       6 GLP5        0.0000 
     36 CA         28.1780   24.5940   24.7300 C.3       3 GLC5        0.0000 
     37 CA         29.2300   24.0940   26.5880 C.3       6 GLP5        0.0000 
     38 CA         28.4780   24.6730   21.4995 C.3       3 GLC5        0.0000 
     39 CA         29.8300   24.2520   20.1270 C.3       6 GLP5        0.0000 
     40 CA         27.7035   23.1835   23.0085 C.3       3 GLC5        0.0000 
     41 CA         28.2810   21.2730   23.1450 C.3       6 GLP5        0.0000 
     42 CA         26.5275   23.7405   24.3830 C.3       3 GLC5        0.0000 
     43 CA         25.9290   22.3870   25.8940 C.3       6 GLP5        0.0000 
     44 N          27.0305   42.6850   15.9900 N.am      2 SEC2        0.0000 
     45 N          27.6780   42.6450   14.3860 N.am      8 SEL2        0.0000 
     46 N          26.3830   42.7250   17.5940 N.am      5 SEP2        0.0000 
     47 N          27.0380   43.5320   16.6945 N.am      2 SEC2        0.0000 
     48 N          27.6930   44.3390   15.7950 N.am      8 SEL2        0.0000 
     49 O          29.6930   45.5100   14.7925 O.2       1 ALC1        0.0000 
     50 O          29.0260   44.6030   14.0550 O.2       7 ALL1        0.0000 
     51 O          30.3600   46.4170   15.5300 O.2       4 ALP1        0.0000 
     52 N          31.0165   44.5460   11.1295 N.am      2 SEC2        0.0000 
     53 N          30.3610   44.8330   12.2960 N.am      8 SEL2        0.0000 
     54 N          31.6720   44.2590    9.9630 N.am      5 SEP2        0.0000 
     55 CA         31.5570   40.9955    8.6085 C.3       3 GLC5        0.0000 
     56 CA         29.6730   40.5960    9.6860 C.3       9 GLL5        0.0000 
     57 CA         33.4410   41.3950    7.5310 C.3       6 GLP5        0.0000 
     58 CA         31.6945   40.1225    7.7415 C.3       3 GLC5        0.0000 
     59 CA         29.9480   38.8500    7.9520 C.3       9 GLL5        0.0000 
     60 CA         29.2515   37.4615    6.7930 C.3       3 GLC5        0.0000 
     61 CA         28.5550   36.0730    5.6340 C.3       6 GLP5        0.0000 
     62 CA         31.5370   37.7750    7.3765 C.3       3 GLC5        0.0000 
     63 CA         33.1260   36.7000    6.8010 C.3       6 GLP5        0.0000 
     64 CA         28.4110   39.2075    6.8280 C.3       3 GLC5        0.0000 
     65 CA         26.8740   39.5650    5.7040 C.3       6 GLP5        0.0000 
     66 CA         28.2910   36.2240   11.3385 C.3       3 GLC5        0.0000 
     67 CA         27.9950   37.1760    9.5330 C.3       9 GLL5        0.0000 
     68 CA         28.5870   35.2720   13.1440 C.3       6 GLP5        0.0000 
     69 CA         28.2750   36.6245    7.5835 C.3       3 GLC5        0.0000 
     70 CA         26.0895   36.9415   10.2580 C.3       3 GLC5        0.0000 
     71 CA         24.1840   36.7070   10.9830 C.3       6 GLP5        0.0000 
     72 CA         28.2215   37.1670   12.1525 C.3       3 GLC5        0.0000 
     73 CA         27.8560   39.0620   11.1610 C.3       9 GLL5        0.0000 
     74 CA         26.0200   37.8845   11.0720 C.3       3 GLC5        0.0000 
     75 CA         29.3365   39.1640   15.8245 C.3       3 GLC5        0.0000 
     76 CA         27.4500   39.4510   14.8670 C.3       9 GLL5        0.0000 
     77 CA         31.2230   38.8770   16.7820 C.3       6 GLP5        0.0000 
     78 CA         29.2430   40.3950   14.9405 C.3       3 GLC5        0.0000 
     79 CA         31.0360   41.3390   15.0140 C.3       6 GLP5        0.0000 
     80 O          24.4690   38.6050   15.9130 O.2       1 ALC1        0.0000 
     81 O          25.4960   39.9650   16.1340 O.2       7 ALL1        0.0000 
     82 O          23.4420   37.2450   15.6920 O.2       4 ALP1        0.0000 
     83 O          24.1885   39.2770   16.7085 O.2       1 ALC1        0.0000 
     84 O          22.8810   38.5890   17.2830 O.2       4 ALP1        0.0000 
     85 CA         28.4660   38.7760   18.5650 C.3       3 GLC5        0.0000 
     86 CA         27.0680   38.5110   17.1530 C.3       9 GLL5        0.0000 
     87 CA         29.8640   39.0410   19.9770 C.3       6 GLP5        0.0000 
     88 CA         29.1455   38.6940   16.9675 C.3       3 GLC5        0.0000 
     89 N          29.5375   37.1830   16.3065 N.am      2 SEC2        0.0000 
     90 N          28.1630   37.5900   16.9110 N.am      8 SEL2        0.0000 
     91 N          30.9120   36.7760   15.7020 N.am      5 SEP2        0.0000 
     92 CA         27.8580   37.6910   19.0395 C.3       3 GLC5        0.0000 
     93 CA         25.9780   37.8510   18.0040 C.3       9 GLL5        0.0000 
     94 CA         29.7380   37.5310   20.0750 C.3       6 GLP5        0.0000 
     95 CA         23.9950   37.1105   17.6815 C.3       3 GLC5        0.0000 
     96 CA         22.0120   36.3700   17.3590 C.3       6 GLP5        0.0000 
     97 CA         25.4955   39.0630   19.7210 C.3       3 GLC5        0.0000 
     98 CA         25.0130   40.2750   21.4380 C.3       6 GLP5        0.0000 
     99 N          27.1495   37.1235   22.4095 N.am      2 SEC2        0.0000 
    100 N          26.7540   36.1600   21.4160 N.am      8 SEL2        0.0000 
    101 N          27.5450   38.0870   23.4030 N.am      5 SEP2        0.0000 
    102 N          23.1630   36.5120   19.9890 N.am      2 SEC2        0.0000 
    103 N          24.5840   36.1300   20.2480 N.am      8 SEL2        0.0000 
    104 N          21.7420   36.8940   19.7300 N.am      5 SEP2        0.0000 
    105 CA         29.8385   32.0000   18.8580 C.3       3 GLC5        0.0000 
    106 CA         31.2980   33.4740   18.4750 C.3       6 GLP5        0.0000 
    107 CA         24.9205   25.8585   23.3040 C.3       3 GLC5        0.0000 
    108 CA         25.4300   25.9470   20.9270 C.3       9 GLL5        0.0000 
    109 CA         26.7580   25.0747   19.6875 C.3       3 GLC5        0.0000 
    110 CA         25.0360   24.7990   21.7470 C.3       9 GLL5        0.0000 
    111 CA         27.5590   24.1910   18.1040 C.3       6 GLP5        0.0000 
    112 CA         24.3600   27.0312   21.8000 C.3       3 GLC5        0.0000 
    113 CA         22.7630   28.1040   22.3290 C.3       6 GLP5        0.0000 
    114 CA         30.5475   39.4280   10.9168 C.3       3 GLC5        0.0000 
    115 CA         29.1410   41.1040   10.8830 C.3       9 GLL5        0.0000 
    116 CA         31.6880   38.0060   11.5490 C.3       6 GLP5        0.0000 
    117 CA         31.0670   41.1290   11.5287 C.3       3 GLC5        0.0000 
    118 CA         32.7270   41.4080   12.7730 C.3       6 GLP5        0.0000 
    119 CA         27.7585   40.7895    9.0033 C.3       3 GLC5        0.0000 
    120 CA         26.1100   40.7290    7.7220 C.3       6 GLP5        0.0000 
    121 CA         30.6642   38.5557   10.0697 C.3       3 GLC5        0.0000 
    122 CA         29.3330   39.3610    9.2290 C.3       9 GLL5        0.0000 
    123 CA         29.9415   37.9368   10.6517 C.3       3 GLC5        0.0000 
    124 CA         28.3950   38.5590    9.9760 C.3       9 GLL5        0.0000 
    125 CA         27.2698   39.3985    8.6449 C.3       3 GLC5        0.0000 
    126 CA         29.8618   38.8495   11.4683 C.3       3 GLC5        0.0000 
    127 CA         27.0727   40.2110    9.5548 C.3       3 GLC5        0.0000 
    128 CA         27.0273   40.5140   17.5583 C.3       3 GLC5        0.0000 
    129 CA         26.4070   38.9170   15.8360 C.3       9 GLL5        0.0000 
    130 CA         27.3170   42.3140   18.6220 C.3       6 GLP5        0.0000 
@<TRIPOS>BOND
@<TRIPOS>SUBSTRUCTURE
     1 ALC1       27 GROUP        1 X    ALC  0     ROOT ALC X 1
     2 SEC2        1 GROUP        1 X    SEC  0     **** SEC X 2
     3 GLC5        7 GROUP        1 X    GLC  0     **** GLC X 6
     4 ALP1       29 GROUP        1 Y    ALP  0     ROOT ALP Y 8
     5 SEP2        3 GROUP        1 Y    SEP  0     **** SEP Y 9
     6 GLP5        9 GROUP        1 Y    GLP  0     **** GLP Y 13
     7 ALL1       28 GROUP        1 Z    ALL  0     ROOT ALL Z 15
     8 SEL2        2 GROUP        1 Z    SEL  0     **** SEL Z 16
     9 GLL5        8 GROUP        1 Z    GLL  0     **** GLL Z 20
@<TRIPOS>SET

