#    Name: 1jeh_FAD_2_ligand
#    Modification time : Tue Mar 25 08:52:34 2014

@<TRIPOS>MOLECULE
1jeh_FAD_2_ligand
   84    89     1     0     0
SMALL
NO_CHARGES


@<TRIPOS>ATOM
      1 PA         27.1950   34.2720   18.2290 P.3       1 FAD580      0.0000 
      2 O1A        28.3920   35.1430   18.1710 O.co2     1 FAD580      0.0000 
      3 O2A        26.6000   33.8300   17.1030 O.co2     1 FAD580      0.0000 
      4 O5B        27.8720   33.0550   18.8440 O.3       1 FAD580      0.0000 
      5 C5B        27.1950   32.1130   19.7330 C.3       1 FAD580      0.0000 
      6 C4B        28.0830   30.8530   19.8690 C.3       1 FAD580      0.0000 
      7 O4B        27.2170   29.8110   20.4300 O.3       1 FAD580      0.0000 
      8 C3B        28.6750   30.1990   18.6130 C.3       1 FAD580      0.0000 
      9 O3B        29.9030   30.6890   18.1960 O.3       1 FAD580      0.0000 
     10 C2B        28.6340   28.6950   18.8700 C.3       1 FAD580      0.0000 
     11 O2B        28.1280   27.9910   17.7770 O.3       1 FAD580      0.0000 
     12 C1B        27.8830   28.5320   20.1640 C.3       1 FAD580      0.0000 
     13 N9A        26.7770   27.5870   20.2810 N.pl3     1 FAD580      0.0000 
     14 C8A        25.6280   27.5560   19.5330 C.2       1 FAD580      0.0000 
     15 N7A        24.7940   26.5860   19.8910 N.2       1 FAD580      0.0000 
     16 C5A        25.4300   25.9470   20.9270 C.ar      1 FAD580      0.0000 
     17 C6A        25.0360   24.7990   21.7470 C.ar      1 FAD580      0.0000 
     18 N6A        23.9010   24.1580   21.6050 N.pl3     1 FAD580      0.0000 
     19 N1A        25.9440   24.4390   22.6990 N.ar      1 FAD580      0.0000 
     20 C2A        27.1260   25.0940   22.8720 C.ar      1 FAD580      0.0000 
     21 N3A        27.5630   26.1470   22.1710 N.ar      1 FAD580      0.0000 
     22 C4A        26.6810   26.5440   21.2050 C.ar      1 FAD580      0.0000 
     23 N1         27.6780   42.6450   14.3860 N.2       1 FAD580      0.0000 
     24 C2         28.0870   43.8450   14.7960 C.2       1 FAD580      0.0000 
     25 O2         27.6930   44.3390   15.7950 O.2       1 FAD580      0.0000 
     26 N3         29.0260   44.6030   14.0550 N.am      1 FAD580      0.0000 
     27 C4         29.5430   44.1460   12.8730 C.2       1 FAD580      0.0000 
     28 O4         30.3610   44.8330   12.2960 O.2       1 FAD580      0.0000 
     29 C4X        29.1010   42.8460   12.4200 C.2       1 FAD580      0.0000 
     30 N5         29.5700   42.3420   11.2720 N.2       1 FAD580      0.0000 
     31 C5X        29.1410   41.1040   10.8830 C.ar      1 FAD580      0.0000 
     32 C6         29.6730   40.5960    9.6860 C.ar      1 FAD580      0.0000 
     33 C7         29.3330   39.3610    9.2290 C.ar      1 FAD580      0.0000 
     34 C7M        29.9480   38.8500    7.9520 C.3       1 FAD580      0.0000 
     35 C8         28.3950   38.5590    9.9760 C.ar      1 FAD580      0.0000 
     36 C8M        27.9950   37.1760    9.5330 C.3       1 FAD580      0.0000 
     37 C9         27.8560   39.0620   11.1610 C.ar      1 FAD580      0.0000 
     38 C9A        28.2150   40.3240   11.6140 C.ar      1 FAD580      0.0000 
     39 N10        27.7280   40.8930   12.8240 N.pl3     1 FAD580      0.0000 
     40 C10        28.1320   42.1050   13.2360 C.2       1 FAD580      0.0000 
     41 C1'        26.7580   40.0940   13.6250 C.3       1 FAD580      0.0000 
     42 C2'        27.4500   39.4510   14.8670 C.3       1 FAD580      0.0000 
     43 O2'        28.2610   38.3880   14.3930 O.3       1 FAD580      0.0000 
     44 C3'        26.4070   38.9170   15.8360 C.3       1 FAD580      0.0000 
     45 O3'        25.4960   39.9650   16.1340 O.3       1 FAD580      0.0000 
     46 C4'        27.0680   38.5110   17.1530 C.3       1 FAD580      0.0000 
     47 O4'        28.1630   37.5900   16.9110 O.3       1 FAD580      0.0000 
     48 C5'        25.9780   37.8510   18.0040 C.3       1 FAD580      0.0000 
     49 O5'        26.5920   37.2470   19.3510 O.3       1 FAD580      0.0000 
     50 P          25.9610   36.0740   20.0850 P.3       1 FAD580      0.0000 
     51 O1P        26.7540   36.1600   21.4160 O.co2     1 FAD580      0.0000 
     52 O2P        24.5840   36.1300   20.2480 O.co2     1 FAD580      0.0000 
     53 O3P        26.1900   34.8300   19.3260 O.3       1 FAD580      0.0000 
     54 H          26.2378   31.8052   19.3290 H         1 FAD580      0.0000 
     55 H          27.0560   32.5322   20.7225 H         1 FAD580      0.0000 
     56 H          28.8703   31.0415   20.5788 H         1 FAD580      0.0000 
     57 H          27.8834   30.3641   17.8180 H         1 FAD580      0.0000 
     58 H          29.6890   28.4149   19.0842 H         1 FAD580      0.0000 
     59 H          28.5875   28.3829   20.9833 H         1 FAD580      0.0000 
     60 H          25.4567   28.2075   18.7976 H         1 FAD580      0.0000 
     61 H          23.2916   24.4959   20.8878 H         1 FAD580      0.0000 
     62 H          23.7487   23.3899   22.2269 H         1 FAD580      0.0000 
     63 H          27.7721   24.7167   23.6602 H         1 FAD580      0.0000 
     64 H          29.3164   45.5254   14.4348 H         1 FAD580      0.0000 
     65 H          30.3389   41.1916    9.1526 H         1 FAD580      0.0000 
     66 H          27.1887   38.4913   11.6997 H         1 FAD580      0.0000 
     67 H          26.3342   39.2883   13.0239 H         1 FAD580      0.0000 
     68 H          25.9443   40.7251   13.9850 H         1 FAD580      0.0000 
     69 H          28.0256   40.2122   15.3451 H         1 FAD580      0.0000 
     70 H          25.9253   38.0749   15.4152 H         1 FAD580      0.0000 
     71 H          27.3921   39.3983   17.6534 H         1 FAD580      0.0000 
     72 H          25.5191   37.0371   17.4596 H         1 FAD580      0.0000 
     73 H          25.2287   38.5789   18.2834 H         1 FAD580      0.0000 
     74 H          30.9445   38.7962    8.0153 H         1 FAD580      0.0000 
     75 H          29.6190   37.9341    7.7219 H         1 FAD580      0.0000 
     76 H          29.7352   39.4418    7.1745 H         1 FAD580      0.0000 
     77 H          28.7816   36.5607    9.4808 H         1 FAD580      0.0000 
     78 H          27.3385   36.7598   10.1622 H         1 FAD580      0.0000 
     79 H          27.5690   37.1845    8.6283 H         1 FAD580      0.0000 
     80 H          30.1110   31.4366   18.8268 H         1 FAD580      0.0000 
     81 H          27.3385   28.5225   17.4700 H         1 FAD580      0.0000 
     82 H          28.4418   37.8221   15.1974 H         1 FAD580      0.0000 
     83 H          24.6754   39.5056   16.4739 H         1 FAD580      0.0000 
     84 H          27.9704   36.8003   17.4935 H         1 FAD580      0.0000 
@<TRIPOS>BOND
     1    2    1 ar   
     2    3    1 ar   
     3    4    1 1    
     4   53    1 1    
     5    5    4 1    
     6    6    5 1    
     7   54    5 1    
     8   55    5 1    
     9    7    6 1    
    10    8    6 1    
    11   56    6 1    
    12   12    7 1    
    13    9    8 1    
    14   10    8 1    
    15   57    8 1    
    16   80    9 1    
    17   11   10 1    
    18   12   10 1    
    19   58   10 1    
    20   81   11 1    
    21   13   12 1    
    22   59   12 1    
    23   14   13 1    
    24   22   13 1    
    25   15   14 2    
    26   60   14 1    
    27   16   15 1    
    28   17   16 ar   
    29   22   16 ar   
    30   18   17 1    
    31   19   17 ar   
    32   61   18 1    
    33   62   18 1    
    34   20   19 ar   
    35   21   20 ar   
    36   63   20 1    
    37   22   21 ar   
    38   24   23 1    
    39   40   23 2    
    40   25   24 2    
    41   26   24 am   
    42   27   26 am   
    43   64   26 1    
    44   28   27 2    
    45   29   27 1    
    46   30   29 2    
    47   40   29 1    
    48   31   30 1    
    49   32   31 ar   
    50   38   31 ar   
    51   33   32 ar   
    52   65   32 1    
    53   34   33 1    
    54   35   33 ar   
    55   74   34 1    
    56   75   34 1    
    57   76   34 1    
    58   36   35 1    
    59   37   35 ar   
    60   77   36 1    
    61   78   36 1    
    62   79   36 1    
    63   38   37 ar   
    64   66   37 1    
    65   39   38 1    
    66   40   39 1    
    67   41   39 1    
    68   42   41 1    
    69   67   41 1    
    70   68   41 1    
    71   43   42 1    
    72   44   42 1    
    73   69   42 1    
    74   82   43 1    
    75   45   44 1    
    76   46   44 1    
    77   70   44 1    
    78   83   45 1    
    79   47   46 1    
    80   48   46 1    
    81   71   46 1    
    82   84   47 1    
    83   49   48 1    
    84   72   48 1    
    85   73   48 1    
    86   50   49 1    
    87   51   50 ar   
    88   52   50 ar   
    89   53   50 1    
@<TRIPOS>SUBSTRUCTURE
     1 FAD580      1 GROUP   
@<TRIPOS>SET

