#    Name: 1sbr_VIB_2_INTS_M
#    Modification time : Tue Mar 25 02:14:07 2014

@<TRIPOS>MOLECULE
1sbr_VIB_2_INTS_M
   45     0     9     0     0
SMALL
NO_CHARGES


@<TRIPOS>ATOM
      1 CA         -5.0300   34.9910   15.3160 C.3       3 GLC5        0.0000 
      2 CA         -5.8230   35.9600   16.3730 C.3       9 GLL5        0.0000 
      3 CA         -4.2370   34.0220   14.2590 C.3       6 GLP5        0.0000 
      4 CA         -7.4390   34.8795   15.5190 C.3       3 GLC5        0.0000 
      5 CA         -9.0550   33.7990   14.6650 C.3       6 GLP5        0.0000 
      6 O          -7.0360   40.4905   17.1865 O.2       1 ALC1        0.0000 
      7 O          -6.3840   40.0900   18.7180 O.2       7 ALL1        0.0000 
      8 O          -7.6880   40.8910   15.6550 O.2       4 ALP1        0.0000 
      9 CA        -10.6860   40.1515   19.9925 C.3       3 GLC5        0.0000 
     10 CA        -11.3200   40.0680   22.0440 C.3       9 GLL5        0.0000 
     11 CA        -10.0520   40.2350   17.9410 C.3       6 GLP5        0.0000 
     12 CA         -8.4630   43.0340   23.4005 C.3       3 GLC5        0.0000 
     13 CA         -8.3470   41.5580   22.1210 C.3       9 GLL5        0.0000 
     14 CA         -8.5790   44.5100   24.6800 C.3       6 GLP5        0.0000 
     15 CA         -4.2725   39.7730   22.0805 C.3       3 GLC5        0.0000 
     16 CA         -6.0220   38.7390   21.1670 C.3       9 GLL5        0.0000 
     17 CA         -2.5230   40.8070   22.9940 C.3       6 GLP5        0.0000 
     18 CA         -4.7315   38.8830   17.5950 C.3       3 GLC5        0.0000 
     19 CA         -6.1820   38.7790   18.8150 C.3       9 GLL5        0.0000 
     20 CA         -3.2810   38.9870   16.3750 C.3       6 GLP5        0.0000 
     21 N          -5.7470   38.7255   16.4695 N.am      2 SEC2        0.0000 
     22 N          -6.1110   38.1380   17.6720 N.am      8 SEL2        0.0000 
     23 N          -5.3830   39.3130   15.2670 N.am      5 SEP2        0.0000 
     24 CA         -7.7625   36.9660   18.3200 C.3       3 GLC5        0.0000 
     25 CA         -6.0070   36.7160   17.6720 C.3       9 GLL5        0.0000 
     26 CA         -9.5180   37.2160   18.9680 C.3       6 GLP5        0.0000 
     27 N          -5.2105   34.9480   19.4350 N.am      2 SEC2        0.0000 
     28 N          -5.6840   36.0340   18.9110 N.am      8 SEL2        0.0000 
     29 N          -4.7370   33.8620   19.9590 N.am      5 SEP2        0.0000 
     30 CA         -4.6460   35.1670   19.6590 C.3       3 GLC5        0.0000 
     31 CA         -5.7550   36.7880   20.0030 C.3       9 GLL5        0.0000 
     32 CA         -3.5370   33.5460   19.3150 C.3       6 GLP5        0.0000 
     33 CA         -4.5980   37.6625   16.6988 C.3       3 GLC5        0.0000 
     34 CA         -6.5905   37.4290   15.4793 C.3       3 GLC5        0.0000 
     35 CA         -7.2660   38.5200   13.9360 C.3       6 GLP5        0.0000 
     36 CA         -4.7260   34.9420   18.1688 C.3       3 GLC5        0.0000 
     37 CA         -8.9125   37.7548   20.6267 C.3       3 GLC5        0.0000 
     38 CA         -8.4750   37.5730   22.4120 C.3       9 GLL5        0.0000 
     39 CA        -12.4428   40.8053   22.7295 C.3       3 GLC5        0.0000 
     40 CA        -10.2730   39.8270   23.1260 C.3       9 GLL5        0.0000 
     41 CA        -14.0890   41.6630   22.8740 C.3       6 GLP5        0.0000 
     42 CA         -7.7219   37.4557   19.4077 C.3       3 GLC5        0.0000 
     43 CA         -3.8825   37.6721   20.5564 C.3       3 GLC5        0.0000 
     44 CA         -6.0000   38.1140   19.9700 C.3       9 GLL5        0.0000 
     45 CA         -1.8820   37.7370   20.8270 C.3       6 GLP5        0.0000 
@<TRIPOS>BOND
@<TRIPOS>SUBSTRUCTURE
     1 ALC1        6 GROUP        1 X    ALC  0     ROOT ALC X 1
     2 SEC2       21 GROUP        1 X    SEC  0     **** SEC X 2
     3 GLC5        1 GROUP        1 X    GLC  0     **** GLC X 6
     4 ALP1        8 GROUP        1 Y    ALP  0     ROOT ALP Y 8
     5 SEP2       23 GROUP        1 Y    SEP  0     **** SEP Y 9
     6 GLP5        3 GROUP        1 Y    GLP  0     **** GLP Y 13
     7 ALL1        7 GROUP        1 Z    ALL  0     ROOT ALL Z 15
     8 SEL2       22 GROUP        1 Z    SEL  0     **** SEL Z 16
     9 GLL5        2 GROUP        1 Z    GLL  0     **** GLL Z 20
@<TRIPOS>SET

