#    Name: 1sbr_VIB_2_ligand
#    Modification time : Tue Mar 25 02:14:07 2014

@<TRIPOS>MOLECULE
1sbr_VIB_2_ligand
   35    36     1     0     0
SMALL
NO_CHARGES


@<TRIPOS>ATOM
      1 CM2        -5.8230   35.9600   16.3730 C.3       1 VIB502      0.0000 
      2 N4A        -6.3840   40.0900   18.7180 N.pl3     1 VIB502      0.0000 
      3 CM4        -8.4750   37.5730   22.4120 C.3       1 VIB502      0.0000 
      4 O1        -11.4320   41.4480   21.6860 O.3       1 VIB502      0.0000 
      5 C7        -11.3200   40.0680   22.0440 C.3       1 VIB502      0.0000 
      6 C6        -10.2730   39.8270   23.1260 C.3       1 VIB502      0.0000 
      7 C2         -7.0110   40.7470   21.5270 C.2       1 VIB502      0.0000 
      8 S1         -8.3470   41.5580   22.1210 S.3       1 VIB502      0.0000 
      9 C5         -8.9230   40.0270   22.4790 C.2       1 VIB502      0.0000 
     10 C4         -8.1390   39.0140   22.1590 C.2       1 VIB502      0.0000 
     11 N3         -7.0410   39.4500   21.6050 N.pl3     1 VIB502      0.0000 
     12 C7A        -6.0220   38.7390   21.1670 C.3       1 VIB502      0.0000 
     13 C4A        -6.1820   38.7790   18.8150 C.ar      1 VIB502      0.0000 
     14 N3A        -6.1110   38.1380   17.6720 N.ar      1 VIB502      0.0000 
     15 C2A        -6.0070   36.7160   17.6720 C.ar      1 VIB502      0.0000 
     16 N1A        -5.6840   36.0340   18.9110 N.ar      1 VIB502      0.0000 
     17 C6A        -5.7550   36.7880   20.0030 C.ar      1 VIB502      0.0000 
     18 C5A        -6.0000   38.1140   19.9700 C.ar      1 VIB502      0.0000 
     19 H          -6.4508   40.5900   19.5815 H         1 VIB502      0.0000 
     20 H          -6.4508   40.4575   17.7904 H         1 VIB502      0.0000 
     21 H         -11.0459   39.4456   21.1692 H         1 VIB502      0.0000 
     22 H         -12.2840   39.6689   22.4170 H         1 VIB502      0.0000 
     23 H         -10.3606   38.8199   23.4898 H         1 VIB502      0.0000 
     24 H         -10.4092   40.5383   23.9196 H         1 VIB502      0.0000 
     25 H          -6.3369   41.3721   21.1764 H         1 VIB502      0.0000 
     26 H          -5.7245   37.9408   21.9961 H         1 VIB502      0.0000 
     27 H          -5.0322   39.3919   21.2511 H         1 VIB502      0.0000 
     28 H          -5.6124   36.3300   20.9563 H         1 VIB502      0.0000 
     29 H          -4.9878   36.2364   15.8976 H         1 VIB502      0.0000 
     30 H          -5.7620   34.9732   16.5230 H         1 VIB502      0.0000 
     31 H          -6.5838   36.1142   15.7426 H         1 VIB502      0.0000 
     32 H          -7.7517   36.9612   22.0918 H         1 VIB502      0.0000 
     33 H          -8.6059   37.3876   23.3859 H         1 VIB502      0.0000 
     34 H          -9.3168   37.3006   21.9461 H         1 VIB502      0.0000 
     35 H         -12.3438   41.7215   21.9922 H         1 VIB502      0.0000 
@<TRIPOS>BOND
     1   15    1 1    
     2   29    1 1    
     3   30    1 1    
     4   31    1 1    
     5   13    2 1    
     6   19    2 1    
     7   20    2 1    
     8   10    3 1    
     9   32    3 1    
    10   33    3 1    
    11   34    3 1    
    12    5    4 1    
    13   35    4 1    
    14    6    5 1    
    15   21    5 1    
    16   22    5 1    
    17    9    6 1    
    18   23    6 1    
    19   24    6 1    
    20    8    7 1    
    21   11    7 2    
    22   25    7 1    
    23    9    8 1    
    24   10    9 2    
    25   11   10 1    
    26   12   11 1    
    27   18   12 1    
    28   26   12 1    
    29   27   12 1    
    30   14   13 ar   
    31   18   13 ar   
    32   15   14 ar   
    33   16   15 ar   
    34   17   16 ar   
    35   18   17 ar   
    36   28   17 1    
@<TRIPOS>SUBSTRUCTURE
     1 VIB502      1 GROUP   
@<TRIPOS>SET

