#    Name: 3zsi_52P_1_INTS_M
#    Modification time : Tue Mar 25 03:55:03 2014

@<TRIPOS>MOLECULE
3zsi_52P_1_INTS_M
   79     0     6     0     0
SMALL
NO_CHARGES


@<TRIPOS>ATOM
      1 CA         -5.7780   -3.3025   15.2935 C.3       2 GLC5        0.0000 
      2 CA         -6.4750   -1.8380   14.7850 C.3       6 GLL5        0.0000 
      3 CA         -5.0810   -4.7670   15.8020 C.3       4 GLP5        0.0000 
      4 CA         -4.6830    1.8515   20.3140 C.3       2 GLC5        0.0000 
      5 CA         -3.5100    1.1770   18.8620 C.3       6 GLL5        0.0000 
      6 CA         -5.8560    2.5260   21.7660 C.3       4 GLP5        0.0000 
      7 CA         -5.2025    2.4145   18.6815 C.3       2 GLC5        0.0000 
      8 CA         -6.8950    3.6520   18.5010 C.3       4 GLP5        0.0000 
      9 CA         -1.7135    0.0475   18.4880 C.3       2 GLC5        0.0000 
     10 CA          0.0830   -1.0820   18.1140 C.3       4 GLP5        0.0000 
     11 CA         -4.2545    1.4365   21.5450 C.3       2 GLC5        0.0000 
     12 CA         -2.6530    0.3470   21.3240 C.3       6 GLL5        0.0000 
     13 CA         -1.2850   -0.3675   19.7190 C.3       2 GLC5        0.0000 
     14 CA         -2.7495    1.7445   22.8830 C.3       2 GLC5        0.0000 
     15 CA         -2.8460    3.1420   24.4420 C.3       4 GLP5        0.0000 
     16 CA         -4.4720   -0.1745   22.2825 C.3       2 GLC5        0.0000 
     17 CA         -2.2710   -0.5750   22.2460 C.3       6 GLL5        0.0000 
     18 CA         -6.6730    0.2260   22.3190 C.3       4 GLP5        0.0000 
     19 CA         -0.3205   -0.5935   21.1335 C.3       2 GLC5        0.0000 
     20 CA          1.6300   -0.6120   20.0210 C.3       4 GLP5        0.0000 
     21 CA         -1.9350    0.9955   23.6720 C.3       2 GLC5        0.0000 
     22 CA         -1.5990    2.5660   25.0980 C.3       4 GLP5        0.0000 
     23 CA         -4.2130   -2.7435   21.3015 C.3       2 GLC5        0.0000 
     24 CA         -2.2540   -1.9420   21.8900 C.3       6 GLL5        0.0000 
     25 CA         -6.1720   -3.5450   20.7130 C.3       4 GLP5        0.0000 
     26 CA         -1.9605   -5.0375   25.7205 C.3       2 GLC5        0.0000 
     27 CA         -2.3450   -2.8760   25.2550 C.3       6 GLL5        0.0000 
     28 CA         -1.5760   -7.1990   26.1860 C.3       4 GLP5        0.0000 
     29 CA         -5.0710   -4.9405   24.7035 C.3       2 GLC5        0.0000 
     30 CA         -3.9090   -3.5480   24.9430 C.3       6 GLL5        0.0000 
     31 CA         -6.2330   -6.3330   24.4640 C.3       4 GLP5        0.0000 
     32 CA          2.4205   -1.5280   24.1870 C.3       2 GLC5        0.0000 
     33 CA          0.9170   -1.7580   23.1910 C.3       6 GLL5        0.0000 
     34 CA          3.9240   -1.2980   25.1830 C.3       4 GLP5        0.0000 
     35 CA          1.4385   -3.1395   21.9445 C.3       2 GLC5        0.0000 
     36 CA          1.9600   -4.5210   20.6980 C.3       4 GLP5        0.0000 
     37 CA          1.2735   -1.1850   21.6060 C.3       2 GLC5        0.0000 
     38 N          -1.8645   -6.5485   22.6030 N.am      1 SEC2        0.0000 
     39 N          -1.5580   -5.1930   23.1050 N.am      5 SEL2        0.0000 
     40 N          -2.1710   -7.9040   22.1010 N.am      3 SEP2        0.0000 
     41 N          -1.4455   -6.2685   23.9250 N.am      1 SEC2        0.0000 
     42 N          -1.3330   -7.3440   24.7450 N.am      3 SEP2        0.0000 
     43 N          -2.2115   -6.2340   21.5940 N.am      1 SEC2        0.0000 
     44 N          -2.2520   -4.5640   21.0870 N.am      5 SEL2        0.0000 
     45 CA         -6.3440   -0.0835   20.7865 C.3       2 GLC5        0.0000 
     46 CA         -6.0150   -0.3930   19.2540 C.3       6 GLL5        0.0000 
     47 CA         -8.0760   -0.8995   19.3450 C.3       2 GLC5        0.0000 
     48 CA        -10.1370   -1.4060   19.4360 C.3       4 GLP5        0.0000 
     49 CA         -6.5162   -1.7223   13.4330 C.3       2 GLC5        0.0000 
     50 CA         -5.7860   -1.1450   15.7090 C.3       6 GLL5        0.0000 
     51 CA         -6.9020   -1.9530   11.6190 C.3       4 GLP5        0.0000 
     52 CA         -4.0332    0.2900   13.9165 C.3       2 GLC5        0.0000 
     53 CA         -4.6290   -0.4640   15.3620 C.3       6 GLL5        0.0000 
     54 CA         -3.7860    0.6900   11.9890 C.3       4 GLP5        0.0000 
     55 CA         -3.0112   -1.5160   15.1645 C.3       2 GLC5        0.0000 
     56 CA         -1.7420   -2.9220   14.4850 C.3       4 GLP5        0.0000 
     57 CA         -3.9355   -1.8105   26.0025 C.3       2 GLC5        0.0000 
     58 CA         -4.7440   -0.4090   26.9060 C.3       4 GLP5        0.0000 
     59 CA         -3.0490   -1.3632   26.7965 C.3       2 GLC5        0.0000 
     60 CA         -1.9780   -2.5860   26.5560 C.3       6 GLL5        0.0000 
     61 CA          0.0935   -3.7207   26.8020 C.3       2 GLC5        0.0000 
     62 CA          1.5410   -5.1240   26.9170 C.3       4 GLP5        0.0000 
     63 CA          0.7585   -3.5330   26.0222 C.3       2 GLC5        0.0000 
     64 CA          0.1540   -1.7990   25.7810 C.3       6 GLL5        0.0000 
     65 CA          1.9500   -1.6200   25.1552 C.3       2 GLC5        0.0000 
     66 CA         -1.2820   -0.1941   26.2545 C.3       2 GLC5        0.0000 
     67 CA         -1.9640    1.6700   26.2750 C.3       4 GLP5        0.0000 
     68 CA         -5.2862   -2.3000   17.9090 C.3       2 GLC5        0.0000 
     69 CA         -4.7870   -4.1960   17.1990 C.3       4 GLP5        0.0000 
     70 CA         -6.0941   -2.1532   19.2645 C.3       2 GLC5        0.0000 
     71 CA         -6.7466    0.8673   17.8780 C.3       2 GLC5        0.0000 
     72 CA         -5.5560   -0.4150   17.9840 C.3       6 GLL5        0.0000 
     73 CA         -7.6220    2.4100   17.9830 C.3       4 GLP5        0.0000 
     74 CA         -7.1287   -0.1447   14.9729 C.3       2 GLC5        0.0000 
     75 CA         -6.2470   -1.1190   17.0130 C.3       6 GLL5        0.0000 
     76 CA         -8.4440    0.7590   13.7870 C.3       4 GLP5        0.0000 
     77 CA         -7.8654   -2.3826   15.7590 C.3       2 GLC5        0.0000 
     78 CA         -9.5420   -3.4600   15.3880 C.3       4 GLP5        0.0000 
     79 CA         -5.2571   -2.5789   16.7366 C.3       2 GLC5        0.0000 
@<TRIPOS>BOND
@<TRIPOS>SUBSTRUCTURE
     1 SEC2       38 GROUP        1 X    SEC  0     ROOT SEC X 2
     2 GLC5        1 GROUP        1 X    GLC  0     **** GLC X 6
     3 SEP2       40 GROUP        1 Y    SEP  0     ROOT SEP Y 9
     4 GLP5        3 GROUP        1 Y    GLP  0     **** GLP Y 13
     5 SEL2       39 GROUP        1 Z    SEL  0     ROOT SEL Z 16
     6 GLL5        2 GROUP        1 Z    GLL  0     **** GLL Z 20
@<TRIPOS>SET

