#    Name: 3zsi_52P_1_ligand
#    Modification time : Tue Mar 25 03:55:03 2014

@<TRIPOS>MOLECULE
3zsi_52P_1_ligand
   37    40     1     0     0
SMALL
NO_CHARGES


@<TRIPOS>ATOM
      1 F1         -6.4750   -1.8380   14.7850 F         1 52P1000     0.0000 
      2 C2         -5.7860   -1.1450   15.7090 C.ar      1 52P1000     0.0000 
      3 C3         -4.6290   -0.4640   15.3620 C.ar      1 52P1000     0.0000 
      4 C4         -3.9320    0.2440   16.3260 C.ar      1 52P1000     0.0000 
      5 C5         -4.3950    0.2730   17.6400 C.ar      1 52P1000     0.0000 
      6 S6         -3.5100    1.1770   18.8620 S.3       1 52P1000     0.0000 
      7 C7         -3.0230   -0.0610   20.0210 C.2       1 52P1000     0.0000 
      8 C8         -2.6530    0.3470   21.3240 C.2       1 52P1000     0.0000 
      9 C9         -2.2710   -0.5750   22.2460 C.2       1 52P1000     0.0000 
     10 C10        -2.2540   -1.9420   21.8900 C.2       1 52P1000     0.0000 
     11 C11        -1.8670   -2.9420   22.8050 C.2       1 52P1000     0.0000 
     12 C12        -1.4610   -2.6290   24.1980 C.ar      1 52P1000     0.0000 
     13 C13        -2.3450   -2.8760   25.2550 C.ar      1 52P1000     0.0000 
     14 CL14       -3.9090   -3.5480   24.9430 Cl        1 52P1000     0.0000 
     15 C15        -1.9780   -2.5860   26.5560 C.ar      1 52P1000     0.0000 
     16 C16        -0.7300   -2.0490   26.8180 C.ar      1 52P1000     0.0000 
     17 C17         0.1540   -1.7990   25.7810 C.ar      1 52P1000     0.0000 
     18 C18        -0.2020   -2.0850   24.4740 C.ar      1 52P1000     0.0000 
     19 CL19        0.9170   -1.7580   23.1910 Cl        1 52P1000     0.0000 
     20 C20        -1.8820   -4.2860   22.3510 C.2       1 52P1000     0.0000 
     21 O21        -1.5580   -5.1930   23.1050 O.2       1 52P1000     0.0000 
     22 N22        -2.2520   -4.5640   21.0870 N.2       1 52P1000     0.0000 
     23 C23        -2.6060   -3.6250   20.2500 C.2       1 52P1000     0.0000 
     24 N24        -2.6210   -2.3140   20.6090 N.pl3     1 52P1000     0.0000 
     25 N25        -3.0060   -1.3330   19.6810 N.2       1 52P1000     0.0000 
     26 C26        -5.5560   -0.4150   17.9840 C.ar      1 52P1000     0.0000 
     27 F27        -6.0150   -0.3930   19.2540 F         1 52P1000     0.0000 
     28 C28        -6.2470   -1.1190   17.0130 C.ar      1 52P1000     0.0000 
     29 H          -4.2905   -0.4855   14.3909 H         1 52P1000     0.0000 
     30 H          -3.0717    0.7501   16.0764 H         1 52P1000     0.0000 
     31 H          -2.6816    1.3527   21.5503 H         1 52P1000     0.0000 
     32 H          -1.9938   -0.3066   23.1958 H         1 52P1000     0.0000 
     33 H          -2.6328   -2.7694   27.3301 H         1 52P1000     0.0000 
     34 H          -0.4559   -1.8336   27.7894 H         1 52P1000     0.0000 
     35 H           1.0832   -1.3972   25.9844 H         1 52P1000     0.0000 
     36 H          -2.8931   -3.8687   19.2593 H         1 52P1000     0.0000 
     37 H          -7.1104   -1.6269   17.2635 H         1 52P1000     0.0000 
@<TRIPOS>BOND
     1    2    1 1    
     2    3    2 ar   
     3   28    2 ar   
     4    4    3 ar   
     5   29    3 1    
     6    5    4 ar   
     7   30    4 1    
     8    6    5 1    
     9   26    5 ar   
    10    7    6 1    
    11    8    7 1    
    12   25    7 2    
    13    9    8 2    
    14   31    8 1    
    15   10    9 1    
    16   32    9 1    
    17   11   10 2    
    18   24   10 1    
    19   12   11 1    
    20   20   11 1    
    21   13   12 ar   
    22   18   12 ar   
    23   14   13 1    
    24   15   13 ar   
    25   16   15 ar   
    26   33   15 1    
    27   17   16 ar   
    28   34   16 1    
    29   18   17 ar   
    30   35   17 1    
    31   19   18 1    
    32   21   20 2    
    33   22   20 1    
    34   23   22 2    
    35   24   23 1    
    36   36   23 1    
    37   25   24 1    
    38   27   26 1    
    39   28   26 ar   
    40   37   28 1    
@<TRIPOS>SUBSTRUCTURE
     1 52P1000     1 GROUP   
@<TRIPOS>SET

