#    Name: 3NYC_1_CAVITY_N1_ALL.mol2
#    Modification time : Tue Mar 11 18:45:19 2014

@<TRIPOS>MOLECULE
3NYC_1_CAVITY_N1_ALL.mol2
   68     0     5     0     0
SMALL
NO_CHARGES


@<TRIPOS>ATOM
      1 CA          3.3756   16.1033   13.4233 C.3       4 GLY6        0.0000 
      2 N           2.3847   16.7529   14.3432 N.2       2 ALA2        0.0000 
      3 N           2.3570   15.0636   13.0604 N.2       2 ALA2        0.0000 
      4 CA          1.3662   15.7133   13.9802 C.3       4 GLY6        0.0000 
      5 N           6.8562   14.9792   13.0745 N.2       2 ALA2        0.0000 
      6 N           5.8654   15.6288   13.9943 N.2       2 ALA2        0.0000 
      7 CA          4.8745   16.2785   14.9142 C.3       4 GLY6        0.0000 
      8 N           4.8468   14.5892   13.6314 N.2       2 ALA2        0.0000 
      9 CA          3.8559   15.2389   14.5512 C.3       4 GLY6        0.0000 
     10 CA          2.8651   15.8886   15.4711 C.3       4 GLY6        0.0000 
     11 N           2.8374   14.1993   14.1883 N.2       2 ALA2        0.0000 
     12 N           1.8465   14.8490   15.1081 N.2       2 ALA2        0.0000 
     13 N           0.8556   15.4986   16.0280 N.2       2 ALA2        0.0000 
     14 N           0.8279   13.8093   14.7452 N.2       2 ALA2        0.0000 
     15 CA         -0.1629   14.4590   15.6650 C.3       4 GLY6        0.0000 
     16 N          -1.1815   13.4194   15.3021 N.2       2 ALA2        0.0000 
     17 OG          7.3365   14.1148   14.2024 O.2       1 SER1        0.0000 
     18 CA          6.3457   14.7645   15.1222 C.3       4 GLY6        0.0000 
     19 N           6.3180   13.0752   13.8394 N.2       2 ALA2        0.0000 
     20 N           5.3271   13.7248   14.7593 N.2       2 ALA2        0.0000 
     21 CA          4.3362   14.3745   15.6791 C.3       4 GLY6        0.0000 
     22 CA          3.3177   13.3349   15.3162 C.3       4 GLY6        0.0000 
     23 CA          2.3268   13.9846   16.2360 C.3       4 GLY6        0.0000 
     24 N           1.3360   14.6343   17.1559 N.2       2 ALA2        0.0000 
     25 CA          1.3082   12.9450   15.8731 C.3       4 GLY6        0.0000 
     26 N           0.3174   13.5946   16.7929 N.2       2 ALA2        0.0000 
     27 CA          6.8260   13.9001   16.2501 C.3       4 GLY6        0.0000 
     28 N           5.8074   12.8605   15.8872 N.2       2 ALA2        0.0000 
     29 CA          4.8166   13.5102   16.8070 C.3       4 GLY6        0.0000 
     30 CA          3.8257   14.1598   17.7269 C.3       4 GLY6        0.0000 
     31 CA          3.7980   12.4705   16.4441 C.3       4 GLY6        0.0000 
     32 N           2.8071   13.1202   17.3639 N.2       2 ALA2        0.0000 
     33 CA          1.8163   13.7699   18.2838 C.3       4 GLY6        0.0000 
     34 CA          1.7886   12.0806   17.0010 C.3       4 GLY6        0.0000 
     35 O           0.7977   12.7303   17.9208 O.2       2 ALA2        0.0000 
     36 CA          0.7700   11.0410   16.6380 C.3       4 GLY6        0.0000 
     37 CA         -0.2209   11.6907   17.5579 C.3       4 GLY6        0.0000 
     38 OG          7.3063   13.0357   17.3780 O.2       1 SER1        0.0000 
     39 O           6.3155   13.6854   18.2979 O.2       2 ALA2        0.0000 
     40 OG          6.2878   11.9961   17.0151 O.2       1 SER1        0.0000 
     41 O           5.2969   12.6458   17.9349 O.2       2 ALA2        0.0000 
     42 N           4.3060   13.2955   18.8548 N.2       2 ALA2        0.0000 
     43 N           4.2783   11.6062   17.5720 N.2       2 ALA2        0.0000 
     44 N           3.2875   12.2558   18.4918 N.2       2 ALA2        0.0000 
     45 CA          3.2598   10.5666   17.2090 C.3       4 GLY6        0.0000 
     46 N           2.2689   11.2162   18.1289 N.2       2 ALA2        0.0000 
     47 N           1.2780   11.8659   19.0487 N.2       2 ALA2        0.0000 
     48 CA          2.2412    9.5269   16.8461 C.3       4 GLY6        0.0000 
     49 CA          1.2503   10.1766   17.7659 C.3       4 GLY6        0.0000 
     50 OG          7.7866   12.1714   18.5059 O.2       1 SER1        0.0000 
     51 O           6.7958   12.8210   19.4258 O.2       2 ALA2        0.0000 
     52 O           5.8049   13.4707   20.3456 O.2       2 ALA2        0.0000 
     53 OG          7.7589   10.4821   17.2231 O.2       1 SER1        0.0000 
     54 OG          6.7681   11.1317   18.1430 O.2       1 SER1        0.0000 
     55 N           5.7772   11.7814   19.0628 N.2       2 ALA2        0.0000 
     56 N           6.7404    9.4425   16.8602 N.2       2 ALA2        0.0000 
     57 N           5.7495   10.0921   17.7800 N.2       2 ALA2        0.0000 
     58 N           4.7586   10.7418   18.6999 N.2       2 ALA2        0.0000 
     59 CA          4.7309    9.0525   17.4171 C.3       4 GLY6        0.0000 
     60 CA          3.7401    9.7022   18.3369 C.3       4 GLY6        0.0000 
     61 CA          1.7307    9.3123   18.8938 C.3       4 GLY6        0.0000 
     62 CZ          8.2670   11.3070   19.6338 C.ar      3 PHE5        0.0000 
     63 O           7.2761   11.9567   20.5536 O.2       2 ALA2        0.0000 
     64 CA          8.2393    9.6177   18.3510 C.3       4 GLY6        0.0000 
     65 DU          7.2484   10.2674   19.2709 H         5 CUB7        0.0000 
     66 N           6.2575   10.9170   20.1907 N.2       2 ALA2        0.0000 
     67 O           6.2298    9.2278   18.9079 O.2       2 ALA2        0.0000 
     68 N           5.2390    9.8774   19.8278 N.2       2 ALA2        0.0000 
@<TRIPOS>BOND
@<TRIPOS>SUBSTRUCTURE
     1 SER1       17 GROUP   
     2 ALA2        2 GROUP   
     3 PHE5       62 GROUP   
     4 GLY6        1 GROUP   
     5 CUB7       65 GROUP   
@<TRIPOS>SET

