#    Name: 3nyc_FAD_1_INTS_M
#    Modification time : Tue Mar 25 02:57:37 2014

@<TRIPOS>MOLECULE
3nyc_FAD_1_INTS_M
  138     0     9     0     0
SMALL
NO_CHARGES


@<TRIPOS>ATOM
      1 N          -3.4620   14.2660   12.1490 N.am      2 SEC2        0.0000 
      2 N          -4.7310   14.9500   12.3690 N.am      8 SEL2        0.0000 
      3 N          -2.1930   13.5820   11.9290 N.am      5 SEP2        0.0000 
      4 N          -4.5895   13.7225   12.8270 N.am      2 SEC2        0.0000 
      5 N          -4.4480   12.4950   13.2850 N.am      5 SEP2        0.0000 
      6 N          -3.0620   16.8265   11.6140 N.am      2 SEC2        0.0000 
      7 N          -4.3270   17.4440   12.1850 N.am      8 SEL2        0.0000 
      8 N          -1.7970   16.2090   11.0430 N.am      5 SEP2        0.0000 
      9 CA         -6.7635   18.7215   13.8890 C.3       3 GLC5        0.0000 
     10 CA         -7.3440   17.7310   12.4220 C.3       9 GLL5        0.0000 
     11 CA         -6.1830   19.7120   15.3560 C.3       6 GLP5        0.0000 
     12 CA        -10.0715   17.5425   11.4105 C.3       3 GLC5        0.0000 
     13 CA         -8.2010   17.7430   11.1930 C.3       9 GLL5        0.0000 
     14 CA        -11.9420   17.3420   11.6280 C.3       6 GLP5        0.0000 
     15 O          -8.8670   16.5960    8.7390 O.2       1 ALC1        0.0000 
     16 O          -7.5620   16.7460    9.0330 O.2       7 ALL1        0.0000 
     17 O         -10.1720   16.4460    8.4450 O.2       4 ALP1        0.0000 
     18 CA         -6.6125   20.7460   10.2855 C.3       3 GLC5        0.0000 
     19 CA         -7.8200   19.2070    9.3200 C.3       9 GLL5        0.0000 
     20 CA         -5.4050   22.2850   11.2510 C.3       6 GLP5        0.0000 
     21 N          -7.1925   20.6635    7.8545 N.am      2 SEC2        0.0000 
     22 N          -7.8130   19.3050    7.8970 N.am      8 SEL2        0.0000 
     23 N          -6.5720   22.0220    7.8120 N.am      5 SEP2        0.0000 
     24 O          -8.6140   18.4140    7.2895 O.2       1 ALC1        0.0000 
     25 O          -7.8130   19.3050    7.8970 O.2       7 ALL1        0.0000 
     26 O          -9.4150   17.5230    6.6820 O.2       4 ALP1        0.0000 
     27 CA        -10.5765   18.3530   10.7725 C.3       3 GLC5        0.0000 
     28 CA         -9.2110   19.3640    9.9170 C.3       9 GLL5        0.0000 
     29 CA         -9.4975   19.8865   12.0710 C.3       3 GLC5        0.0000 
     30 CA         -9.7840   20.4090   14.2250 C.3       6 GLP5        0.0000 
     31 CA        -12.4920   23.8755    7.3075 C.3       3 GLC5        0.0000 
     32 CA        -12.1690   23.1360    9.1100 C.3       9 GLL5        0.0000 
     33 CA        -12.8150   24.6150    5.5050 C.3       6 GLP5        0.0000 
     34 CA        -14.2720   23.5650    9.2580 C.3       3 GLC5        0.0000 
     35 CA        -16.3750   23.9940    9.4060 C.3       6 GLP5        0.0000 
     36 O         -13.5900   25.3195    8.5715 O.2       1 ALC1        0.0000 
     37 O         -12.3170   24.4860    9.0730 O.2       7 ALL1        0.0000 
     38 O         -14.8630   26.1530    8.0700 O.2       4 ALP1        0.0000 
     39 N         -14.3100   22.8895    7.9325 N.am      2 SEC2        0.0000 
     40 N         -13.1660   22.3400    8.6400 N.am      8 SEL2        0.0000 
     41 N         -15.4540   23.4390    7.2250 N.am      5 SEP2        0.0000 
     42 CA        -13.6470   21.2280   10.3235 C.3       3 GLC5        0.0000 
     43 CA        -13.0300   21.0190    8.6220 C.3       9 GLL5        0.0000 
     44 CA        -14.2640   21.4370   12.0250 C.3       6 GLP5        0.0000 
     45 CA        -13.1125   19.2030    7.8215 C.3       3 GLC5        0.0000 
     46 CA        -13.1950   17.3870    7.0210 C.3       6 GLP5        0.0000 
     47 CA        -11.8260   21.1165    7.1275 C.3       3 GLC5        0.0000 
     48 CA        -10.6220   21.2140    5.6330 C.3       6 GLP5        0.0000 
     49 CA        -13.6785   21.8010    6.9320 C.3       3 GLC5        0.0000 
     50 CA        -14.3270   22.5830    5.2420 C.3       6 GLP5        0.0000 
     51 N         -11.9555   19.7740    7.5100 N.am      2 SEC2        0.0000 
     52 N         -11.9280   20.3060    8.9820 N.am      8 SEL2        0.0000 
     53 N         -11.9830   19.2420    6.0380 N.am      5 SEP2        0.0000 
     54 CA        -11.4460   19.2270   10.5415 C.3       3 GLC5        0.0000 
     55 CA        -10.9500   21.1120    9.4550 C.3       9 GLL5        0.0000 
     56 N          -0.7770    9.7805   19.4760 N.am      2 SEC2        0.0000 
     57 N           0.5640    9.5670   19.9590 N.am      8 SEL2        0.0000 
     58 N          -2.1180    9.9940   18.9930 N.am      5 SEP2        0.0000 
     59 N          -0.4470    8.6610   20.2810 N.am      2 SEC2        0.0000 
     60 N          -1.4580    7.7550   20.6030 N.am      5 SEP2        0.0000 
     61 O           3.0020    7.7980   19.7860 O.2       1 ALC1        0.0000 
     62 O           2.6870    9.2080   19.2650 O.2       7 ALL1        0.0000 
     63 O           3.3170    6.3880   20.3070 O.2       4 ALP1        0.0000 
     64 N           4.7020    7.4560   18.2815 N.am      2 SEC2        0.0000 
     65 N           4.8530    8.8170   18.6300 N.am      8 SEL2        0.0000 
     66 N           4.5510    6.0950   17.9330 N.am      5 SEP2        0.0000 
     67 CA          7.9570   15.4430   14.7565 C.3       3 GLC5        0.0000 
     68 CA          6.8950   14.1810   13.8100 C.3       9 GLL5        0.0000 
     69 CA          9.0190   16.7050   15.7030 C.3       6 GLP5        0.0000 
     70 CA          8.6485   13.5715   12.5690 C.3       3 GLC5        0.0000 
     71 CA         10.4020   12.9620   11.3280 C.3       6 GLP5        0.0000 
     72 CA          3.5625   14.9645   11.9060 C.3       3 GLC5        0.0000 
     73 CA          4.3870   15.7220   13.7670 C.3       9 GLL5        0.0000 
     74 CA          2.7380   14.2070   10.0450 C.3       6 GLP5        0.0000 
     75 CA          6.1735   16.7435   14.6230 C.3       3 GLC5        0.0000 
     76 CA          7.9600   17.7650   15.4790 C.3       6 GLP5        0.0000 
     77 CA          4.0755   16.8750   12.5715 C.3       3 GLC5        0.0000 
     78 CA          3.7640   18.0280   11.3760 C.3       6 GLP5        0.0000 
     79 CA          4.0555   16.4465   15.6760 C.3       3 GLC5        0.0000 
     80 CA          3.7240   17.1710   17.5850 C.3       6 GLP5        0.0000 
     81 CA          3.6145   15.6955   16.5745 C.3       3 GLC5        0.0000 
     82 CA          3.5050   14.2200   15.5640 C.3       9 GLL5        0.0000 
     83 CA          2.9815   11.7980   15.3770 C.3       3 GLC5        0.0000 
     84 CA          3.5930   13.1030   16.4050 C.3       9 GLL5        0.0000 
     85 CA          2.3700   10.4930   14.3490 C.3       6 GLP5        0.0000 
     86 CA          4.3815   14.9275   17.1365 C.3       3 GLC5        0.0000 
     87 CA          5.1700   16.7520   17.8680 C.3       6 GLP5        0.0000 
     88 CA          2.5420   15.3835   17.5540 C.3       3 GLC5        0.0000 
     89 CA          1.3600   13.5960   17.5230 C.3       9 GLL5        0.0000 
     90 CA          2.0485   14.1740   19.1860 C.3       3 GLC5        0.0000 
     91 CA          2.7370   14.7520   20.8490 C.3       6 GLP5        0.0000 
     92 CA          1.2580   11.8925   15.4935 C.3       3 GLC5        0.0000 
     93 CA          0.1460   13.2920   16.6380 C.3       9 GLL5        0.0000 
     94 CA         -0.9810   11.5195   16.1595 C.3       3 GLC5        0.0000 
     95 CA         -2.1080    9.7470   15.6810 C.3       6 GLP5        0.0000 
     96 N          -1.3015   13.3830   19.4025 N.am      2 SEC2        0.0000 
     97 N          -1.1480   14.4310   18.3770 N.am      8 SEL2        0.0000 
     98 N          -1.4550   12.3350   20.4280 N.am      5 SEP2        0.0000 
     99 O          -0.2470   15.3255   19.0140 O.2       1 ALC1        0.0000 
    100 O          -1.1480   14.4310   18.3770 O.2       7 ALL1        0.0000 
    101 O           0.6540   16.2200   19.6510 O.2       4 ALP1        0.0000 
    102 CA         -2.2130   11.8205   16.0320 C.3       3 GLC5        0.0000 
    103 CA         -2.3180   13.8940   16.3830 C.3       9 GLL5        0.0000 
    104 O          -3.2945   12.9870   14.1610 O.2       1 ALC1        0.0000 
    105 O          -2.1410   13.4790   15.0370 O.2       7 ALL1        0.0000 
    106 O          -4.4480   12.4950   13.2850 O.2       4 ALP1        0.0000 
    107 CA         -3.5085   15.3660   18.3885 C.3       3 GLC5        0.0000 
    108 CA         -3.2990   15.0410   16.4700 C.3       9 GLL5        0.0000 
    109 CA         -3.7180   15.6910   20.3070 C.3       6 GLP5        0.0000 
    110 N          -7.6090   13.7305   15.7030 N.am      2 SEC2        0.0000 
    111 N          -6.8470   14.8310   15.0820 N.am      8 SEL2        0.0000 
    112 N          -8.3710   12.6300   16.3240 N.am      5 SEP2        0.0000 
    113 CA         -8.7782   19.0730   13.0162 C.3       3 GLC5        0.0000 
    114 CA         -6.1113   18.7890    8.4743 C.3       3 GLC5        0.0000 
    115 CA         -7.3630   17.8570    9.9030 C.3       9 GLL5        0.0000 
    116 CA         -4.6310   19.0460    7.3370 C.3       6 GLP5        0.0000 
    117 CA        -10.7018   21.7532   11.6615 C.3       3 GLC5        0.0000 
    118 CA        -11.0030   22.4850    9.5790 C.3       9 GLL5        0.0000 
    119 CA        -10.4270   21.7080   13.8060 C.3       6 GLP5        0.0000 
    120 CA        -12.2950   23.9007   10.8662 C.3       3 GLC5        0.0000 
    121 CA        -13.0040   24.9910   12.3880 C.3       6 GLP5        0.0000 
    122 CA        -12.7660   21.6991   10.7124 C.3       3 GLC5        0.0000 
    123 CA        -10.9450   21.5876    7.5164 C.3       3 GLC5        0.0000 
    124 CA          4.4313   11.7170   14.7075 C.3       3 GLC5        0.0000 
    125 CA          4.7800   12.3620   16.4160 C.3       9 GLL5        0.0000 
    126 CA          3.5450   10.8790   13.4030 C.3       6 GLP5        0.0000 
    127 CA          7.2878   14.5905   16.0753 C.3       3 GLC5        0.0000 
    128 CA          5.8550   12.7480   15.6080 C.3       9 GLL5        0.0000 
    129 CA          8.7690   15.8920   16.9640 C.3       6 GLP5        0.0000 
    130 CA          5.1640   15.4750   16.3107 C.3       3 GLC5        0.0000 
    131 CA          5.7580   13.8300   14.7650 C.3       9 GLL5        0.0000 
    132 CA          3.9383   12.5440   14.2809 C.3       3 GLC5        0.0000 
    133 CA         -2.2353   13.1065   18.3140 C.3       3 GLC5        0.0000 
    134 CA         -2.8370   12.1010   19.9590 C.3       6 GLP5        0.0000 
    135 CA         -4.1862   12.9002   16.5648 C.3       3 GLC5        0.0000 
    136 CA         -5.5640   11.3330   16.7030 C.3       6 GLP5        0.0000 
    137 CA         -1.7721   15.4227   14.9802 C.3       3 GLC5        0.0000 
    138 CA         -1.0780   16.2690   13.3910 C.3       6 GLP5        0.0000 
@<TRIPOS>BOND
@<TRIPOS>SUBSTRUCTURE
     1 ALC1       15 GROUP        1 X    ALC  0     ROOT ALC X 1
     2 SEC2        1 GROUP        1 X    SEC  0     **** SEC X 2
     3 GLC5        9 GROUP        1 X    GLC  0     **** GLC X 6
     4 ALP1       17 GROUP        1 Y    ALP  0     ROOT ALP Y 8
     5 SEP2        3 GROUP        1 Y    SEP  0     **** SEP Y 9
     6 GLP5       11 GROUP        1 Y    GLP  0     **** GLP Y 13
     7 ALL1       16 GROUP        1 Z    ALL  0     ROOT ALL Z 15
     8 SEL2        2 GROUP        1 Z    SEL  0     **** SEL Z 16
     9 GLL5       10 GROUP        1 Z    GLL  0     **** GLL Z 20
@<TRIPOS>SET

