#    Name: 3nyc_FAD_1_ligand
#    Modification time : Tue Mar 25 02:57:37 2014

@<TRIPOS>MOLECULE
3nyc_FAD_1_ligand
   84    89     1     0     0
SMALL
NO_CHARGES


@<TRIPOS>ATOM
      1 PA         -5.1140   16.3340   12.7660 P.3       1 FAD1500     0.0000 
      2 O1A        -4.7310   14.9500   12.3690 O.co2     1 FAD1500     0.0000 
      3 O2A        -4.3270   17.4440   12.1850 O.co2     1 FAD1500     0.0000 
      4 O5B        -6.6400   16.4500   12.3640 O.3       1 FAD1500     0.0000 
      5 C5B        -7.3440   17.7310   12.4220 C.3       1 FAD1500     0.0000 
      6 C4B        -8.2010   17.7430   11.1930 C.3       1 FAD1500     0.0000 
      7 O4B        -9.0310   18.9410   11.2670 O.3       1 FAD1500     0.0000 
      8 C3B        -7.3630   17.8570    9.9030 C.3       1 FAD1500     0.0000 
      9 O3B        -7.5620   16.7460    9.0330 O.3       1 FAD1500     0.0000 
     10 C2B        -7.8200   19.2070    9.3200 C.3       1 FAD1500     0.0000 
     11 O2B        -7.8130   19.3050    7.8970 O.3       1 FAD1500     0.0000 
     12 C1B        -9.2110   19.3640    9.9170 C.3       1 FAD1500     0.0000 
     13 N9A        -9.7280   20.7260    9.9240 N.pl3     1 FAD1500     0.0000 
     14 C8A        -9.0910   21.8650   10.3130 C.2       1 FAD1500     0.0000 
     15 N7A        -9.8270   22.9520   10.1220 N.2       1 FAD1500     0.0000 
     16 C5A       -11.0030   22.4850    9.5790 C.ar      1 FAD1500     0.0000 
     17 C6A       -12.1690   23.1360    9.1100 C.ar      1 FAD1500     0.0000 
     18 N6A       -12.3170   24.4860    9.0730 N.pl3     1 FAD1500     0.0000 
     19 N1A       -13.1660   22.3400    8.6400 N.ar      1 FAD1500     0.0000 
     20 C2A       -13.0300   21.0190    8.6220 C.ar      1 FAD1500     0.0000 
     21 N3A       -11.9280   20.3060    8.9820 N.ar      1 FAD1500     0.0000 
     22 C4A       -10.9500   21.1120    9.4550 C.ar      1 FAD1500     0.0000 
     23 N1          1.4770   11.1230   18.5700 N.2       1 FAD1500     0.0000 
     24 C2          1.5460    9.9670   19.2850 C.2       1 FAD1500     0.0000 
     25 O2          0.5640    9.5670   19.9590 O.2       1 FAD1500     0.0000 
     26 N3          2.6870    9.2080   19.2650 N.am      1 FAD1500     0.0000 
     27 C4          3.8210    9.5630   18.5490 C.2       1 FAD1500     0.0000 
     28 O4          4.8530    8.8170   18.6300 O.2       1 FAD1500     0.0000 
     29 C4X         3.7980   10.7540   17.8450 C.2       1 FAD1500     0.0000 
     30 N5          4.8990   11.1950   17.1840 N.2       1 FAD1500     0.0000 
     31 C5X         4.7800   12.3620   16.4160 C.ar      1 FAD1500     0.0000 
     32 C6          5.8550   12.7480   15.6080 C.ar      1 FAD1500     0.0000 
     33 C7          5.7580   13.8300   14.7650 C.ar      1 FAD1500     0.0000 
     34 C7M         6.8950   14.1810   13.8100 C.3       1 FAD1500     0.0000 
     35 C8          4.5580   14.5660   14.7420 C.ar      1 FAD1500     0.0000 
     36 C8M         4.3870   15.7220   13.7670 C.3       1 FAD1500     0.0000 
     37 C9          3.5050   14.2200   15.5640 C.ar      1 FAD1500     0.0000 
     38 C9A         3.5930   13.1030   16.4050 C.ar      1 FAD1500     0.0000 
     39 N10         2.5250   12.7210   17.2450 N.pl3     1 FAD1500     0.0000 
     40 C10         2.5880   11.4960   17.9060 C.2       1 FAD1500     0.0000 
     41 C1'         1.3600   13.5960   17.5230 C.3       1 FAD1500     0.0000 
     42 C2'         0.1460   13.2920   16.6380 C.3       1 FAD1500     0.0000 
     43 O2'         0.5660   13.4690   15.2660 O.3       1 FAD1500     0.0000 
     44 C3'        -0.9490   14.3300   16.9550 C.3       1 FAD1500     0.0000 
     45 O3'        -1.1480   14.4310   18.3770 O.3       1 FAD1500     0.0000 
     46 C4'        -2.3180   13.8940   16.3830 C.3       1 FAD1500     0.0000 
     47 O4'        -2.1410   13.4790   15.0370 O.3       1 FAD1500     0.0000 
     48 C5'        -3.2990   15.0410   16.4700 C.3       1 FAD1500     0.0000 
     49 O5'        -4.5150   14.5800   15.8360 O.3       1 FAD1500     0.0000 
     50 P          -5.6990   15.6240   15.5650 P.3       1 FAD1500     0.0000 
     51 O1P        -6.8470   14.8310   15.0820 O.co2     1 FAD1500     0.0000 
     52 O2P        -5.8420   16.5550   16.7280 O.co2     1 FAD1500     0.0000 
     53 O3P        -5.0870   16.5200   14.3730 O.3       1 FAD1500     0.0000 
     54 H          -6.6524   18.5515   12.3849 H         1 FAD1500     0.0000 
     55 H          -7.9674   17.7876   13.2944 H         1 FAD1500     0.0000 
     56 H          -8.8019   16.8756   11.1450 H         1 FAD1500     0.0000 
     57 H          -6.3372   17.9805   10.2166 H         1 FAD1500     0.0000 
     58 H          -7.2002   19.9700    9.7998 H         1 FAD1500     0.0000 
     59 H          -9.8703   18.6879    9.4136 H         1 FAD1500     0.0000 
     60 H          -8.1731   21.8624   10.6967 H         1 FAD1500     0.0000 
     61 H         -11.5661   25.0217    9.4590 H         1 FAD1500     0.0000 
     62 H         -13.1639   24.8247    8.6630 H         1 FAD1500     0.0000 
     63 H         -13.8856   20.4317    8.2847 H         1 FAD1500     0.0000 
     64 H           2.7111    8.3108   19.8176 H         1 FAD1500     0.0000 
     65 H           6.7358   12.2018   15.6532 H         1 FAD1500     0.0000 
     66 H           2.6397   14.7840   15.5660 H         1 FAD1500     0.0000 
     67 H           1.6367   14.6548   17.3754 H         1 FAD1500     0.0000 
     68 H           1.0509   13.4928   18.5781 H         1 FAD1500     0.0000 
     69 H          -0.2055   12.3310   16.8365 H         1 FAD1500     0.0000 
     70 H          -0.6925   15.2671   16.5295 H         1 FAD1500     0.0000 
     71 H          -2.6771   13.0832   17.0021 H         1 FAD1500     0.0000 
     72 H          -2.8832   15.8945   15.9533 H         1 FAD1500     0.0000 
     73 H          -3.4627   15.2806   17.5112 H         1 FAD1500     0.0000 
     74 H           7.7442   14.3777   14.3000 H         1 FAD1500     0.0000 
     75 H           7.0898   13.4342   13.1741 H         1 FAD1500     0.0000 
     76 H           6.6813   14.9874   13.2585 H         1 FAD1500     0.0000 
     77 H           5.0737   16.4345   13.9116 H         1 FAD1500     0.0000 
     78 H           4.4715   15.4220   12.8168 H         1 FAD1500     0.0000 
     79 H           3.4907   16.1558   13.8588 H         1 FAD1500     0.0000 
     80 H          -8.5510   16.7022    8.8914 H         1 FAD1500     0.0000 
     81 H          -8.4761   18.6234    7.5875 H         1 FAD1500     0.0000 
     82 H          -0.2831   13.5247   14.7407 H         1 FAD1500     0.0000 
     83 H          -0.4704   15.0982   18.6863 H         1 FAD1500     0.0000 
     84 H          -3.0211   13.6522   14.5950 H         1 FAD1500     0.0000 
@<TRIPOS>BOND
     1    2    1 ar   
     2    3    1 ar   
     3    4    1 1    
     4   53    1 1    
     5    5    4 1    
     6    6    5 1    
     7   54    5 1    
     8   55    5 1    
     9    7    6 1    
    10    8    6 1    
    11   56    6 1    
    12   12    7 1    
    13    9    8 1    
    14   10    8 1    
    15   57    8 1    
    16   80    9 1    
    17   11   10 1    
    18   12   10 1    
    19   58   10 1    
    20   81   11 1    
    21   13   12 1    
    22   59   12 1    
    23   14   13 1    
    24   22   13 1    
    25   15   14 2    
    26   60   14 1    
    27   16   15 1    
    28   17   16 ar   
    29   22   16 ar   
    30   18   17 1    
    31   19   17 ar   
    32   61   18 1    
    33   62   18 1    
    34   20   19 ar   
    35   21   20 ar   
    36   63   20 1    
    37   22   21 ar   
    38   24   23 1    
    39   40   23 2    
    40   25   24 2    
    41   26   24 am   
    42   27   26 am   
    43   64   26 1    
    44   28   27 2    
    45   29   27 1    
    46   30   29 2    
    47   40   29 1    
    48   31   30 1    
    49   32   31 ar   
    50   38   31 ar   
    51   33   32 ar   
    52   65   32 1    
    53   34   33 1    
    54   35   33 ar   
    55   74   34 1    
    56   75   34 1    
    57   76   34 1    
    58   36   35 1    
    59   37   35 ar   
    60   77   36 1    
    61   78   36 1    
    62   79   36 1    
    63   38   37 ar   
    64   66   37 1    
    65   39   38 1    
    66   40   39 1    
    67   41   39 1    
    68   42   41 1    
    69   67   41 1    
    70   68   41 1    
    71   43   42 1    
    72   44   42 1    
    73   69   42 1    
    74   82   43 1    
    75   45   44 1    
    76   46   44 1    
    77   70   44 1    
    78   83   45 1    
    79   47   46 1    
    80   48   46 1    
    81   71   46 1    
    82   84   47 1    
    83   49   48 1    
    84   72   48 1    
    85   73   48 1    
    86   50   49 1    
    87   51   50 ar   
    88   52   50 ar   
    89   53   50 1    
@<TRIPOS>SUBSTRUCTURE
     1 FAD1500     1 GROUP   
@<TRIPOS>SET

