#    Name: 4k3t_FAD_1_INTS_M
#    Modification time : Tue Mar 25 06:55:37 2014

@<TRIPOS>MOLECULE
4k3t_FAD_1_INTS_M
  124     0     9     0     0
SMALL
NO_CHARGES


@<TRIPOS>ATOM
      1 N          -8.0130   -9.9935  510.8100 N.am      2 SEC2        0.0000 
      2 N          -9.4030  -10.0660  511.2770 N.am      8 SEL2        0.0000 
      3 N          -6.6230   -9.9210  510.3430 N.am      5 SEP2        0.0000 
      4 N         -12.8800  -11.9240  510.9195 N.am      2 SEC2        0.0000 
      5 N         -11.6120  -11.2670  510.7570 N.am      8 SEL2        0.0000 
      6 N         -14.1480  -12.5810  511.0820 N.am      5 SEP2        0.0000 
      7 N         -10.7730  -12.4635  510.8510 N.am      2 SEC2        0.0000 
      8 N          -9.9340  -13.6600  510.9450 N.am      5 SEP2        0.0000 
      9 CA         -8.8475   -7.8075  510.4955 C.3       3 GLC5        0.0000 
     10 CA        -10.5230   -7.8080  509.4470 C.3       9 GLL5        0.0000 
     11 CA         -7.1720   -7.8070  511.5440 C.3       6 GLP5        0.0000 
     12 CA        -11.4850   -8.3335  507.5590 C.3       3 GLC5        0.0000 
     13 CA        -12.4470   -8.8590  505.6710 C.3       6 GLP5        0.0000 
     14 CA        -12.6540   -5.2965  508.3995 C.3       3 GLC5        0.0000 
     15 CA        -11.3300   -6.5450  509.6140 C.3       9 GLL5        0.0000 
     16 CA        -13.9780   -4.0480  507.1850 C.3       6 GLP5        0.0000 
     17 CA        -10.5905   -5.0215  512.2965 C.3       3 GLC5        0.0000 
     18 CA        -11.7170   -6.2050  511.0430 C.3       9 GLL5        0.0000 
     19 CA         -9.4640   -3.8380  513.5500 C.3       6 GLP5        0.0000 
     20 O         -14.0740   -7.6015  512.7425 O.2       1 ALC1        0.0000 
     21 O         -13.7820   -6.4320  512.1760 O.2       7 ALL1        0.0000 
     22 O         -14.3660   -8.7710  513.3090 O.2       4 ALP1        0.0000 
     23 CA        -13.8005   -5.3600  508.4825 C.3       3 GLC5        0.0000 
     24 CA        -13.6230   -6.6720  509.7800 C.3       9 GLL5        0.0000 
     25 CA        -14.4500   -4.7370  510.0995 C.3       3 GLC5        0.0000 
     26 CA        -15.2770   -2.8020  510.4190 C.3       6 GLP5        0.0000 
     27 N         -15.7775  -10.9720  508.8935 N.am      2 SEC2        0.0000 
     28 N         -15.5330   -9.6620  508.9210 N.am      8 SEL2        0.0000 
     29 N         -16.0220  -12.2820  508.8660 N.am      5 SEP2        0.0000 
     30 CA        -19.0685   -8.3920  506.5485 C.3       3 GLC5        0.0000 
     31 CA        -17.8180   -8.6760  508.1510 C.3       9 GLL5        0.0000 
     32 CA        -20.3190   -8.1080  504.9460 C.3       6 GLP5        0.0000 
     33 O         -19.7410   -9.9820  507.4235 O.2       1 ALC1        0.0000 
     34 O         -18.4140   -9.8550  507.9100 O.2       7 ALL1        0.0000 
     35 O         -21.0680  -10.1090  506.9370 O.2       4 ALP1        0.0000 
     36 N         -19.7730   -7.3915  507.5580 N.am      2 SEC2        0.0000 
     37 N         -18.4020   -7.4540  507.9780 N.am      8 SEL2        0.0000 
     38 N         -21.1440   -7.3290  507.1380 N.am      5 SEP2        0.0000 
     39 CA        -19.7130   -6.3530  508.7940 C.3       3 GLC5        0.0000 
     40 CA        -17.7480   -6.2940  508.2550 C.3       9 GLL5        0.0000 
     41 CA        -21.6780   -6.4120  509.3330 C.3       6 GLP5        0.0000 
     42 CA        -18.8015   -6.5100  506.4160 C.3       3 GLC5        0.0000 
     43 CA        -19.8550   -6.7260  504.5770 C.3       6 GLP5        0.0000 
     44 N         -15.7780   -4.8395  508.9495 N.am      2 SEC2        0.0000 
     45 N         -16.4670   -6.2390  508.7320 N.am      8 SEL2        0.0000 
     46 N         -15.0890   -3.4400  509.1670 N.am      5 SEP2        0.0000 
     47 CA        -16.5805   -7.9080  510.7075 C.3       3 GLC5        0.0000 
     48 CA        -15.8080   -7.4190  508.9710 C.3       9 GLL5        0.0000 
     49 CA        -17.3530   -8.3970  512.4440 C.3       6 GLP5        0.0000 
     50 CA        -14.8930   -5.7335  508.0780 C.3       3 GLC5        0.0000 
     51 N          -6.0400   -9.1915  497.9245 N.am      2 SEC2        0.0000 
     52 N          -5.2750   -9.0200  499.3070 N.am      8 SEL2        0.0000 
     53 N          -6.8050   -9.3630  496.5420 N.am      5 SEP2        0.0000 
     54 N          -5.8665   -7.8830  499.3010 N.am      2 SEC2        0.0000 
     55 N          -6.4580   -6.7460  499.2950 N.am      5 SEP2        0.0000 
     56 O          -4.3305  -10.9220  497.9925 O.2       1 ALC1        0.0000 
     57 O          -3.8120  -10.6860  499.2780 O.2       7 ALL1        0.0000 
     58 O          -4.8490  -11.1580  496.7070 O.2       4 ALP1        0.0000 
     59 N          -3.0020  -14.0270  498.8405 N.am      2 SEC2        0.0000 
     60 N          -2.4610  -12.4980  499.2170 N.am      8 SEL2        0.0000 
     61 N          -3.5430  -15.5560  498.4640 N.am      5 SEP2        0.0000 
     62 CA         -3.1660  -13.6455  509.6905 C.3       3 GLC5        0.0000 
     63 CA         -2.8220  -12.8110  507.7040 C.3       9 GLL5        0.0000 
     64 CA         -3.5100  -14.4800  511.6770 C.3       6 GLP5        0.0000 
     65 CA         -2.3060  -10.8730  507.1795 C.3       3 GLC5        0.0000 
     66 CA         -1.7900   -8.9350  506.6550 C.3       6 GLP5        0.0000 
     67 CA         -4.7540  -12.2825  506.8405 C.3       3 GLC5        0.0000 
     68 CA         -3.4340  -11.8370  505.5160 C.3       9 GLL5        0.0000 
     69 CA         -6.0740  -12.7280  508.1650 C.3       6 GLP5        0.0000 
     70 CA         -3.2790   -9.3135  505.3795 C.3       3 GLC5        0.0000 
     71 CA         -4.7680   -9.6920  504.1040 C.3       9 GLL5        0.0000 
     72 CA         -3.2205   -8.5910  503.0955 C.3       3 GLC5        0.0000 
     73 CA         -1.6730   -7.4900  502.0870 C.3       6 GLP5        0.0000 
     74 CA         -7.1235  -11.8145  503.9065 C.3       3 GLC5        0.0000 
     75 CA         -6.2260  -10.0070  504.1990 C.3       9 GLL5        0.0000 
     76 CA         -8.0210  -13.6220  503.6140 C.3       6 GLP5        0.0000 
     77 N          -7.4685  -10.4205  501.9500 N.am      2 SEC2        0.0000 
     78 N          -6.7560   -9.6900  502.9280 N.am      8 SEL2        0.0000 
     79 N          -8.1810  -11.1510  500.9720 N.am      5 SEP2        0.0000 
     80 CA         -9.5370   -9.5975  503.9360 C.3       3 GLC5        0.0000 
     81 CA         -8.2610   -9.2710  505.4210 C.3       9 GLL5        0.0000 
     82 CA        -10.8130   -9.9240  502.4510 C.3       6 GLP5        0.0000 
     83 O          -8.6745   -7.2205  504.8930 O.2       1 ALC1        0.0000 
     84 O          -8.7560   -8.0690  506.0100 O.2       7 ALL1        0.0000 
     85 O          -8.5930   -6.3720  503.7760 O.2       4 ALP1        0.0000 
     86 CA         -7.2725  -11.5670  507.2725 C.3       3 GLC5        0.0000 
     87 CA         -8.4710  -10.4060  506.3800 C.3       9 GLL5        0.0000 
     88 CA         -8.2460  -12.0140  504.9970 C.3       3 GLC5        0.0000 
     89 N         -11.9635  -13.0445  508.4720 N.am      2 SEC2        0.0000 
     90 N         -11.7480  -11.8860  507.6270 N.am      8 SEL2        0.0000 
     91 N         -12.1790  -14.2030  509.3170 N.am      5 SEP2        0.0000 
     92 N         -12.5425  -10.9540  506.7490 N.am      2 SEC2        0.0000 
     93 N         -13.3370  -10.0220  505.8710 N.am      5 SEP2        0.0000 
     94 N          -8.4855  -12.7415  508.9875 N.am      2 SEC2        0.0000 
     95 N          -9.4810  -12.8940  507.8260 N.am      8 SEL2        0.0000 
     96 N          -7.4900  -12.5890  510.1490 N.am      5 SEP2        0.0000 
     97 N          -9.7710  -13.8855  506.8615 N.am      2 SEC2        0.0000 
     98 N         -10.0610  -14.8770  505.8970 N.am      5 SEP2        0.0000 
     99 N          -8.6815  -11.6735  509.5555 N.am      2 SEC2        0.0000 
    100 N          -9.8730  -10.7580  508.9620 N.am      8 SEL2        0.0000 
    101 CA        -11.8340   -7.2500  512.7562 C.3       3 GLC5        0.0000 
    102 CA        -11.3010   -7.9410  514.4300 C.3       6 GLP5        0.0000 
    103 CA        -17.4195   -9.2067  510.0828 C.3       3 GLC5        0.0000 
    104 CA        -16.4160   -8.7070  508.6240 C.3       9 GLL5        0.0000 
    105 CA        -17.7220   -9.7220  511.7780 C.3       6 GLP5        0.0000 
    106 CA        -16.2645   -9.9603  506.9528 C.3       3 GLC5        0.0000 
    107 CA        -15.4120  -11.2290  505.5180 C.3       6 GLP5        0.0000 
    108 CA         -4.0030  -13.8018  504.1928 C.3       3 GLC5        0.0000 
    109 CA         -1.8890  -13.7350  504.1810 C.3       9 GLL5        0.0000 
    110 CA         -5.7900  -14.3550  504.5760 C.3       6 GLP5        0.0000 
    111 CA         -4.0600  -13.8385  505.2345 C.3       3 GLC5        0.0000 
    112 CA         -1.9130  -13.8170  505.5480 C.3       9 GLL5        0.0000 
    113 CA         -1.7656  -14.4921  504.5183 C.3       3 GLC5        0.0000 
    114 CA         -2.7470  -12.8270  506.2380 C.3       9 GLL5        0.0000 
    115 CA         -1.3890  -15.3790  502.9610 C.3       6 GLP5        0.0000 
    116 CA         -4.0240  -13.5862  507.4793 C.3       3 GLC5        0.0000 
    117 CA         -5.4720  -14.1060  508.1600 C.3       6 GLP5        0.0000 
    118 CA         -4.5895  -13.0772  504.7095 C.3       3 GLC5        0.0000 
    119 CA         -2.0845  -13.9421  503.4754 C.3       3 GLC5        0.0000 
    120 CA         -3.3440  -11.7620  504.1700 C.3       9 GLL5        0.0000 
    121 CA         -6.3480   -7.6736  503.6226 C.3       3 GLC5        0.0000 
    122 CA         -6.7350   -9.0550  505.2010 C.3       9 GLL5        0.0000 
    123 CA         -6.5800   -5.8950  502.5690 C.3       6 GLP5        0.0000 
    124 CA        -10.4065   -9.3488  505.7858 C.3       3 GLC5        0.0000 
@<TRIPOS>BOND
@<TRIPOS>SUBSTRUCTURE
     1 ALC1       20 GROUP        1 X    ALC  0     ROOT ALC X 1
     2 SEC2        1 GROUP        1 X    SEC  0     **** SEC X 2
     3 GLC5        9 GROUP        1 X    GLC  0     **** GLC X 6
     4 ALP1       22 GROUP        1 Y    ALP  0     ROOT ALP Y 8
     5 SEP2        3 GROUP        1 Y    SEP  0     **** SEP Y 9
     6 GLP5       11 GROUP        1 Y    GLP  0     **** GLP Y 13
     7 ALL1       21 GROUP        1 Z    ALL  0     ROOT ALL Z 15
     8 SEL2        2 GROUP        1 Z    SEL  0     **** SEL Z 16
     9 GLL5       10 GROUP        1 Z    GLL  0     **** GLL Z 20
@<TRIPOS>SET

