#    Name: 4k3t_FAD_1_ligand
#    Modification time : Tue Mar 25 06:55:37 2014

@<TRIPOS>MOLECULE
4k3t_FAD_1_ligand
   84    89     1     0     0
SMALL
NO_CHARGES


@<TRIPOS>ATOM
      1 PA        -10.5740  -10.3180  510.3440 P.3       1 FAD601      0.0000 
      2 O1A        -9.4030  -10.0660  511.2770 O.co2     1 FAD601      0.0000 
      3 O2A       -11.6120  -11.2670  510.7570 O.co2     1 FAD601      0.0000 
      4 O5B       -11.2750   -8.9460  509.9690 O.3       1 FAD601      0.0000 
      5 C5B       -10.5230   -7.8080  509.4470 C.3       1 FAD601      0.0000 
      6 C4B       -11.3300   -6.5450  509.6140 C.3       1 FAD601      0.0000 
      7 O4B       -12.5600   -6.5690  508.8860 O.3       1 FAD601      0.0000 
      8 C3B       -11.7170   -6.2050  511.0430 C.3       1 FAD601      0.0000 
      9 O3B       -11.8820   -4.7900  511.2890 O.3       1 FAD601      0.0000 
     10 C2B       -13.0170   -6.9130  511.1220 C.3       1 FAD601      0.0000 
     11 O2B       -13.7820   -6.4320  512.1760 O.3       1 FAD601      0.0000 
     12 C1B       -13.6230   -6.6720  509.7800 C.3       1 FAD601      0.0000 
     13 N9A       -14.5670   -7.7130  509.4220 N.pl3     1 FAD601      0.0000 
     14 C8A       -14.4170   -9.0440  509.3960 C.2       1 FAD601      0.0000 
     15 N7A       -15.5330   -9.6620  508.9210 N.2       1 FAD601      0.0000 
     16 C5A       -16.4160   -8.7070  508.6240 C.ar      1 FAD601      0.0000 
     17 C6A       -17.8180   -8.6760  508.1510 C.ar      1 FAD601      0.0000 
     18 N6A       -18.4140   -9.8550  507.9100 N.pl3     1 FAD601      0.0000 
     19 N1A       -18.4020   -7.4540  507.9780 N.ar      1 FAD601      0.0000 
     20 C2A       -17.7480   -6.2940  508.2550 C.ar      1 FAD601      0.0000 
     21 N3A       -16.4670   -6.2390  508.7320 N.ar      1 FAD601      0.0000 
     22 C4A       -15.8080   -7.4190  508.9710 C.ar      1 FAD601      0.0000 
     23 N1         -4.6070   -9.7880  501.3130 N.2       1 FAD601      0.0000 
     24 C2         -4.5710   -9.8220  499.9600 C.2       1 FAD601      0.0000 
     25 O2         -5.2750   -9.0200  499.3070 O.2       1 FAD601      0.0000 
     26 N3         -3.8120  -10.6860  499.2780 N.am      1 FAD601      0.0000 
     27 C4         -3.1250  -11.6820  499.8880 C.2       1 FAD601      0.0000 
     28 O4         -2.4610  -12.4980  499.2170 O.2       1 FAD601      0.0000 
     29 C4X        -3.1150  -11.7350  501.3530 C.2       1 FAD601      0.0000 
     30 N5         -2.4440  -12.7000  502.0800 N.2       1 FAD601      0.0000 
     31 C5X        -2.5430  -12.7620  503.4380 C.ar      1 FAD601      0.0000 
     32 C6         -1.8890  -13.7350  504.1810 C.ar      1 FAD601      0.0000 
     33 C7         -1.9130  -13.8170  505.5480 C.ar      1 FAD601      0.0000 
     34 C7M        -1.1620  -14.9500  506.2780 C.3       1 FAD601      0.0000 
     35 C8         -2.7470  -12.8270  506.2380 C.ar      1 FAD601      0.0000 
     36 C8M        -2.8220  -12.8110  507.7040 C.3       1 FAD601      0.0000 
     37 C9         -3.4340  -11.8370  505.5160 C.ar      1 FAD601      0.0000 
     38 C9A        -3.3440  -11.7620  504.1700 C.ar      1 FAD601      0.0000 
     39 N10        -4.0030  -10.7730  503.3980 N.pl3     1 FAD601      0.0000 
     40 C10        -3.9470  -10.7420  502.0290 C.2       1 FAD601      0.0000 
     41 C1'        -4.7680   -9.6920  504.1040 C.3       1 FAD601      0.0000 
     42 C2'        -6.2260  -10.0070  504.1990 C.3       1 FAD601      0.0000 
     43 O2'        -6.7560   -9.6900  502.9280 O.3       1 FAD601      0.0000 
     44 C3'        -6.7350   -9.0550  505.2010 C.3       1 FAD601      0.0000 
     45 O3'        -6.0190   -9.3280  506.4080 O.3       1 FAD601      0.0000 
     46 C4'        -8.2610   -9.2710  505.4210 C.3       1 FAD601      0.0000 
     47 O4'        -8.7560   -8.0690  506.0100 O.3       1 FAD601      0.0000 
     48 C5'        -8.4710  -10.4060  506.3800 C.3       1 FAD601      0.0000 
     49 O5'        -9.8720  -10.7170  506.5320 O.3       1 FAD601      0.0000 
     50 P         -10.3220  -11.6410  507.6970 P.3       1 FAD601      0.0000 
     51 O1P       -11.7480  -11.8860  507.6270 O.co2     1 FAD601      0.0000 
     52 O2P        -9.4810  -12.8940  507.8260 O.co2     1 FAD601      0.0000 
     53 O3P        -9.8730  -10.7580  508.9620 O.3       1 FAD601      0.0000 
     54 H         -10.3012   -7.9460  508.3847 H         1 FAD601      0.0000 
     55 H          -9.5753   -7.6933  509.9813 H         1 FAD601      0.0000 
     56 H         -10.7264   -5.6908  509.2454 H         1 FAD601      0.0000 
     57 H         -11.0327   -6.6811  511.6943 H         1 FAD601      0.0000 
     58 H         -12.8014   -7.9729  511.1990 H         1 FAD601      0.0000 
     59 H         -14.1501   -5.7064  509.8450 H         1 FAD601      0.0000 
     60 H         -13.6067   -9.5256  509.6818 H         1 FAD601      0.0000 
     61 H         -17.8776  -10.6712  508.1246 H         1 FAD601      0.0000 
     62 H         -19.3410   -9.8114  507.5375 H         1 FAD601      0.0000 
     63 H         -18.2587   -5.3759  508.0926 H         1 FAD601      0.0000 
     64 H          -3.7403  -10.5954  498.2260 H         1 FAD601      0.0000 
     65 H          -1.3314  -14.4657  503.6438 H         1 FAD601      0.0000 
     66 H          -4.0174  -11.1592  506.0496 H         1 FAD601      0.0000 
     67 H          -4.6321   -8.7413  503.5665 H         1 FAD601      0.0000 
     68 H          -4.3551   -9.5566  505.1152 H         1 FAD601      0.0000 
     69 H          -6.3593  -10.9856  504.4898 H         1 FAD601      0.0000 
     70 H          -6.5793   -8.0559  504.8703 H         1 FAD601      0.0000 
     71 H          -8.7044   -9.4777  504.4903 H         1 FAD601      0.0000 
     72 H          -8.0234  -10.1308  507.3511 H         1 FAD601      0.0000 
     73 H          -7.9128  -11.2841  506.0104 H         1 FAD601      0.0000 
     74 H          -0.1806  -14.9282  506.0871 H         1 FAD601      0.0000 
     75 H          -1.2691  -14.8874  507.2703 H         1 FAD601      0.0000 
     76 H          -1.4940  -15.8525  506.0037 H         1 FAD601      0.0000 
     77 H          -1.9254  -12.6593  508.1201 H         1 FAD601      0.0000 
     78 H          -3.4260  -12.0870  508.0371 H         1 FAD601      0.0000 
     79 H          -3.1714  -13.6746  508.0674 H         1 FAD601      0.0000 
     80 H         -12.6672   -4.7243  511.9046 H         1 FAD601      0.0000 
     81 H         -14.0714   -7.2467  512.6785 H         1 FAD601      0.0000 
     82 H          -5.9583   -9.5823  502.3346 H         1 FAD601      0.0000 
     83 H          -5.8547   -8.4316  506.8197 H         1 FAD601      0.0000 
     84 H          -9.1835   -7.5689  505.2569 H         1 FAD601      0.0000 
@<TRIPOS>BOND
     1    2    1 ar   
     2    3    1 ar   
     3    4    1 1    
     4   53    1 1    
     5    5    4 1    
     6    6    5 1    
     7   54    5 1    
     8   55    5 1    
     9    7    6 1    
    10    8    6 1    
    11   56    6 1    
    12   12    7 1    
    13    9    8 1    
    14   10    8 1    
    15   57    8 1    
    16   80    9 1    
    17   11   10 1    
    18   12   10 1    
    19   58   10 1    
    20   81   11 1    
    21   13   12 1    
    22   59   12 1    
    23   14   13 1    
    24   22   13 1    
    25   15   14 2    
    26   60   14 1    
    27   16   15 1    
    28   17   16 ar   
    29   22   16 ar   
    30   18   17 1    
    31   19   17 ar   
    32   61   18 1    
    33   62   18 1    
    34   20   19 ar   
    35   21   20 ar   
    36   63   20 1    
    37   22   21 ar   
    38   24   23 1    
    39   40   23 2    
    40   25   24 2    
    41   26   24 am   
    42   27   26 am   
    43   64   26 1    
    44   28   27 2    
    45   29   27 1    
    46   30   29 2    
    47   40   29 1    
    48   31   30 1    
    49   32   31 ar   
    50   38   31 ar   
    51   33   32 ar   
    52   65   32 1    
    53   34   33 1    
    54   35   33 ar   
    55   74   34 1    
    56   75   34 1    
    57   76   34 1    
    58   36   35 1    
    59   37   35 ar   
    60   77   36 1    
    61   78   36 1    
    62   79   36 1    
    63   38   37 ar   
    64   66   37 1    
    65   39   38 1    
    66   40   39 1    
    67   41   39 1    
    68   42   41 1    
    69   67   41 1    
    70   68   41 1    
    71   43   42 1    
    72   44   42 1    
    73   69   42 1    
    74   82   43 1    
    75   45   44 1    
    76   46   44 1    
    77   70   44 1    
    78   83   45 1    
    79   47   46 1    
    80   48   46 1    
    81   71   46 1    
    82   84   47 1    
    83   49   48 1    
    84   72   48 1    
    85   73   48 1    
    86   50   49 1    
    87   51   50 ar   
    88   52   50 ar   
    89   53   50 1    
@<TRIPOS>SUBSTRUCTURE
     1 FAD601      1 GROUP   
@<TRIPOS>SET

