#    Name: 3hhu_819_2_INTS_M
#    Modification time : Tue Mar 25 14:19:08 2014

@<TRIPOS>MOLECULE
3hhu_819_2_INTS_M
   63     0     9     0     0
SMALL
NO_CHARGES


@<TRIPOS>ATOM
      1 CA         -3.4310  -32.7420  -49.4355 C.3       3 GLC5        0.0000 
      2 CA         -3.9060  -34.2640  -48.6960 C.3       9 GLL5        0.0000 
      3 CA         -2.9560  -31.2200  -50.1750 C.3       6 GLP5        0.0000 
      4 CA         -4.7520  -35.9200  -45.9000 C.3       3 GLC5        0.0000 
      5 CA         -4.0510  -35.4430  -47.7310 C.3       9 GLL5        0.0000 
      6 CA         -5.4530  -36.3970  -44.0690 C.3       6 GLP5        0.0000 
      7 N          -0.5960  -35.2365  -45.6495 N.am      2 SEC2        0.0000 
      8 N          -2.2220  -35.6080  -45.9330 N.am      8 SEL2        0.0000 
      9 N           1.0300  -34.8650  -45.3660 N.am      5 SEP2        0.0000 
     10 N          -2.1445  -34.7120  -44.7565 N.am      2 SEC2        0.0000 
     11 N          -2.0670  -33.8160  -43.5800 N.am      5 SEP2        0.0000 
     12 O           0.1095  -37.1915  -46.0180 O.2       1 ALC1        0.0000 
     13 O          -1.0860  -37.2980  -46.8850 O.2       7 ALL1        0.0000 
     14 O           1.3050  -37.0850  -45.1510 O.2       4 ALP1        0.0000 
     15 CA          0.7605  -34.9645  -52.4400 C.3       3 GLC5        0.0000 
     16 CA          0.6450  -36.7980  -51.1440 C.3       9 GLL5        0.0000 
     17 CA          0.8760  -33.1310  -53.7360 C.3       6 GLP5        0.0000 
     18 CA          3.5030  -40.1455  -53.7460 C.3       3 GLC5        0.0000 
     19 CA          2.6530  -38.3740  -53.6240 C.3       9 GLL5        0.0000 
     20 CA          4.3530  -41.9170  -53.8680 C.3       6 GLP5        0.0000 
     21 CA          4.4570  -38.4365  -54.5400 C.3       3 GLC5        0.0000 
     22 CA          6.2610  -38.4990  -55.4560 C.3       6 GLP5        0.0000 
     23 CA          4.4550  -32.3980  -50.7395 C.3       3 GLC5        0.0000 
     24 CA          3.6400  -34.3660  -50.4840 C.3       9 GLL5        0.0000 
     25 CA          5.2700  -30.4300  -50.9950 C.3       6 GLP5        0.0000 
     26 CA          1.3895  -31.5125  -51.1515 C.3       3 GLC5        0.0000 
     27 CA          0.7410  -31.1450  -49.1550 C.3       9 GLL5        0.0000 
     28 CA          2.0380  -31.8800  -53.1480 C.3       6 GLP5        0.0000 
     29 CA          0.8200  -29.1185  -49.3515 C.3       3 GLC5        0.0000 
     30 CA          0.8990  -27.0920  -49.5480 C.3       6 GLP5        0.0000 
     31 CA         -1.0565  -32.8875  -47.1110 C.3       3 GLC5        0.0000 
     32 CA         -0.2020  -33.4420  -48.6780 C.3       9 GLL5        0.0000 
     33 CA         -1.9110  -32.3330  -45.5440 C.3       6 GLP5        0.0000 
     34 CA          3.8165  -30.8960  -47.6385 C.3       3 GLC5        0.0000 
     35 CA          3.4540  -32.9180  -48.0620 C.3       9 GLL5        0.0000 
     36 CA          4.1790  -28.8740  -47.2150 C.3       6 GLP5        0.0000 
     37 CA          5.5890  -32.6825  -50.6880 C.3       3 GLC5        0.0000 
     38 CA          4.7970  -34.1510  -49.6910 C.3       9 GLL5        0.0000 
     39 CA          6.3810  -31.2140  -51.6850 C.3       6 GLP5        0.0000 
     40 O           7.0905  -33.9405  -49.5565 O.2       1 ALC1        0.0000 
     41 O           6.0240  -34.5680  -50.1100 O.2       7 ALL1        0.0000 
     42 O           8.1570  -33.3130  -49.0030 O.2       4 ALP1        0.0000 
     43 CA         -2.9447  -33.5932  -46.8787 C.3       3 GLC5        0.0000 
     44 CA         -5.4322  -33.7437  -47.2122 C.3       3 GLC5        0.0000 
     45 CA         -6.8860  -32.6340  -46.2110 C.3       6 GLP5        0.0000 
     46 CA          2.5645  -36.7620  -47.5815 C.3       3 GLC5        0.0000 
     47 CA          1.4920  -37.9230  -48.7070 C.3       9 GLL5        0.0000 
     48 CA          3.1610  -35.8200  -45.9850 C.3       6 GLP5        0.0000 
     49 CA          3.2415  -39.3410  -48.5680 C.3       3 GLC5        0.0000 
     50 CA          4.5150  -40.9780  -47.9580 C.3       6 GLP5        0.0000 
     51 CA          5.4882  -35.8668  -50.6282 C.3       3 GLC5        0.0000 
     52 CA          6.7580  -37.4750  -51.1690 C.3       6 GLP5        0.0000 
     53 CA          3.0215  -34.4130  -47.2233 C.3       3 GLC5        0.0000 
     54 CA          2.3100  -33.0940  -48.8610 C.3       9 GLL5        0.0000 
     55 CA          2.3526  -32.7361  -51.3581 C.3       3 GLC5        0.0000 
     56 CA          0.0638  -31.0000  -47.4373 C.3       3 GLC5        0.0000 
     57 CA         -0.7250  -30.1910  -46.0870 C.3       6 GLP5        0.0000 
     58 CA         -1.3154  -31.9228  -49.4539 C.3       3 GLC5        0.0000 
     59 CA          4.6717  -31.8030  -49.6335 C.3       3 GLC5        0.0000 
     60 CA          3.9530  -34.8062  -47.5358 C.3       3 GLC5        0.0000 
     61 CA          4.6930  -33.4340  -48.4820 C.3       9 GLL5        0.0000 
     62 CA          6.1255  -34.9468  -48.0093 C.3       3 GLC5        0.0000 
     63 CA          7.5060  -36.1010  -46.9320 C.3       6 GLP5        0.0000 
@<TRIPOS>BOND
@<TRIPOS>SUBSTRUCTURE
     1 ALC1       12 GROUP        1 X    ALC  0     ROOT ALC X 1
     2 SEC2        7 GROUP        1 X    SEC  0     **** SEC X 2
     3 GLC5        1 GROUP        1 X    GLC  0     **** GLC X 6
     4 ALP1       14 GROUP        1 Y    ALP  0     ROOT ALP Y 8
     5 SEP2        9 GROUP        1 Y    SEP  0     **** SEP Y 9
     6 GLP5        3 GROUP        1 Y    GLP  0     **** GLP Y 13
     7 ALL1       13 GROUP        1 Z    ALL  0     ROOT ALL Z 15
     8 SEL2        8 GROUP        1 Z    SEL  0     **** SEL Z 16
     9 GLL5        2 GROUP        1 Z    GLL  0     **** GLL Z 20
@<TRIPOS>SET

