#    Name: 3hhu_819_2_ligand
#    Modification time : Tue Mar 25 14:19:08 2014

@<TRIPOS>MOLECULE
3hhu_819_2_ligand
   53    55     1     0     0
SMALL
NO_CHARGES


@<TRIPOS>ATOM
      1 C1         -3.9060  -34.2640  -48.6960 C.3       1 819501      0.0000 
      2 C2         -4.0510  -35.4430  -47.7310 C.3       1 819501      0.0000 
      3 O3         -2.9620  -36.3830  -47.9250 O.3       1 819501      0.0000 
      4 C4         -2.0770  -36.4020  -46.8680 C.2       1 819501      0.0000 
      5 O5         -2.2220  -35.6080  -45.9330 O.2       1 819501      0.0000 
      6 N6         -1.0860  -37.2980  -46.8850 N.am      1 819501      0.0000 
      7 C8         -0.9180  -38.2870  -47.9690 C.3       1 819501      0.0000 
      8 C9          0.1200  -37.7980  -48.9840 C.ar      1 819501      0.0000 
      9 C12        -0.3030  -37.2380  -50.2010 C.ar      1 819501      0.0000 
     10 C13         0.6450  -36.7980  -51.1440 C.ar      1 819501      0.0000 
     11 C10         1.4920  -37.9230  -48.7070 C.ar      1 819501      0.0000 
     12 C11         2.4440  -37.4850  -49.6490 C.ar      1 819501      0.0000 
     13 C14         2.0260  -36.9130  -50.8740 C.ar      1 819501      0.0000 
     14 N15         2.9430  -36.3970  -51.7440 N.pl3     1 819501      0.0000 
     15 C16         3.2850  -36.9120  -52.9120 C.2       1 819501      0.0000 
     16 S17         2.6530  -38.3740  -53.6240 S.3       1 819501      0.0000 
     17 N18         4.2010  -36.1220  -53.4710 N.2       1 819501      0.0000 
     18 N20         4.4250  -35.1580  -52.6960 N.2       1 819501      0.0000 
     19 C21         3.6660  -35.2670  -51.5860 C.2       1 819501      0.0000 
     20 C22         3.6400  -34.3660  -50.4840 C.ar      1 819501      0.0000 
     21 C23         2.4090  -33.8150  -50.0670 C.ar      1 819501      0.0000 
     22 C24         2.3100  -33.0940  -48.8610 C.ar      1 819501      0.0000 
     23 C25         0.9640  -32.4730  -48.4200 C.3       1 819501      0.0000 
     24 C27         0.7410  -31.1450  -49.1550 C.3       1 819501      0.0000 
     25 C26        -0.2020  -33.4420  -48.6780 C.3       1 819501      0.0000 
     26 C28         3.4540  -32.9180  -48.0620 C.ar      1 819501      0.0000 
     27 O29         3.3460  -32.3230  -46.8450 O.3       1 819501      0.0000 
     28 C31         4.6930  -33.4340  -48.4820 C.ar      1 819501      0.0000 
     29 C32         4.7970  -34.1510  -49.6910 C.ar      1 819501      0.0000 
     30 O33         6.0240  -34.5680  -50.1100 O.3       1 819501      0.0000 
     31 H          -5.0202  -35.9160  -47.9169 H         1 819501      0.0000 
     32 H          -4.0555  -35.0473  -46.7107 H         1 819501      0.0000 
     33 H          -0.3693  -37.3487  -46.1258 H         1 819501      0.0000 
     34 H          -1.8634  -38.4471  -48.4929 H         1 819501      0.0000 
     35 H          -0.5811  -39.2451  -47.5661 H         1 819501      0.0000 
     36 H          -1.3028  -37.1491  -50.4037 H         1 819501      0.0000 
     37 H           0.3331  -36.3920  -52.0312 H         1 819501      0.0000 
     38 H           1.8014  -38.3318  -47.8219 H         1 819501      0.0000 
     39 H           3.4431  -37.5798  -49.4488 H         1 819501      0.0000 
     40 H           1.5735  -33.9425  -50.6529 H         1 819501      0.0000 
     41 H           1.0184  -32.2713  -47.3585 H         1 819501      0.0000 
     42 H           5.5288  -33.2881  -47.9047 H         1 819501      0.0000 
     43 H          -3.0471  -33.7718  -48.5546 H         1 819501      0.0000 
     44 H          -3.9196  -34.5616  -49.6506 H         1 819501      0.0000 
     45 H          -4.6458  -33.6003  -48.5853 H         1 819501      0.0000 
     46 H           1.4649  -30.4844  -48.9562 H         1 819501      0.0000 
     47 H           0.7212  -31.2684  -50.1472 H         1 819501      0.0000 
     48 H          -0.1251  -30.7177  -48.8954 H         1 819501      0.0000 
     49 H          -0.2817  -33.6777  -49.6466 H         1 819501      0.0000 
     50 H          -0.0902  -34.2996  -48.1759 H         1 819501      0.0000 
     51 H          -1.0788  -33.0508  -48.3984 H         1 819501      0.0000 
     52 H           2.9042  -31.4441  -47.0250 H         1 819501      0.0000 
     53 H           6.6753  -33.9864  -49.6225 H         1 819501      0.0000 
@<TRIPOS>BOND
     1    2    1 1    
     2   43    1 1    
     3   44    1 1    
     4   45    1 1    
     5    3    2 1    
     6   31    2 1    
     7   32    2 1    
     8    4    3 1    
     9    5    4 2    
    10    6    4 am   
    11    7    6 1    
    12   33    6 1    
    13    8    7 1    
    14   34    7 1    
    15   35    7 1    
    16    9    8 ar   
    17   11    8 ar   
    18   10    9 ar   
    19   36    9 1    
    20   13   10 ar   
    21   37   10 1    
    22   12   11 ar   
    23   38   11 1    
    24   13   12 ar   
    25   39   12 1    
    26   14   13 1    
    27   15   14 1    
    28   19   14 1    
    29   16   15 1    
    30   17   15 2    
    31   18   17 1    
    32   19   18 2    
    33   20   19 1    
    34   21   20 ar   
    35   29   20 ar   
    36   22   21 ar   
    37   40   21 1    
    38   23   22 1    
    39   26   22 ar   
    40   24   23 1    
    41   25   23 1    
    42   41   23 1    
    43   46   24 1    
    44   47   24 1    
    45   48   24 1    
    46   49   25 1    
    47   50   25 1    
    48   51   25 1    
    49   27   26 1    
    50   28   26 ar   
    51   52   27 1    
    52   29   28 ar   
    53   42   28 1    
    54   30   29 1    
    55   53   30 1    
@<TRIPOS>SUBSTRUCTURE
     1 819501      1 GROUP   
@<TRIPOS>SET

