#    Name: 3SQG_3_CAVITY_N1_6.mol2
#    Modification time : Tue Mar 11 00:49:14 2014

@<TRIPOS>MOLECULE
3SQG_3_CAVITY_N1_6.mol2
   60     0     5     0     0
SMALL
NO_CHARGES


@<TRIPOS>ATOM
      1 CA         50.2301   -8.6728   40.8588 C.3       4 GLY6        0.0000 
      2 CA         49.2855   -9.6651   40.2481 C.3       4 GLY6        0.0000 
      3 CZ         43.9061  -14.6259   41.8923 C.ar      3 PHE5        0.0000 
      4 CZ         41.9257  -14.5430   41.1367 C.ar      3 PHE5        0.0000 
      5 CZ         42.9615  -15.6182   41.2816 C.ar      3 PHE5        0.0000 
      6 CZ         42.4593  -14.2126   39.7743 C.ar      3 PHE5        0.0000 
      7 CZ         43.4952  -15.2877   39.9193 C.ar      3 PHE5        0.0000 
      8 O          49.8935   -5.9423   47.9954 O.2       1 ALA2        0.0000 
      9 CA         49.9847   -8.0099   47.5297 C.3       4 GLY6        0.0000 
     10 N          49.6650  -10.7393   45.0908 N.2       1 ALA2        0.0000 
     11 CZ         48.2182  -10.3260   42.9728 C.ar      3 PHE5        0.0000 
     12 N          49.2540  -11.4012   43.1178 N.2       1 ALA2        0.0000 
     13 CZ         47.2736  -11.3184   42.3621 C.ar      3 PHE5        0.0000 
     14 N          48.3094  -12.3936   42.5070 N.2       1 ALA2        0.0000 
     15 N          46.3290  -12.3107   41.7514 N.2       1 ALA2        0.0000 
     16 CA         47.3648  -13.3859   41.8963 C.3       4 GLY6        0.0000 
     17 CZ         45.3844  -13.3031   41.1407 C.ar      3 PHE5        0.0000 
     18 CZ         43.4039  -13.2202   40.3850 C.ar      3 PHE5        0.0000 
     19 CZ         44.4398  -14.2954   40.5300 C.ar      3 PHE5        0.0000 
     20 N          47.8072  -10.9879   40.9997 N.2       1 ALA2        0.0000 
     21 CA         48.8431  -12.0631   41.1447 C.3       4 GLY6        0.0000 
     22 N          47.8985  -13.0555   40.5340 N.2       1 ALA2        0.0000 
     23 CA         50.9608   -5.2814   45.2707 C.3       4 GLY6        0.0000 
     24 CA         51.9966   -6.3566   45.4157 C.3       4 GLY6        0.0000 
     25 CA         53.0325   -7.4318   45.5606 C.3       4 GLY6        0.0000 
     26 N          54.0683   -8.5070   45.7055 N.2       1 ALA2        0.0000 
     27 CA         48.9804   -5.1986   44.5151 C.3       4 GLY6        0.0000 
     28 CA         50.0162   -6.2738   44.6600 C.3       4 GLY6        0.0000 
     29 DU         51.0520   -7.3490   44.8049 H         5 CUB7        0.0000 
     30 CA         52.0879   -8.4242   44.9499 C.3       4 GLY6        0.0000 
     31 CA         53.1237   -9.4994   45.0948 C.3       4 GLY6        0.0000 
     32 CA         48.0358   -6.1909   43.9044 C.3       4 GLY6        0.0000 
     33 CZ         49.0716   -7.2661   44.0493 C.ar      3 PHE5        0.0000 
     34 DU         50.1074   -8.3413   44.1942 H         5 CUB7        0.0000 
     35 CA         51.1432   -9.4165   44.3392 C.3       4 GLY6        0.0000 
     36 CA         52.1791  -10.4917   44.4841 C.3       4 GLY6        0.0000 
     37 CZ         48.1270   -8.2585   43.4386 C.ar      3 PHE5        0.0000 
     38 CZ         49.1628   -9.3337   43.5835 C.ar      3 PHE5        0.0000 
     39 N          50.1986  -10.4089   43.7285 N.2       1 ALA2        0.0000 
     40 CA         53.5661   -7.1014   44.1982 C.3       4 GLY6        0.0000 
     41 CA         50.5498   -5.9433   43.2976 C.3       4 GLY6        0.0000 
     42 CA         51.5857   -7.0185   43.4426 C.3       4 GLY6        0.0000 
     43 CA         52.6215   -8.0937   43.5875 C.3       4 GLY6        0.0000 
     44 CA         49.6052   -6.9357   42.6869 C.3       4 GLY6        0.0000 
     45 CA         50.6411   -8.0109   42.8319 C.3       4 GLY6        0.0000 
     46 CZ         48.6606   -7.9280   42.0762 C.ar      3 PHE5        0.0000 
     47 CA         49.6965   -9.0032   42.2212 C.3       4 GLY6        0.0000 
     48 CZ         48.7518   -9.9956   41.6105 C.ar      3 PHE5        0.0000 
     49 CA         49.7877  -11.0708   41.7554 C.3       4 GLY6        0.0000 
     50 OD1        50.4272   -5.6119   46.6331 O.3       2 ASP3        0.0000 
     51 OD1        51.4630   -6.6871   46.7780 O.3       2 ASP3        0.0000 
     52 O          48.4467   -5.5290   45.8774 O.2       1 ALA2        0.0000 
     53 O          49.4826   -6.6042   46.0224 O.2       1 ALA2        0.0000 
     54 DU         50.5184   -7.6794   46.1673 H         5 CUB7        0.0000 
     55 DU         51.5542   -8.7546   46.3122 H         5 CUB7        0.0000 
     56 CA         48.5379   -7.5966   45.4117 C.3       4 GLY6        0.0000 
     57 N          49.5738   -8.6718   45.5566 N.2       1 ALA2        0.0000 
     58 N          50.6096   -9.7470   45.7015 N.2       1 ALA2        0.0000 
     59 CA         50.1389   -6.6052   41.3246 C.3       4 GLY6        0.0000 
     60 CA         51.1747   -7.6804   41.4695 C.3       4 GLY6        0.0000 
@<TRIPOS>BOND
@<TRIPOS>SUBSTRUCTURE
     1 ALA2        8 GROUP   
     2 ASP3       50 GROUP   
     3 PHE5        3 GROUP   
     4 GLY6        1 GROUP   
     5 CUB7       29 GROUP   
@<TRIPOS>SET

