#    Name: 3sqg_TP7_3_INTS_M
#    Modification time : Mon Mar 24 18:02:42 2014

@<TRIPOS>MOLECULE
3sqg_TP7_3_INTS_M
   66     0     9     0     0
SMALL
NO_CHARGES


@<TRIPOS>ATOM
      1 NZ         52.1155   -4.5900   46.7895 N.4       2 LYC4        0.0000 
      2 NZ         51.4780   -5.7150   46.8300 N.4       8 LYL4        0.0000 
      3 NZ         52.7530   -3.4650   46.7490 N.4       5 LYP4        0.0000 
      4 N          52.1155   -4.5900   46.7895 N.am      1 SEC2        0.0000 
      5 N          51.4780   -5.7150   46.8300 N.am      7 SEL2        0.0000 
      6 N          52.7530   -3.4650   46.7490 N.am      4 SEP2        0.0000 
      7 N          47.8140   -5.8010   47.4085 N.am      1 SEC2        0.0000 
      8 N          48.9840   -5.2560   46.8450 N.am      7 SEL2        0.0000 
      9 N          46.6440   -6.3460   47.9720 N.am      4 SEP2        0.0000 
     10 N          48.9995   -3.8020   46.5190 N.am      1 SEC2        0.0000 
     11 N          49.0150   -2.3480   46.1930 N.am      4 SEP2        0.0000 
     12 N          48.3075   -6.7385   48.1325 N.am      1 SEC2        0.0000 
     13 N          49.9710   -7.1310   48.2930 N.am      7 SEL2        0.0000 
     14 CA         51.6725   -5.3925   44.4200 C.3       3 GLC5        0.0000 
     15 CA         50.1060   -6.9320   44.4980 C.3       9 GLL5        0.0000 
     16 CA         53.2390   -3.8530   44.3420 C.3       6 GLP5        0.0000 
     17 CA         51.7865   -9.1420   42.6905 C.3       3 GLC5        0.0000 
     18 CA         50.6890   -8.1310   43.7610 C.3       9 GLL5        0.0000 
     19 CA         52.8840  -10.1530   41.6200 C.3       6 GLP5        0.0000 
     20 CA         47.2465   -7.6240   43.8985 C.3       3 GLC5        0.0000 
     21 CA         48.7980   -6.5110   43.8480 C.3       9 GLL5        0.0000 
     22 CA         45.6950   -8.7370   43.9490 C.3       6 GLP5        0.0000 
     23 CA         47.5995   -5.3120   43.3395 C.3       3 GLC5        0.0000 
     24 CA         46.4010   -4.1130   42.8310 C.3       6 GLP5        0.0000 
     25 CA         51.2340  -10.0515   42.0535 C.3       3 GLC5        0.0000 
     26 CA         49.5840   -9.9500   42.4870 C.3       9 GLL5        0.0000 
     27 CA         46.8585  -11.6630   43.8325 C.3       3 GLC5        0.0000 
     28 CA         48.5770  -11.0870   42.5400 C.3       9 GLL5        0.0000 
     29 CA         45.1400  -12.2390   45.1250 C.3       6 GLP5        0.0000 
     30 CA         48.1140  -10.3455   39.5125 C.3       3 GLC5        0.0000 
     31 CA         48.4560  -11.6350   41.1210 C.3       9 GLL5        0.0000 
     32 CA         47.7720   -9.0560   37.9040 C.3       6 GLP5        0.0000 
     33 CA         47.2570  -15.1125   40.6735 C.3       3 GLC5        0.0000 
     34 CA         48.1300  -13.1250   41.0990 C.3       9 GLL5        0.0000 
     35 CA         46.3840  -17.1000   40.2480 C.3       6 GLP5        0.0000 
     36 CA         43.8225  -12.1865   41.7550 C.3       3 GLC5        0.0000 
     37 CA         45.5870  -12.9390   41.2390 C.3       9 GLL5        0.0000 
     38 CA         42.0580  -11.4340   42.2710 C.3       6 GLP5        0.0000 
     39 CA         45.6515  -10.8005   41.9055 C.3       3 GLC5        0.0000 
     40 CA         45.7160   -8.6620   42.5720 C.3       6 GLP5        0.0000 
     41 CA         45.9455  -15.2185   40.0085 C.3       3 GLC5        0.0000 
     42 CA         45.5070  -13.3370   39.7690 C.3       9 GLL5        0.0000 
     43 CA         45.3575  -14.8505   38.3385 C.3       3 GLC5        0.0000 
     44 CA         45.2080  -16.3640   36.9080 C.3       6 GLP5        0.0000 
     45 CA         42.3820  -12.5370   38.6270 C.3       3 GLC5        0.0000 
     46 CA         43.8250  -13.0760   39.1210 C.3       9 GLL5        0.0000 
     47 CA         40.9390  -11.9980   38.1330 C.3       6 GLP5        0.0000 
     48 CA         43.3405  -14.4365   37.6745 C.3       3 GLC5        0.0000 
     49 CA         42.8560  -15.7970   36.2280 C.3       6 GLP5        0.0000 
     50 CA         42.9415  -12.2550   40.6960 C.3       3 GLC5        0.0000 
     51 CA         49.9120   -5.3483   42.8785 C.3       3 GLC5        0.0000 
     52 CA         50.3720   -3.9750   41.5840 C.3       6 GLP5        0.0000 
     53 CA         48.9650  -12.6535   39.2505 C.3       3 GLC5        0.0000 
     54 CA         49.6370  -12.9270   37.3910 C.3       6 GLP5        0.0000 
     55 CA         47.2421   -9.8694   42.1946 C.3       3 GLC5        0.0000 
     56 CA         50.2211  -12.7680   41.2724 C.3       3 GLC5        0.0000 
     57 CA         52.1190  -13.2930   41.0800 C.3       6 GLP5        0.0000 
     58 CA         48.2118  -14.7085   42.7530 C.3       3 GLC5        0.0000 
     59 CA         48.9290  -16.1280   44.0070 C.3       6 GLP5        0.0000 
     60 CA         45.7795  -15.1255   41.3645 C.3       3 GLC5        0.0000 
     61 CA         46.8590  -13.4530   41.8990 C.3       9 GLL5        0.0000 
     62 CA         45.3360  -17.0550   41.1600 C.3       6 GLP5        0.0000 
     63 CA         45.5570  -13.9315   43.0405 C.3       3 GLC5        0.0000 
     64 CA         44.8910  -14.6670   44.5120 C.3       6 GLP5        0.0000 
     65 CA         44.9480  -12.2598   37.8305 C.3       3 GLC5        0.0000 
     66 CA         45.2300  -11.3130   36.2160 C.3       6 GLP5        0.0000 
@<TRIPOS>BOND
@<TRIPOS>SUBSTRUCTURE
     1 SEC2        4 GROUP        1 X    SEC  0     ROOT SEC X 2
     2 LYC4        1 GROUP        1 X    LYC  0     **** LYC X 4
     3 GLC5       14 GROUP        1 X    GLC  0     **** GLC X 6
     4 SEP2        6 GROUP        1 Y    SEP  0     ROOT SEP Y 9
     5 LYP4        3 GROUP        1 Y    LYP  0     **** LYP Y 11
     6 GLP5       16 GROUP        1 Y    GLP  0     **** GLP Y 13
     7 SEL2        5 GROUP        1 Z    SEL  0     ROOT SEL Z 16
     8 LYL4        2 GROUP        1 Z    LYL  0     **** LYL Z 18
     9 GLL5       15 GROUP        1 Z    GLL  0     **** GLL Z 20
@<TRIPOS>SET

