#    Name: 3sqg_TP7_3_ligand
#    Modification time : Mon Mar 24 18:02:42 2014

@<TRIPOS>MOLECULE
3sqg_TP7_3_ligand
   40    39     1     0     0
SMALL
NO_CHARGES


@<TRIPOS>ATOM
      1 N          49.7430   -9.2400   43.7400 N.4       1 TP71002     0.0000 
      2 P          50.0930   -6.2730   47.0610 P.3       1 TP71002     0.0000 
      3 O1P        51.4780   -5.7150   46.8300 O.co2     1 TP71002     0.0000 
      4 O2P        48.9840   -5.2560   46.8450 O.co2     1 TP71002     0.0000 
      5 O3P        49.9710   -7.1310   48.2930 O.co2     1 TP71002     0.0000 
      6 O4P        49.8660   -7.3090   45.8540 O.3       1 TP71002     0.0000 
      7 CB         50.1060   -6.9320   44.4980 C.3       1 TP71002     0.0000 
      8 C          51.9740   -8.5240   44.4250 C.2       1 TP71002     0.0000 
      9 O          53.0220   -7.9240   44.0990 O.co2     1 TP71002     0.0000 
     10 OXT        51.9320   -9.4270   45.2870 O.co2     1 TP71002     0.0000 
     11 CA         50.6890   -8.1310   43.7610 C.3       1 TP71002     0.0000 
     12 CG         48.7980   -6.5110   43.8480 C.3       1 TP71002     0.0000 
     13 O1         49.2380   -9.0320   41.4380 O.3       1 TP71002     0.0000 
     14 C1         49.5840   -9.9500   42.4870 C.3       1 TP71002     0.0000 
     15 C2         48.5770  -11.0870   42.5400 C.3       1 TP71002     0.0000 
     16 C3         48.4560  -11.6350   41.1210 C.3       1 TP71002     0.0000 
     17 C4         48.1300  -13.1250   41.0990 C.3       1 TP71002     0.0000 
     18 C5         46.8590  -13.4530   41.8990 C.3       1 TP71002     0.0000 
     19 C6         45.5870  -12.9390   41.2390 C.3       1 TP71002     0.0000 
     20 C7         45.5070  -13.3370   39.7690 C.3       1 TP71002     0.0000 
     21 S7         43.8250  -13.0760   39.1210 S.3       1 TP71002     0.0000 
     22 H          50.8027   -6.1212   44.4328 H         1 TP71002     0.0000 
     23 H          50.9145   -7.8105   42.7448 H         1 TP71002     0.0000 
     24 H          50.5650  -10.4149   42.2201 H         1 TP71002     0.0000 
     25 H          47.6241  -10.7136   42.8630 H         1 TP71002     0.0000 
     26 H          48.9350  -11.8592   43.1936 H         1 TP71002     0.0000 
     27 H          49.3995  -11.4660   40.5896 H         1 TP71002     0.0000 
     28 H          47.6685  -11.0873   40.5909 H         1 TP71002     0.0000 
     29 H          48.9686  -13.6854   41.5222 H         1 TP71002     0.0000 
     30 H          47.9899  -13.4497   40.0639 H         1 TP71002     0.0000 
     31 H          46.9506  -13.0137   42.9015 H         1 TP71002     0.0000 
     32 H          46.7903  -14.5425   42.0200 H         1 TP71002     0.0000 
     33 H          45.5559  -11.8479   41.3173 H         1 TP71002     0.0000 
     34 H          44.7180  -13.3429   41.7676 H         1 TP71002     0.0000 
     35 H          45.6556  -14.3765   39.5960 H         1 TP71002     0.0000 
     36 H          46.0933  -12.7252   39.1251 H         1 TP71002     0.0000 
     37 H          48.9276   -6.2403   42.8941 H         1 TP71002     0.0000 
     38 H          48.1253   -7.2509   43.8539 H         1 TP71002     0.0000 
     39 H          48.3824   -5.7332   44.3195 H         1 TP71002     0.0000 
     40 H          50.0996   -8.5921   41.1846 H         1 TP71002     0.0000 
@<TRIPOS>BOND
     1   11    1 1    
     2   14    1 1    
     3    3    2 ar   
     4    4    2 ar   
     5    5    2 ar   
     6    6    2 1    
     7    7    6 1    
     8   11    7 1    
     9   12    7 1    
    10   22    7 1    
    11    9    8 ar   
    12   10    8 ar   
    13   11    8 1    
    14   23   11 1    
    15   37   12 1    
    16   38   12 1    
    17   39   12 1    
    18   14   13 1    
    19   40   13 1    
    20   15   14 1    
    21   24   14 1    
    22   16   15 1    
    23   25   15 1    
    24   26   15 1    
    25   17   16 1    
    26   27   16 1    
    27   28   16 1    
    28   18   17 1    
    29   29   17 1    
    30   30   17 1    
    31   19   18 1    
    32   31   18 1    
    33   32   18 1    
    34   20   19 1    
    35   33   19 1    
    36   34   19 1    
    37   21   20 1    
    38   35   20 1    
    39   36   20 1    
@<TRIPOS>SUBSTRUCTURE
     1 TP71002     1 GROUP   
@<TRIPOS>SET

