#    Name: 4hee_14R_1_INTS_M
#    Modification time : Tue Mar 25 00:54:34 2014

@<TRIPOS>MOLECULE
4hee_14R_1_INTS_M
  105     0     6     0     0
SMALL
NO_CHARGES


@<TRIPOS>ATOM
      1 CA        -22.6735  -13.4930    6.3780 C.3       2 GLC5        0.0000 
      2 CA        -21.2820  -13.1330    7.9380 C.3       6 GLL5        0.0000 
      3 CA        -24.0650  -13.8530    4.8180 C.3       4 GLP5        0.0000 
      4 CA        -22.4210  -14.1095   10.8615 C.3       2 GLC5        0.0000 
      5 CA        -21.8300  -14.1660    8.8430 C.3       6 GLL5        0.0000 
      6 CA        -23.0120  -14.0530   12.8800 C.3       4 GLP5        0.0000 
      7 CA        -23.7345  -14.4955    9.5215 C.3       2 GLC5        0.0000 
      8 CA        -25.6390  -14.8250   10.2000 C.3       4 GLP5        0.0000 
      9 CA        -23.1380  -15.1610    7.4100 C.3       2 GLC5        0.0000 
     10 CA        -24.4460  -16.1560    5.9770 C.3       4 GLP5        0.0000 
     11 CA        -16.0180  -14.1900   11.9120 C.3       2 GLC5        0.0000 
     12 CA        -18.1430  -14.2150   12.1500 C.3       6 GLL5        0.0000 
     13 CA        -13.8930  -14.1650   11.6740 C.3       4 GLP5        0.0000 
     14 CA        -15.6975  -15.3440   12.6290 C.3       2 GLC5        0.0000 
     15 CA        -17.5220  -15.1800   12.8520 C.3       6 GLL5        0.0000 
     16 CA        -13.8730  -15.5080   12.4060 C.3       4 GLP5        0.0000 
     17 CA        -18.2350  -17.3330   10.2060 C.3       2 GLC5        0.0000 
     18 CA        -19.6060  -15.9740   11.2400 C.3       6 GLL5        0.0000 
     19 CA        -16.8640  -18.6920    9.1720 C.3       4 GLP5        0.0000 
     20 CA        -21.9400  -18.4780   11.3715 C.3       2 GLC5        0.0000 
     21 CA        -21.2210  -17.2680    9.7260 C.3       6 GLL5        0.0000 
     22 CA        -22.6590  -19.6880   13.0170 C.3       4 GLP5        0.0000 
     23 CA        -23.2680  -17.9525   11.4490 C.3       2 GLC5        0.0000 
     24 CA        -22.7470  -17.4180    9.6280 C.3       6 GLL5        0.0000 
     25 CA        -23.7890  -18.4870   13.2700 C.3       4 GLP5        0.0000 
     26 CA        -24.6075  -19.6980    9.1120 C.3       2 GLC5        0.0000 
     27 CA        -22.9340  -18.3940    8.4640 C.3       6 GLL5        0.0000 
     28 CA        -26.2810  -21.0020    9.7600 C.3       4 GLP5        0.0000 
     29 CA        -18.1260  -15.4765    7.7770 C.3       2 GLC5        0.0000 
     30 CA        -19.6100  -17.0080    7.6670 C.3       6 GLL5        0.0000 
     31 CA        -16.6420  -13.9450    7.8870 C.3       4 GLP5        0.0000 
     32 CA        -22.1805  -16.6600    5.1290 C.3       2 GLC5        0.0000 
     33 CA        -20.4170  -17.8970    5.5590 C.3       6 GLL5        0.0000 
     34 CA        -23.9440  -15.4230    4.6990 C.3       4 GLP5        0.0000 
     35 CA        -21.4830  -20.4130    6.4080 C.3       2 GLC5        0.0000 
     36 CA        -21.5770  -18.3280    6.2160 C.3       6 GLL5        0.0000 
     37 CA        -21.3890  -22.4980    6.6000 C.3       4 GLP5        0.0000 
     38 CA        -23.1800  -19.6435    5.7180 C.3       2 GLC5        0.0000 
     39 CA        -24.7830  -20.9590    5.2200 C.3       4 GLP5        0.0000 
     40 CA        -22.6840  -20.0575    3.5055 C.3       2 GLC5        0.0000 
     41 CA        -20.5650  -19.3040    3.5230 C.3       6 GLL5        0.0000 
     42 CA        -24.8030  -20.8110    3.4880 C.3       4 GLP5        0.0000 
     43 CA        -20.8575  -15.3200    1.3205 C.3       2 GLC5        0.0000 
     44 CA        -19.9390  -17.1990    1.8270 C.3       6 GLL5        0.0000 
     45 CA        -21.7760  -13.4410    0.8140 C.3       4 GLP5        0.0000 
     46 N         -20.8660  -13.4665    3.8955 N.am      1 SEC2        0.0000 
     47 N         -19.4060  -13.7120    4.5650 N.am      5 SEL2        0.0000 
     48 N         -22.3260  -13.2210    3.2260 N.am      3 SEP2        0.0000 
     49 CA        -17.3125  -18.6315   11.8530 C.3       2 GLC5        0.0000 
     50 CA        -17.1940  -17.4690   13.6460 C.3       6 GLL5        0.0000 
     51 CA        -17.4310  -19.7940   10.0600 C.3       4 GLP5        0.0000 
     52 CA        -15.5335  -16.4885   13.0260 C.3       2 GLC5        0.0000 
     53 CA        -17.8545  -19.3855   13.8135 C.3       2 GLC5        0.0000 
     54 CA        -18.5150  -21.3020   13.9810 C.3       4 GLP5        0.0000 
     55 CA        -14.9875  -16.2530   14.1340 C.3       2 GLC5        0.0000 
     56 CA        -16.1020  -16.9980   15.8620 C.3       6 GLL5        0.0000 
     57 CA        -16.5725  -18.6825   17.7795 C.3       2 GLC5        0.0000 
     58 CA        -16.1590  -16.6280   17.1940 C.3       6 GLL5        0.0000 
     59 CA        -16.9860  -20.7370   18.3650 C.3       4 GLP5        0.0000 
     60 CA        -17.0275  -18.3380   18.6980 C.3       2 GLC5        0.0000 
     61 CA        -17.3720  -16.3710   17.7890 C.3       6 GLL5        0.0000 
     62 CA        -16.6830  -20.3050   19.6070 C.3       4 GLP5        0.0000 
     63 CA        -19.4280  -14.7475   18.0820 C.3       2 GLC5        0.0000 
     64 CA        -18.5330  -16.4980   17.0610 C.3       6 GLL5        0.0000 
     65 CA        -20.3230  -12.9970   19.1030 C.3       4 GLP5        0.0000 
     66 CA        -19.5590  -13.2508    8.4277 C.3       2 GLC5        0.0000 
     67 CA        -17.5620  -12.8520    8.4650 C.3       4 GLP5        0.0000 
     68 CA        -22.3115  -12.0912    9.2227 C.3       2 GLC5        0.0000 
     69 CA        -23.0670  -10.5330   10.0550 C.3       4 GLP5        0.0000 
     70 CA        -18.1225  -13.6318   10.0940 C.3       2 GLC5        0.0000 
     71 CA        -19.2230  -14.6080   11.2960 C.3       6 GLL5        0.0000 
     72 CA        -17.4667  -14.0518   14.1865 C.3       2 GLC5        0.0000 
     73 CA        -17.1010  -13.4060   15.8720 C.3       4 GLP5        0.0000 
     74 CA        -20.5858  -14.6539   12.7632 C.3       2 GLC5        0.0000 
     75 CA        -22.0270  -14.1150   14.0450 C.3       4 GLP5        0.0000 
     76 CA        -24.6337  -17.5110    9.2340 C.3       2 GLC5        0.0000 
     77 CA        -26.4270  -17.1160    9.4220 C.3       4 GLP5        0.0000 
     78 CA        -23.6433  -17.0310    7.5115 C.3       2 GLC5        0.0000 
     79 CA        -23.0573  -17.1797    6.4363 C.3       2 GLC5        0.0000 
     80 CA        -21.7600  -18.0790    7.5750 C.3       6 GLL5        0.0000 
     81 CA        -18.1932  -17.9115    8.0817 C.3       2 GLC5        0.0000 
     82 CA        -19.4350  -17.2540    6.3160 C.3       6 GLL5        0.0000 
     83 CA        -18.1790  -18.4159    5.2041 C.3       2 GLC5        0.0000 
     84 CA        -16.2610  -19.0160    5.3980 C.3       4 GLP5        0.0000 
     85 CA        -22.1422  -17.8895    3.2720 C.3       2 GLC5        0.0000 
     86 CA        -20.2680  -18.0560    4.0830 C.3       6 GLL5        0.0000 
     87 CA        -23.8680  -17.0990    2.7410 C.3       4 GLP5        0.0000 
     88 CA        -21.1460  -21.2680    3.0605 C.3       2 GLC5        0.0000 
     89 CA        -21.7240  -23.1390    3.2850 C.3       4 GLP5        0.0000 
     90 CA        -22.1440  -18.0325    2.2340 C.3       2 GLC5        0.0000 
     91 CA        -20.5710  -19.4900    2.1490 C.3       6 GLL5        0.0000 
     92 CA        -21.8998  -17.0985    2.6298 C.3       2 GLC5        0.0000 
     93 CA        -16.8910  -15.2333   15.6795 C.3       2 GLC5        0.0000 
     94 CA        -17.2600  -17.1230   15.1120 C.3       6 GLL5        0.0000 
     95 CA        -14.4947  -16.1100   17.3645 C.3       2 GLC5        0.0000 
     96 CA        -12.8590  -15.4070   18.2010 C.3       4 GLP5        0.0000 
     97 CA        -16.9333  -14.9527   16.6818 C.3       2 GLC5        0.0000 
     98 CA        -17.8035  -15.0458   16.1333 C.3       2 GLC5        0.0000 
     99 CA        -20.2590  -16.0988   15.5098 C.3       2 GLC5        0.0000 
    100 CA        -22.0120  -15.5120   14.6250 C.3       4 GLP5        0.0000 
    101 CA        -19.3004  -18.1264   17.1082 C.3       2 GLC5        0.0000 
    102 CA        -18.4790  -16.8730   15.7280 C.3       6 GLL5        0.0000 
    103 CA        -20.3850  -19.5990   17.6400 C.3       4 GLP5        0.0000 
    104 CA        -20.3985  -19.0286    9.0768 C.3       2 GLC5        0.0000 
    105 CA        -19.1230  -20.2670    9.6390 C.3       4 GLP5        0.0000 
@<TRIPOS>BOND
@<TRIPOS>SUBSTRUCTURE
     1 SEC2       46 GROUP        1 X    SEC  0     ROOT SEC X 2
     2 GLC5        1 GROUP        1 X    GLC  0     **** GLC X 6
     3 SEP2       48 GROUP        1 Y    SEP  0     ROOT SEP Y 9
     4 GLP5        3 GROUP        1 Y    GLP  0     **** GLP Y 13
     5 SEL2       47 GROUP        1 Z    SEL  0     ROOT SEL Z 16
     6 GLL5        2 GROUP        1 Z    GLL  0     **** GLL Z 20
@<TRIPOS>SET

