#    Name: 4hee_14R_1_ligand
#    Modification time : Tue Mar 25 00:54:34 2014

@<TRIPOS>MOLECULE
4hee_14R_1_ligand
   66    72     1     0     0
SMALL
NO_CHARGES


@<TRIPOS>ATOM
      1 C1        -21.2820  -13.1330    7.9380 C.3       1 14R501      0.0000 
      2 C2        -21.8300  -14.1660    8.8430 C.3       1 14R501      0.0000 
      3 C3        -20.8390  -14.6570    9.8430 C.2       1 14R501      0.0000 
      4 N1        -19.9920  -13.8370   10.4420 N.2       1 14R501      0.0000 
      5 C4        -19.2230  -14.6080   11.2960 C.2       1 14R501      0.0000 
      6 C5        -18.1430  -14.2150   12.1500 C.2       1 14R501      0.0000 
      7 C6        -17.5220  -15.1800   12.8520 C.2       1 14R501      0.0000 
      8 N2        -17.9140  -16.5000   12.8100 N.am      1 14R501      0.0000 
      9 C7        -18.9720  -16.9930   12.0290 C.2       1 14R501      0.0000 
     10 O1        -19.3110  -18.1700   12.1130 O.2       1 14R501      0.0000 
     11 C8        -19.6060  -15.9740   11.2400 C.2       1 14R501      0.0000 
     12 N3        -20.6450  -16.0210   10.2790 N.pl3     1 14R501      0.0000 
     13 C9        -21.2210  -17.2680    9.7260 C.3       1 14R501      0.0000 
     14 C10       -22.7470  -17.4180    9.6280 C.3       1 14R501      0.0000 
     15 C11       -22.9340  -18.3940    8.4640 C.3       1 14R501      0.0000 
     16 C12       -21.7600  -18.0790    7.5750 C.ar      1 14R501      0.0000 
     17 C13       -20.7810  -17.4200    8.2930 C.ar      1 14R501      0.0000 
     18 C14       -19.6100  -17.0080    7.6670 C.ar      1 14R501      0.0000 
     19 C15       -19.4350  -17.2540    6.3160 C.ar      1 14R501      0.0000 
     20 C16       -20.4170  -17.8970    5.5590 C.ar      1 14R501      0.0000 
     21 C17       -21.5770  -18.3280    6.2160 C.ar      1 14R501      0.0000 
     22 C18       -20.2680  -18.0560    4.0830 C.ar      1 14R501      0.0000 
     23 C19       -20.5650  -19.3040    3.5230 C.ar      1 14R501      0.0000 
     24 C20       -20.5710  -19.4900    2.1490 C.ar      1 14R501      0.0000 
     25 C21       -20.2690  -18.4420    1.3050 C.ar      1 14R501      0.0000 
     26 C22       -19.9390  -17.1990    1.8270 C.ar      1 14R501      0.0000 
     27 C23       -19.9240  -16.9970    3.2100 C.ar      1 14R501      0.0000 
     28 C24       -19.5000  -15.6640    3.6730 C.2       1 14R501      0.0000 
     29 N4        -18.3090  -15.1070    3.4200 N.2       1 14R501      0.0000 
     30 N5        -18.2680  -13.8810    3.9840 N.2       1 14R501      0.0000 
     31 N6        -19.4060  -13.7120    4.5650 N.2       1 14R501      0.0000 
     32 N7        -20.2010  -14.8040    4.3970 N.pl3     1 14R501      0.0000 
     33 C25       -17.1940  -17.4690   13.6460 C.3       1 14R501      0.0000 
     34 C26       -17.2600  -17.1230   15.1120 C.ar      1 14R501      0.0000 
     35 C27       -16.1020  -16.9980   15.8620 C.ar      1 14R501      0.0000 
     36 C28       -16.1590  -16.6280   17.1940 C.ar      1 14R501      0.0000 
     37 C29       -17.3720  -16.3710   17.7890 C.ar      1 14R501      0.0000 
     38 C30       -18.5330  -16.4980   17.0610 C.ar      1 14R501      0.0000 
     39 C31       -18.4790  -16.8730   15.7280 C.ar      1 14R501      0.0000 
     40 H         -22.1982  -15.0246    8.2464 H         1 14R501      0.0000 
     41 H         -22.7130  -13.7610    9.3770 H         1 14R501      0.0000 
     42 H         -17.8872  -13.2362   12.1954 H         1 14R501      0.0000 
     43 H         -16.6985  -14.9292   13.4647 H         1 14R501      0.0000 
     44 H         -20.8371  -18.1458   10.2492 H         1 14R501      0.0000 
     45 H         -23.1815  -16.4842    9.3880 H         1 14R501      0.0000 
     46 H         -23.1204  -17.8460   10.5201 H         1 14R501      0.0000 
     47 H         -23.8432  -18.1795    7.9664 H         1 14R501      0.0000 
     48 H         -22.8704  -19.3876    8.8231 H         1 14R501      0.0000 
     49 H         -18.8818  -16.5249    8.2052 H         1 14R501      0.0000 
     50 H         -18.5560  -16.9559    5.8501 H         1 14R501      0.0000 
     51 H         -22.3014  -18.8348    5.6853 H         1 14R501      0.0000 
     52 H         -20.7832  -20.0982    4.1504 H         1 14R501      0.0000 
     53 H         -20.8028  -20.4177    1.7596 H         1 14R501      0.0000 
     54 H         -20.2873  -18.5782    0.2824 H         1 14R501      0.0000 
     55 H         -19.7037  -16.4199    1.1967 H         1 14R501      0.0000 
     56 H         -21.0851  -14.9080    4.7414 H         1 14R501      0.0000 
     57 H         -16.1333  -17.5193   13.3432 H         1 14R501      0.0000 
     58 H         -17.6132  -18.4806   13.5035 H         1 14R501      0.0000 
     59 H         -15.1842  -17.1836   15.4203 H         1 14R501      0.0000 
     60 H         -15.2857  -16.5456   17.7401 H         1 14R501      0.0000 
     61 H         -17.4120  -16.0834   18.7796 H         1 14R501      0.0000 
     62 H         -19.4467  -16.3148   17.5042 H         1 14R501      0.0000 
     63 H         -19.3543  -16.9679   15.1859 H         1 14R501      0.0000 
     64 H         -20.9646  -12.3291    8.4410 H         1 14R501      0.0000 
     65 H         -20.5038  -13.4754    7.4115 H         1 14R501      0.0000 
     66 H         -21.9647  -12.8161    7.2796 H         1 14R501      0.0000 
@<TRIPOS>BOND
     1    2    1 1    
     2   64    1 1    
     3   65    1 1    
     4   66    1 1    
     5    3    2 1    
     6   40    2 1    
     7   41    2 1    
     8    4    3 2    
     9   12    3 1    
    10    5    4 1    
    11    6    5 1    
    12   11    5 2    
    13    7    6 2    
    14   42    6 1    
    15    8    7 1    
    16   43    7 1    
    17    9    8 am   
    18   33    8 1    
    19   10    9 2    
    20   11    9 1    
    21   12   11 1    
    22   13   12 1    
    23   14   13 1    
    24   17   13 1    
    25   44   13 1    
    26   15   14 1    
    27   45   14 1    
    28   46   14 1    
    29   16   15 1    
    30   47   15 1    
    31   48   15 1    
    32   17   16 ar   
    33   21   16 ar   
    34   18   17 ar   
    35   19   18 ar   
    36   49   18 1    
    37   20   19 ar   
    38   50   19 1    
    39   21   20 ar   
    40   22   20 1    
    41   51   21 1    
    42   23   22 ar   
    43   27   22 ar   
    44   24   23 ar   
    45   52   23 1    
    46   25   24 ar   
    47   53   24 1    
    48   26   25 ar   
    49   54   25 1    
    50   27   26 ar   
    51   55   26 1    
    52   28   27 1    
    53   29   28 2    
    54   32   28 1    
    55   30   29 1    
    56   31   30 2    
    57   32   31 1    
    58   56   32 1    
    59   34   33 1    
    60   57   33 1    
    61   58   33 1    
    62   35   34 ar   
    63   39   34 ar   
    64   36   35 ar   
    65   59   35 1    
    66   37   36 ar   
    67   60   36 1    
    68   38   37 ar   
    69   61   37 1    
    70   39   38 ar   
    71   62   38 1    
    72   63   39 1    
@<TRIPOS>SUBSTRUCTURE
     1 14R501      1 GROUP   
@<TRIPOS>SET

