#    Name: 3v4a_PK1_1_INTS_M
#    Modification time : Mon Mar 24 23:57:05 2014

@<TRIPOS>MOLECULE
3v4a_PK1_1_INTS_M
   79     0     6     0     0
SMALL
NO_CHARGES


@<TRIPOS>ATOM
      1 CA         30.1815    1.5345    2.0900 C.3       2 GLC5        0.0000 
      2 CA         30.6190    0.5980    3.8530 C.3       6 GLL5        0.0000 
      3 CA         29.7440    2.4710    0.3270 C.3       4 GLP5        0.0000 
      4 CA         32.0495    1.8955    3.3515 C.3       2 GLC5        0.0000 
      5 CA         33.4800    3.1930    2.8500 C.3       4 GLP5        0.0000 
      6 CA         29.6080   -1.7705    1.4990 C.3       2 GLC5        0.0000 
      7 CA         28.3000   -1.3720    2.9440 C.3       6 GLL5        0.0000 
      8 CA         30.9160   -2.1690    0.0540 C.3       4 GLP5        0.0000 
      9 CA         26.9360   -2.4545    2.3480 C.3       2 GLC5        0.0000 
     10 CA         25.5720   -3.5370    1.7520 C.3       4 GLP5        0.0000 
     11 CA         29.0920   -2.8910    4.2715 C.3       2 GLC5        0.0000 
     12 CA         29.8840   -4.4100    5.5990 C.3       4 GLP5        0.0000 
     13 CA         27.0800    0.9520    0.7635 C.3       2 GLC5        0.0000 
     14 CA         26.0430    0.8710    2.4310 C.3       6 GLL5        0.0000 
     15 CA         28.1170    1.0330   -0.9040 C.3       4 GLP5        0.0000 
     16 CA         24.9745    2.4250    1.5840 C.3       2 GLC5        0.0000 
     17 CA         23.9060    3.9790    0.7370 C.3       4 GLP5        0.0000 
     18 CA         26.0095   -0.9165    1.3295 C.3       2 GLC5        0.0000 
     19 CA         25.9760   -2.7040    0.2280 C.3       4 GLP5        0.0000 
     20 CA         24.6870   -0.6265    3.0700 C.3       2 GLC5        0.0000 
     21 CA         23.3310   -2.1240    3.7090 C.3       4 GLP5        0.0000 
     22 CA         28.4800    1.7285    1.7995 C.3       2 GLC5        0.0000 
     23 CA         27.2160    0.9860    3.2720 C.3       6 GLL5        0.0000 
     24 CA         31.9460   -1.3875    7.3590 C.3       2 GLC5        0.0000 
     25 CA         30.3040   -0.0430    6.6470 C.3       6 GLL5        0.0000 
     26 CA         33.5880   -2.7320    8.0710 C.3       4 GLP5        0.0000 
     27 CA         27.3685   -3.3615    8.1545 C.3       2 GLC5        0.0000 
     28 CA         28.1830   -1.6500    7.4170 C.3       6 GLL5        0.0000 
     29 CA         26.5540   -5.0730    8.8920 C.3       4 GLP5        0.0000 
     30 N          28.1650   -2.4660   10.1630 N.am      1 SEC2        0.0000 
     31 N          29.3400   -2.1980    9.5050 N.am      5 SEL2        0.0000 
     32 N          26.9900   -2.7340   10.8210 N.am      3 SEP2        0.0000 
     33 CA         21.7400    4.6435    5.6240 C.3       2 GLC5        0.0000 
     34 CA         23.2260    4.7600    4.4840 C.3       6 GLL5        0.0000 
     35 CA         20.2540    4.5270    6.7640 C.3       4 GLP5        0.0000 
     36 CA         21.9795    6.0745    3.8585 C.3       2 GLC5        0.0000 
     37 CA         20.7330    7.3890    3.2330 C.3       4 GLP5        0.0000 
     38 CA         23.5660    4.3695    2.6105 C.3       2 GLC5        0.0000 
     39 CA         26.2780    7.8750    2.5205 C.3       2 GLC5        0.0000 
     40 CA         24.8490    7.4010    3.9600 C.3       6 GLL5        0.0000 
     41 CA         27.7070    8.3490    1.0810 C.3       4 GLP5        0.0000 
     42 CA         24.5445    6.8155    5.8625 C.3       2 GLC5        0.0000 
     43 CA         24.2400    6.2300    7.7650 C.3       4 GLP5        0.0000 
     44 CA         22.7910    7.3950    3.5965 C.3       2 GLC5        0.0000 
     45 CA         24.6125    6.3225    2.2160 C.3       2 GLC5        0.0000 
     46 CA         24.3760    5.2440    0.4720 C.3       4 GLP5        0.0000 
     47 CA         30.4582   -1.8565    5.8750 C.3       2 GLC5        0.0000 
     48 CA         29.2090   -0.1930    5.8070 C.3       6 GLL5        0.0000 
     49 CA         31.1600   -3.5950    5.5230 C.3       4 GLP5        0.0000 
     50 CA         28.8010    0.5673    7.8345 C.3       2 GLC5        0.0000 
     51 CA         27.2800    1.5070    8.4130 C.3       4 GLP5        0.0000 
     52 CA         31.8640    1.0342    7.5075 C.3       2 GLC5        0.0000 
     53 CA         30.3400   -0.7020    7.8650 C.3       6 GLL5        0.0000 
     54 CA         33.4060    2.4410    7.7590 C.3       4 GLP5        0.0000 
     55 CA         30.4890   -2.3588    6.7955 C.3       2 GLC5        0.0000 
     56 CA         31.4060   -1.9997    8.7640 C.3       2 GLC5        0.0000 
     57 CA         32.9940   -2.8770    9.4600 C.3       4 GLP5        0.0000 
     58 CA         28.0098   -0.0448    8.1285 C.3       2 GLC5        0.0000 
     59 CA         29.2960   -1.5430    8.2710 C.3       6 GLL5        0.0000 
     60 CA         26.1623   -1.9275    6.4388 C.3       2 GLC5        0.0000 
     61 CA         24.1650   -2.5450    6.0640 C.3       4 GLP5        0.0000 
     62 CA         29.0217   -2.8600    6.2063 C.3       2 GLC5        0.0000 
     63 CA         28.1360   -0.9700    6.2100 C.3       6 GLL5        0.0000 
     64 CA         27.9734    0.5549    7.0418 C.3       2 GLC5        0.0000 
     65 CA         27.4258    3.7348    1.7237 C.3       2 GLC5        0.0000 
     66 CA         26.9620    3.4750    3.9960 C.3       6 GLL5        0.0000 
     67 CA         27.5180    3.4160   -0.4380 C.3       4 GLP5        0.0000 
     68 CA         25.9495    2.5220    5.9008 C.3       2 GLC5        0.0000 
     69 CA         25.6260    1.5380    7.7150 C.3       4 GLP5        0.0000 
     70 CA         28.9590    5.6647    4.7530 C.3       2 GLC5        0.0000 
     71 CA         27.7050    4.6320    3.7750 C.3       6 GLL5        0.0000 
     72 CA         30.5540    6.0950    5.7240 C.3       4 GLP5        0.0000 
     73 CA         27.0207    7.1010    2.4745 C.3       2 GLC5        0.0000 
     74 CA         27.0230    5.8370    3.7890 C.3       6 GLL5        0.0000 
     75 CA         26.7535    6.0474    5.6713 C.3       2 GLC5        0.0000 
     76 CA         25.6460    5.8690    3.9470 C.3       6 GLL5        0.0000 
     77 CA         27.0020    6.5430    7.4780 C.3       4 GLP5        0.0000 
     78 CA         24.1575    5.4905    6.0620 C.3       2 GLC5        0.0000 
     79 CA         24.9240    4.7420    4.2340 C.3       6 GLL5        0.0000 
@<TRIPOS>BOND
@<TRIPOS>SUBSTRUCTURE
     1 SEC2       30 GROUP        1 X    SEC  0     ROOT SEC X 2
     2 GLC5        1 GROUP        1 X    GLC  0     **** GLC X 6
     3 SEP2       32 GROUP        1 Y    SEP  0     ROOT SEP Y 9
     4 GLP5        3 GROUP        1 Y    GLP  0     **** GLP Y 13
     5 SEL2       31 GROUP        1 Z    SEL  0     ROOT SEL Z 16
     6 GLL5        2 GROUP        1 Z    GLL  0     **** GLL Z 20
@<TRIPOS>SET

