#    Name: 3v4a_PK1_1_ligand
#    Modification time : Mon Mar 24 23:57:05 2014

@<TRIPOS>MOLECULE
3v4a_PK1_1_ligand
   38    40     1     0     0
SMALL
NO_CHARGES


@<TRIPOS>ATOM
      1 N4         28.2210   -0.0100    3.5200 N.am      1 PK1950      0.0000 
      2 C31        30.6190    0.5980    3.8530 C.3       1 PK1950      0.0000 
      3 C4         28.3000   -1.3720    2.9440 C.3       1 PK1950      0.0000 
      4 O2         29.3260    2.6340    5.4460 O.2       1 PK1950      0.0000 
      5 C2         28.7300    1.8880    4.7210 C.2       1 PK1950      0.0000 
      6 S5         26.0430    0.8710    2.4310 S.2       1 PK1950      0.0000 
      7 C5         27.2160    0.9860    3.2720 C.2       1 PK1950      0.0000 
      8 C3         29.1860    0.5440    4.4550 C.3       1 PK1950      0.0000 
      9 C1B        29.2090   -0.1930    5.8070 C.ar      1 PK1950      0.0000 
     10 C2B        30.3040   -0.0430    6.6470 C.ar      1 PK1950      0.0000 
     11 C3B        30.3400   -0.7020    7.8650 C.ar      1 PK1950      0.0000 
     12 C4B        29.2960   -1.5430    8.2710 C.ar      1 PK1950      0.0000 
     13 C5B        28.1830   -1.6500    7.4170 C.ar      1 PK1950      0.0000 
     14 C6B        28.1360   -0.9700    6.2100 C.ar      1 PK1950      0.0000 
     15 O4         29.3400   -2.1980    9.5050 O.3       1 PK1950      0.0000 
     16 N1         27.5510    2.1840    4.0190 N.am      1 PK1950      0.0000 
     17 C1A        26.9620    3.4750    3.9960 C.ar      1 PK1950      0.0000 
     18 C2A        27.7050    4.6320    3.7750 C.ar      1 PK1950      0.0000 
     19 C3A        27.0230    5.8370    3.7890 C.ar      1 PK1950      0.0000 
     20 C4A        25.6460    5.8690    3.9470 C.ar      1 PK1950      0.0000 
     21 C5A        24.9240    4.7420    4.2340 C.ar      1 PK1950      0.0000 
     22 C6A        25.5840    3.5370    4.1770 C.ar      1 PK1950      0.0000 
     23 CL1        23.2260    4.7600    4.4840 Cl        1 PK1950      0.0000 
     24 CL2        24.8490    7.4010    3.9600 Cl        1 PK1950      0.0000 
     25 H          31.0900    0.5593    6.3632 H         1 PK1950      0.0000 
     26 H          31.1546   -0.5743    8.4946 H         1 PK1950      0.0000 
     27 H          27.3896   -2.2495    7.7032 H         1 PK1950      0.0000 
     28 H          27.2997   -1.0434    5.6113 H         1 PK1950      0.0000 
     29 H          28.7009    4.5899    3.6115 H         1 PK1950      0.0000 
     30 H          27.5459    6.7233    3.6805 H         1 PK1950      0.0000 
     31 H          25.0486    2.6503    4.2703 H         1 PK1950      0.0000 
     32 H          31.2794    0.9794    4.4998 H         1 PK1950      0.0000 
     33 H          30.9494   -0.3109    3.5984 H         1 PK1950      0.0000 
     34 H          30.6548    1.1642    3.0295 H         1 PK1950      0.0000 
     35 H          28.3662   -1.3501    1.9464 H         1 PK1950      0.0000 
     36 H          29.0986   -1.8715    3.2798 H         1 PK1950      0.0000 
     37 H          27.4947   -1.9191    3.1724 H         1 PK1950      0.0000 
     38 H          29.9174   -1.6206   10.0824 H         1 PK1950      0.0000 
@<TRIPOS>BOND
     1    3    1 1    
     2    7    1 am   
     3    8    1 1    
     4    8    2 1    
     5   32    2 1    
     6   33    2 1    
     7   34    2 1    
     8   35    3 1    
     9   36    3 1    
    10   37    3 1    
    11    5    4 2    
    12    8    5 1    
    13   16    5 am   
    14    7    6 2    
    15   16    7 am   
    16    9    8 1    
    17   10    9 ar   
    18   14    9 ar   
    19   11   10 ar   
    20   25   10 1    
    21   12   11 ar   
    22   26   11 1    
    23   13   12 ar   
    24   15   12 1    
    25   14   13 ar   
    26   27   13 1    
    27   28   14 1    
    28   38   15 1    
    29   17   16 1    
    30   18   17 ar   
    31   22   17 ar   
    32   19   18 ar   
    33   29   18 1    
    34   20   19 ar   
    35   30   19 1    
    36   21   20 ar   
    37   24   20 1    
    38   22   21 ar   
    39   23   21 1    
    40   31   22 1    
@<TRIPOS>SUBSTRUCTURE
     1 PK1950      1 GROUP   
@<TRIPOS>SET

