#    Name: 4an9_2P7_1_INTS_M
#    Modification time : Tue Mar 25 05:49:12 2014

@<TRIPOS>MOLECULE
4an9_2P7_1_INTS_M
   66     0     9     0     0
SMALL
NO_CHARGES


@<TRIPOS>ATOM
      1 CA        -27.2570  -24.3740   -5.9665 C.3       3 GLC5        0.0000 
      2 CA        -28.5530  -23.6340   -4.7120 C.3       9 GLL5        0.0000 
      3 CA        -25.9610  -25.1140   -7.2210 C.3       6 GLP5        0.0000 
      4 CA        -27.6135  -25.3245   -2.1020 C.3       3 GLC5        0.0000 
      5 CA        -28.8730  -24.1170   -3.4410 C.3       9 GLL5        0.0000 
      6 CA        -26.3540  -26.5320   -0.7630 C.3       6 GLP5        0.0000 
      7 CA        -32.2740  -24.4830   -5.7800 C.3       3 GLC5        0.0000 
      8 CA        -30.8630  -25.2500   -4.2830 C.3       9 GLL5        0.0000 
      9 CA        -33.6850  -23.7160   -7.2770 C.3       6 GLP5        0.0000 
     10 CA        -29.8605  -22.4480   -4.3825 C.3       3 GLC5        0.0000 
     11 CA        -29.4220  -23.9850   -5.7520 C.3       9 GLL5        0.0000 
     12 CA        -30.2990  -20.9110   -3.0130 C.3       6 GLP5        0.0000 
     13 CA        -23.7215  -19.6725   -4.1300 C.3       3 GLC5        0.0000 
     14 CA        -25.1240  -20.6250   -3.0460 C.3       9 GLL5        0.0000 
     15 CA        -22.3190  -18.7200   -5.2140 C.3       6 GLP5        0.0000 
     16 N         -27.9035  -20.1155   -6.7920 N.am      2 SEC2        0.0000 
     17 N         -26.9960  -20.4310   -5.9670 N.am      8 SEL2        0.0000 
     18 N         -28.8110  -19.8000   -7.6170 N.am      5 SEP2        0.0000 
     19 CA        -27.9260  -15.9715   -1.9695 C.3       3 GLC5        0.0000 
     20 CA        -27.0930  -16.7210   -3.8000 C.3       9 GLL5        0.0000 
     21 CA        -28.7590  -15.2220   -0.1390 C.3       6 GLP5        0.0000 
     22 N         -29.8185  -16.0940   -2.9305 N.am      2 SEC2        0.0000 
     23 N         -28.2460  -16.3310   -3.0240 N.am      8 SEL2        0.0000 
     24 N         -31.3910  -15.8570   -2.8370 N.am      5 SEP2        0.0000 
     25 O         -28.4215  -15.1515   -2.6410 O.2       1 ALC1        0.0000 
     26 O         -28.2460  -16.3310   -3.0240 O.2       7 ALL1        0.0000 
     27 O         -28.5970  -13.9720   -2.2580 O.2       4 ALP1        0.0000 
     28 CA        -25.3300  -17.7335   -5.8540 C.3       3 GLC5        0.0000 
     29 CA        -27.3770  -17.4280   -5.1240 C.3       9 GLL5        0.0000 
     30 CA        -23.2830  -18.0390   -6.5840 C.3       6 GLP5        0.0000 
     31 CA        -29.1515  -22.2705   -8.4630 C.3       3 GLC5        0.0000 
     32 CA        -29.2080  -23.5650   -7.0140 C.3       9 GLL5        0.0000 
     33 CA        -29.0950  -20.9760   -9.9120 C.3       6 GLP5        0.0000 
     34 CA        -25.2770  -26.0290   -3.5895 C.3       3 GLC5        0.0000 
     35 CA        -26.3620  -24.5510   -3.3450 C.3       9 GLL5        0.0000 
     36 CA        -24.1920  -27.5070   -3.8340 C.3       6 GLP5        0.0000 
     37 CA        -27.5065  -26.4270   -3.3555 C.3       3 GLC5        0.0000 
     38 CA        -28.6510  -28.3030   -3.3660 C.3       6 GLP5        0.0000 
     39 CA        -24.2925  -25.6655   -2.6295 C.3       3 GLC5        0.0000 
     40 CA        -24.3930  -23.8240   -1.4250 C.3       9 GLL5        0.0000 
     41 CA        -25.3735  -25.1780   -1.0940 C.3       3 GLC5        0.0000 
     42 CA        -23.0140  -25.0835   -1.2295 C.3       3 GLC5        0.0000 
     43 CA        -21.6350  -26.3430   -1.0340 C.3       6 GLP5        0.0000 
     44 CA        -23.4995  -23.6170   -3.1690 C.3       3 GLC5        0.0000 
     45 CA        -22.6060  -23.4100   -4.9130 C.3       6 GLP5        0.0000 
     46 CA        -29.8285  -22.6544   -3.3346 C.3       3 GLC5        0.0000 
     47 CA        -30.0030  -24.9200   -3.2360 C.3       9 GLL5        0.0000 
     48 CA        -29.4007  -26.5936   -3.5884 C.3       3 GLC5        0.0000 
     49 CA        -32.3892  -23.8187   -4.5273 C.3       3 GLC5        0.0000 
     50 CA        -34.0770  -22.6300   -4.1460 C.3       6 GLP5        0.0000 
     51 CA        -28.2955  -21.3010   -3.5120 C.3       3 GLC5        0.0000 
     52 CA        -26.5130  -22.3670   -4.0490 C.3       9 GLL5        0.0000 
     53 CA        -24.4490  -22.5505   -4.4620 C.3       3 GLC5        0.0000 
     54 CA        -23.7263  -22.2562   -3.7672 C.3       3 GLC5        0.0000 
     55 CA        -24.5690  -21.5800   -2.1970 C.3       9 GLL5        0.0000 
     56 CA        -28.7581  -18.4679   -4.0049 C.3       3 GLC5        0.0000 
     57 CA        -30.4340  -19.5450   -3.7000 C.3       6 GLP5        0.0000 
     58 CA        -29.0173  -25.3960   -7.1387 C.3       3 GLC5        0.0000 
     59 CA        -28.4400  -26.8220   -7.9490 C.3       6 GLP5        0.0000 
     60 CA        -31.1163  -24.2850   -7.4182 C.3       3 GLC5        0.0000 
     61 CA        -32.6380  -24.6000   -8.5080 C.3       6 GLP5        0.0000 
     62 CA        -26.1276  -24.4016   -5.3539 C.3       3 GLC5        0.0000 
     63 CA        -26.1305  -25.1796   -1.9025 C.3       3 GLC5        0.0000 
     64 CA        -24.2565  -23.6186   -3.9775 C.3       3 GLC5        0.0000 
     65 CA        -25.2084  -22.6884   -0.1771 C.3       3 GLC5        0.0000 
     66 CA        -25.8370  -22.3400    1.4750 C.3       6 GLP5        0.0000 
@<TRIPOS>BOND
@<TRIPOS>SUBSTRUCTURE
     1 ALC1       25 GROUP        1 X    ALC  0     ROOT ALC X 1
     2 SEC2       16 GROUP        1 X    SEC  0     **** SEC X 2
     3 GLC5        1 GROUP        1 X    GLC  0     **** GLC X 6
     4 ALP1       27 GROUP        1 Y    ALP  0     ROOT ALP Y 8
     5 SEP2       18 GROUP        1 Y    SEP  0     **** SEP Y 9
     6 GLP5        3 GROUP        1 Y    GLP  0     **** GLP Y 13
     7 ALL1       26 GROUP        1 Z    ALL  0     ROOT ALL Z 15
     8 SEL2       17 GROUP        1 Z    SEL  0     **** SEL Z 16
     9 GLL5        2 GROUP        1 Z    GLL  0     **** GLL Z 20
@<TRIPOS>SET

