#    Name: 4an9_2P7_1_ligand
#    Modification time : Tue Mar 25 05:49:12 2014

@<TRIPOS>MOLECULE
4an9_2P7_1_ligand
   36    38     1     0     0
SMALL
NO_CHARGES


@<TRIPOS>ATOM
      1 C5        -28.5530  -23.6340   -4.7120 C.ar      1 2P71384     0.0000 
      2 C6        -28.8730  -24.1170   -3.4410 C.ar      1 2P71384     0.0000 
      3 C7        -30.0030  -24.9200   -3.2360 C.ar      1 2P71384     0.0000 
      4 C2        -30.8630  -25.2500   -4.2830 C.ar      1 2P71384     0.0000 
      5 C3        -30.5400  -24.7650   -5.5340 C.ar      1 2P71384     0.0000 
      6 C4        -29.4220  -23.9850   -5.7520 C.ar      1 2P71384     0.0000 
      7 N8        -27.4480  -22.8360   -4.9540 N.pl3     1 2P71384     0.0000 
      8 C9        -26.5130  -22.3670   -4.0490 C.ar      1 2P71384     0.0000 
      9 C14       -26.0710  -21.0150   -3.9730 C.ar      1 2P71384     0.0000 
     10 C13       -25.1240  -20.6250   -3.0460 C.ar      1 2P71384     0.0000 
     11 C12       -24.5690  -21.5800   -2.1970 C.ar      1 2P71384     0.0000 
     12 C11       -24.9640  -22.9190   -2.2700 C.ar      1 2P71384     0.0000 
     13 C10       -25.9400  -23.2880   -3.2080 C.ar      1 2P71384     0.0000 
     14 C15       -26.6580  -19.9610   -4.8690 C.2       1 2P71384     0.0000 
     15 N17       -26.8150  -18.6340   -4.4610 N.am      1 2P71384     0.0000 
     16 O16       -26.9960  -20.4310   -5.9670 O.2       1 2P71384     0.0000 
     17 C19       -27.0930  -16.7210   -3.8000 C.3       1 2P71384     0.0000 
     18 C20       -26.4820  -17.9860   -3.1910 C.3       1 2P71384     0.0000 
     19 O21       -28.2460  -16.3310   -3.0240 O.3       1 2P71384     0.0000 
     20 C18       -27.3770  -17.4280   -5.1240 C.3       1 2P71384     0.0000 
     21 F24       -29.2080  -23.5650   -7.0140 F         1 2P71384     0.0000 
     22 F23       -26.3620  -24.5510   -3.3450 F         1 2P71384     0.0000 
     23 F22       -24.3930  -23.8240   -1.4250 F         1 2P71384     0.0000 
     24 H         -28.2682  -23.8796   -2.6380 H         1 2P71384     0.0000 
     25 H         -30.2018  -25.2756   -2.2827 H         1 2P71384     0.0000 
     26 H         -31.6815  -25.8173   -4.1261 H         1 2P71384     0.0000 
     27 H         -31.1621  -24.9957   -6.3431 H         1 2P71384     0.0000 
     28 H         -27.2954  -22.5392   -5.9917 H         1 2P71384     0.0000 
     29 H         -24.8297  -19.6463   -2.9794 H         1 2P71384     0.0000 
     30 H         -23.8572  -21.2975   -1.5048 H         1 2P71384     0.0000 
     31 H         -26.3397  -16.0440   -3.9279 H         1 2P71384     0.0000 
     32 H         -25.4877  -17.8534   -3.0876 H         1 2P71384     0.0000 
     33 H         -27.0734  -18.3075   -2.4401 H         1 2P71384     0.0000 
     34 H         -28.3695  -17.5142   -5.2493 H         1 2P71384     0.0000 
     35 H         -26.7524  -17.0791   -5.8286 H         1 2P71384     0.0000 
     36 H         -27.9441  -15.5400   -2.4918 H         1 2P71384     0.0000 
@<TRIPOS>BOND
     1    2    1 ar   
     2    6    1 ar   
     3    7    1 1    
     4    3    2 ar   
     5   24    2 1    
     6    4    3 ar   
     7   25    3 1    
     8    5    4 ar   
     9   26    4 1    
    10    6    5 ar   
    11   27    5 1    
    12   21    6 1    
    13    8    7 1    
    14   28    7 1    
    15    9    8 ar   
    16   13    8 ar   
    17   10    9 ar   
    18   14    9 1    
    19   11   10 ar   
    20   29   10 1    
    21   12   11 ar   
    22   30   11 1    
    23   13   12 ar   
    24   23   12 1    
    25   22   13 1    
    26   15   14 am   
    27   16   14 2    
    28   18   15 1    
    29   20   15 1    
    30   18   17 1    
    31   19   17 1    
    32   20   17 1    
    33   31   17 1    
    34   32   18 1    
    35   33   18 1    
    36   36   19 1    
    37   34   20 1    
    38   35   20 1    
@<TRIPOS>SUBSTRUCTURE
     1 2P71384     1 GROUP   
@<TRIPOS>SET

