#    Name: 2EGW_1_CAVITY_N1_6.mol2
#    Modification time : Tue Mar 11 10:40:59 2014

@<TRIPOS>MOLECULE
2EGW_1_CAVITY_N1_6.mol2
   70     0     4     0     0
SMALL
NO_CHARGES


@<TRIPOS>ATOM
      1 O          24.6559   -4.4503   42.1654 O.2       1 ALA2        0.0000 
      2 CZ         25.8680   -4.3754   41.2851 C.ar      2 PHE5        0.0000 
      3 N          25.9901   -5.8699   41.3260 N.2       1 ALA2        0.0000 
      4 N          23.6588   -3.0605   40.9107 N.2       1 ALA2        0.0000 
      5 N          24.8709   -2.9856   40.0303 N.2       1 ALA2        0.0000 
      6 O          23.7808   -4.5550   40.9516 O.2       1 ALA2        0.0000 
      7 N          24.9930   -4.4801   40.0713 N.2       1 ALA2        0.0000 
      8 O          22.6906   -6.1243   41.8729 O.2       1 ALA2        0.0000 
      9 DU         23.9028   -6.0494   40.9925 H         4 CUB7        0.0000 
     10 N          25.1150   -5.9746   40.1122 N.2       1 ALA2        0.0000 
     11 N          25.2370   -7.4690   40.1531 N.2       1 ALA2        0.0000 
     12 O          27.3883    0.1232   36.0936 O.2       1 ALA2        0.0000 
     13 O          26.2982   -1.4461   37.0149 O.2       1 ALA2        0.0000 
     14 CA         27.5104   -1.3712   36.1345 C.3       3 GLY6        0.0000 
     15 CA         22.7837   -3.1652   39.6969 C.3       3 GLY6        0.0000 
     16 CA         23.9959   -3.0903   38.8165 C.3       3 GLY6        0.0000 
     17 O          21.6936   -4.7345   40.6182 O.2       1 ALA2        0.0000 
     18 CA         22.9057   -4.6596   39.7378 C.3       3 GLY6        0.0000 
     19 N          24.1179   -4.5848   38.8575 N.2       1 ALA2        0.0000 
     20 O          21.8156   -6.2290   40.6591 O.2       1 ALA2        0.0000 
     21 N          23.0278   -6.1541   39.7787 N.2       1 ALA2        0.0000 
     22 N          24.3620   -7.5737   38.9393 N.2       1 ALA2        0.0000 
     23 N          23.7228    4.3522   36.5178 N.2       1 ALA2        0.0000 
     24 CA         23.8449    2.8577   36.5587 C.3       3 GLY6        0.0000 
     25 O          25.0570    2.9326   35.6783 O.2       1 ALA2        0.0000 
     26 CA         23.9669    1.3633   36.5996 C.3       3 GLY6        0.0000 
     27 O          25.1791    1.4381   35.7193 O.2       1 ALA2        0.0000 
     28 N          26.3912    1.5130   34.8389 N.2       1 ALA2        0.0000 
     29 O          24.0889   -0.1312   36.6405 O.2       1 ALA2        0.0000 
     30 O          25.3011   -0.0563   35.7602 O.2       1 ALA2        0.0000 
     31 N          26.5133    0.0185   34.8798 N.2       1 ALA2        0.0000 
     32 O          24.2110   -1.6257   36.6815 O.2       1 ALA2        0.0000 
     33 O          25.4231   -1.5508   35.8011 O.2       1 ALA2        0.0000 
     34 N          26.6353   -1.4759   34.9208 N.2       1 ALA2        0.0000 
     35 CA         23.1208   -3.1950   37.6027 C.3       3 GLY6        0.0000 
     36 N          24.3330   -3.1201   36.7224 N.2       1 ALA2        0.0000 
     37 N          25.5452   -3.0453   35.8420 N.2       1 ALA2        0.0000 
     38 N          20.8185   -4.8392   39.4044 N.2       1 ALA2        0.0000 
     39 CA         22.0307   -4.7643   38.5240 C.3       3 GLY6        0.0000 
     40 N          23.2428   -4.6895   37.6437 N.2       1 ALA2        0.0000 
     41 CA         20.9405   -6.3337   39.4453 C.3       3 GLY6        0.0000 
     42 N          22.1527   -6.2588   38.5650 N.2       1 ALA2        0.0000 
     43 N          23.4869   -7.6784   37.7255 N.2       1 ALA2        0.0000 
     44 CA         21.6356    4.1726   36.1843 C.3       3 GLY6        0.0000 
     45 CA         22.8478    4.2475   35.3040 C.3       3 GLY6        0.0000 
     46 O          21.7576    2.6782   36.2252 O.2       1 ALA2        0.0000 
     47 DU         22.9698    2.7531   35.3449 H         4 CUB7        0.0000 
     48 CA         24.1820    2.8279   34.4645 C.3       3 GLY6        0.0000 
     49 O          21.8797    1.1837   36.2662 O.2       1 ALA2        0.0000 
     50 N          23.0918    1.2586   35.3858 N.2       1 ALA2        0.0000 
     51 CA         24.3040    1.3335   34.5055 C.3       3 GLY6        0.0000 
     52 CA         25.5162    1.4083   33.6251 C.3       3 GLY6        0.0000 
     53 N          23.2139   -0.2359   35.4267 N.2       1 ALA2        0.0000 
     54 N          24.4260   -0.1610   34.5464 N.2       1 ALA2        0.0000 
     55 CA         25.6382   -0.0861   33.6660 C.3       3 GLY6        0.0000 
     56 CA         24.5481   -1.6555   34.5873 C.3       3 GLY6        0.0000 
     57 N          25.7602   -1.5806   33.7070 N.2       1 ALA2        0.0000 
     58 N          21.0336   -3.3746   37.2693 N.2       1 ALA2        0.0000 
     59 N          23.4579   -3.2248   35.5086 N.2       1 ALA2        0.0000 
     60 N          24.6701   -3.1499   34.6282 N.2       1 ALA2        0.0000 
     61 N          21.1556   -4.8690   37.3102 N.2       1 ALA2        0.0000 
     62 N          22.3678   -4.7942   36.4299 N.2       1 ALA2        0.0000 
     63 N          23.5799   -4.7193   35.5495 N.2       1 ALA2        0.0000 
     64 N          21.2776   -6.3635   37.3512 N.2       1 ALA2        0.0000 
     65 N          22.4898   -6.2886   36.4708 N.2       1 ALA2        0.0000 
     66 N          22.6118   -7.7831   36.5117 N.2       1 ALA2        0.0000 
     67 CA         22.0947    2.6484   34.1311 C.3       3 GLY6        0.0000 
     68 CA         23.3069    2.7232   33.2507 C.3       3 GLY6        0.0000 
     69 CA         22.2168    1.1539   34.1720 C.3       3 GLY6        0.0000 
     70 CA         23.5510   -0.2657   33.3326 C.3       3 GLY6        0.0000 
@<TRIPOS>BOND
@<TRIPOS>SUBSTRUCTURE
     1 ALA2        1 GROUP   
     2 PHE5        2 GROUP   
     3 GLY6       14 GROUP   
     4 CUB7        9 GROUP   
@<TRIPOS>SET

