#    Name: 2egw_SAH_1_INTS_M
#    Modification time : Tue Mar 25 11:02:37 2014

@<TRIPOS>MOLECULE
2egw_SAH_1_INTS_M
   76     0    12     0     0
SMALL
NO_CHARGES


@<TRIPOS>ATOM
      1 O          25.2440   -5.9195   38.3205 O.2       1 ALC1        0.0000 
      2 O          24.9840   -5.5550   39.6990 O.2       9 ALL1        0.0000 
      3 O          25.5040   -6.2840   36.9420 O.2       5 ALP1        0.0000 
      4 CA         22.5970   -2.3210   39.0245 C.3       4 GLC5        0.0000 
      5 CA         24.0600   -3.4210   38.9440 C.3      12 GLL5        0.0000 
      6 CA         21.1340   -1.2210   39.1050 C.3       8 GLP5        0.0000 
      7 CA         26.8695   -3.4755   37.5120 C.3       4 GLC5        0.0000 
      8 CA         24.8710   -3.4480   37.6480 C.3      12 GLL5        0.0000 
      9 CA         28.8680   -3.5030   37.3760 C.3       8 GLP5        0.0000 
     10 CA         22.5780   -1.8905   37.6990 C.3       4 GLC5        0.0000 
     11 CA         24.0220   -2.5600   36.2930 C.3      12 GLL5        0.0000 
     12 NZ         22.2355   -3.3805   42.7010 N.4       3 LYC4        0.0000 
     13 NZ         23.4400   -2.9550   41.6160 N.4      11 LYL4        0.0000 
     14 NZ         21.0310   -3.8060   43.7860 N.4       7 LYP4        0.0000 
     15 N          23.8640   -1.4685   40.9800 N.am      2 SEC2        0.0000 
     16 N          23.4400   -2.9550   41.6160 N.am     10 SEL2        0.0000 
     17 N          24.2880    0.0180   40.3440 N.am      6 SEP2        0.0000 
     18 NZ         22.2340   -4.9745   42.5590 N.4       3 LYC4        0.0000 
     19 NZ         23.8550   -5.1000   42.0370 N.4      11 LYL4        0.0000 
     20 N          23.0880   -4.3855   43.0560 N.am      2 SEC2        0.0000 
     21 N          23.8550   -5.1000   42.0370 N.am     10 SEL2        0.0000 
     22 N          22.3210   -3.6710   44.0750 N.am      6 SEP2        0.0000 
     23 N          22.2340   -4.9745   42.5590 N.am      2 SEC2        0.0000 
     24 N          20.6130   -4.8490   43.0810 N.am      6 SEP2        0.0000 
     25 CA         27.0780   -3.0725   36.1750 C.3       4 GLC5        0.0000 
     26 CA         25.2880   -2.6420   34.9740 C.3      12 GLL5        0.0000 
     27 CA         27.5605   -1.5140   33.5335 C.3       4 GLC5        0.0000 
     28 CA         25.5500   -1.2720   34.3460 C.3      12 GLL5        0.0000 
     29 CA         29.5710   -1.7560   32.7210 C.3       8 GLP5        0.0000 
     30 CA         26.8430    2.6015   35.8230 C.3       4 GLC5        0.0000 
     31 CA         25.9670    0.9830   34.6080 C.3      12 GLL5        0.0000 
     32 CA         27.7190    4.2200   37.0380 C.3       8 GLP5        0.0000 
     33 N          27.9830    0.2635   32.8260 N.am      2 SEC2        0.0000 
     34 N          26.8990    1.0570   33.5250 N.am     10 SEL2        0.0000 
     35 N          29.0670   -0.5300   32.1270 N.am      6 SEP2        0.0000 
     36 CA         25.5285    0.5060   32.0960 C.3       4 GLC5        0.0000 
     37 CA         24.5530    0.8060   34.0490 C.3      12 GLL5        0.0000 
     38 CA         26.5040    0.2060   30.1430 C.3       8 GLP5        0.0000 
     39 CA         23.3110    1.1095   32.7765 C.3       4 GLC5        0.0000 
     40 CA         22.0690    1.4130   31.5040 C.3       8 GLP5        0.0000 
     41 N          20.5360    0.6955   36.2650 N.am      2 SEC2        0.0000 
     42 N          21.7230    1.4660   36.1900 N.am     10 SEL2        0.0000 
     43 N          19.3490   -0.0750   36.3400 N.am      6 SEP2        0.0000 
     44 CA         21.1210    5.2545   35.5730 C.3       4 GLC5        0.0000 
     45 CA         21.8090    3.9420   36.5550 C.3      12 GLL5        0.0000 
     46 CA         20.4330    6.5670   34.5910 C.3       8 GLP5        0.0000 
     47 O          20.3045    5.4875   37.5800 O.2       1 ALC1        0.0000 
     48 O          20.7440    4.0620   37.3430 O.2       9 ALL1        0.0000 
     49 O          19.8650    6.9130   37.8170 O.2       5 ALP1        0.0000 
     50 O          19.5875    3.5400   37.7055 O.2       1 ALC1        0.0000 
     51 O          18.4310    3.0180   38.0680 O.2       5 ALP1        0.0000 
     52 N          22.2430    6.3145   36.2435 N.am      2 SEC2        0.0000 
     53 N          22.5410    5.0190   36.2380 N.am     10 SEL2        0.0000 
     54 N          21.9450    7.6100   36.2490 N.am      6 SEP2        0.0000 
     55 CA         25.1360    4.6825   33.9900 C.3       4 GLC5        0.0000 
     56 CA         23.6190    4.9100   35.4810 C.3      12 GLL5        0.0000 
     57 CA         26.6530    4.4550   32.4990 C.3       8 GLP5        0.0000 
     58 CA         25.6690    4.5650   36.2595 C.3       4 GLC5        0.0000 
     59 CA         24.2460    4.1345   37.4240 C.3       4 GLC5        0.0000 
     60 CA         24.8730    3.3590   39.3670 C.3       8 GLP5        0.0000 
     61 CA         23.7615    6.7315   36.4475 C.3       4 GLC5        0.0000 
     62 CA         23.9040    8.5530   37.4140 C.3       8 GLP5        0.0000 
     63 CA         22.4830    5.8225   34.4250 C.3       4 GLC5        0.0000 
     64 CA         21.3470    6.7350   33.3690 C.3       8 GLP5        0.0000 
     65 CA         22.7055    2.0195   33.3925 C.3       4 GLC5        0.0000 
     66 CA         23.3420    2.6260   35.2810 C.3      12 GLL5        0.0000 
     67 CA         25.8837   -2.9478   40.5953 C.3       4 GLC5        0.0000 
     68 CA         27.3400   -2.1120   41.6820 C.3       8 GLP5        0.0000 
     69 CA         24.9820   -2.7645   32.9230 C.3       4 GLC5        0.0000 
     70 CA         24.5450   -3.5720   31.1860 C.3       8 GLP5        0.0000 
     71 CA         25.9565    2.6747   33.4138 C.3       4 GLC5        0.0000 
     72 CA         20.3905    3.0788   34.9237 C.3       4 GLC5        0.0000 
     73 CA         22.2030    2.7010   36.0700 C.3      12 GLL5        0.0000 
     74 CA         18.7750    2.8360   33.5350 C.3       8 GLP5        0.0000 
     75 CA         23.3380    2.5439   37.4864 C.3       4 GLC5        0.0000 
     76 CA         24.0020    2.1140   39.1760 C.3       8 GLP5        0.0000 
@<TRIPOS>BOND
@<TRIPOS>SUBSTRUCTURE
     1 ALC1        1 GROUP        1 X    ALC  0     ROOT ALC X 1
     2 SEC2       15 GROUP        1 X    SEC  0     **** SEC X 2
     3 LYC4       12 GROUP        1 X    LYC  0     **** LYC X 4
     4 GLC5        4 GROUP        1 X    GLC  0     **** GLC X 6
     5 ALP1        3 GROUP        1 Y    ALP  0     ROOT ALP Y 8
     6 SEP2       17 GROUP        1 Y    SEP  0     **** SEP Y 9
     7 LYP4       14 GROUP        1 Y    LYP  0     **** LYP Y 11
     8 GLP5        6 GROUP        1 Y    GLP  0     **** GLP Y 13
     9 ALL1        2 GROUP        1 Z    ALL  0     ROOT ALL Z 15
    10 SEL2       16 GROUP        1 Z    SEL  0     **** SEL Z 16
    11 LYL4       13 GROUP        1 Z    LYL  0     **** LYL Z 18
    12 GLL5        5 GROUP        1 Z    GLL  0     **** GLL Z 20
@<TRIPOS>SET

