#    Name: 2egw_SAH_1_ligand
#    Modification time : Tue Mar 25 11:02:37 2014

@<TRIPOS>MOLECULE
2egw_SAH_1_ligand
   46    48     1     0     0
SMALL
NO_CHARGES


@<TRIPOS>ATOM
      1 N          24.9840   -5.5550   39.6990 N.4       1 SAH300      0.0000 
      2 CA         24.7950   -4.1460   40.0730 C.3       1 SAH300      0.0000 
      3 CB         24.0600   -3.4210   38.9440 C.3       1 SAH300      0.0000 
      4 CG         24.8710   -3.4480   37.6480 C.3       1 SAH300      0.0000 
      5 SD         24.0220   -2.5600   36.2930 S.3       1 SAH300      0.0000 
      6 C          23.9590   -4.0600   41.3510 C.2       1 SAH300      0.0000 
      7 O          23.4400   -2.9550   41.6160 O.co2     1 SAH300      0.0000 
      8 OXT        23.8550   -5.1000   42.0370 O.co2     1 SAH300      0.0000 
      9 C5'        25.2880   -2.6420   34.9740 C.3       1 SAH300      0.0000 
     10 C4'        25.5500   -1.2720   34.3460 C.3       1 SAH300      0.0000 
     11 O4'        24.3280   -0.6140   33.9700 O.3       1 SAH300      0.0000 
     12 C3'        26.1550   -0.3230   35.3800 C.3       1 SAH300      0.0000 
     13 O3'        27.5460   -0.6320   35.5180 O.3       1 SAH300      0.0000 
     14 C2'        25.9670    0.9830   34.6080 C.3       1 SAH300      0.0000 
     15 O2'        26.8990    1.0570   33.5250 O.3       1 SAH300      0.0000 
     16 C1'        24.5530    0.8060   34.0490 C.3       1 SAH300      0.0000 
     17 N9         23.5100    1.3490   34.9490 N.pl3     1 SAH300      0.0000 
     18 C8         22.5250    0.6500   35.5090 C.2       1 SAH300      0.0000 
     19 N7         21.7230    1.4660   36.1900 N.2       1 SAH300      0.0000 
     20 C5         22.2030    2.7010   36.0700 C.ar      1 SAH300      0.0000 
     21 C6         21.8090    3.9420   36.5550 C.ar      1 SAH300      0.0000 
     22 N6         20.7440    4.0620   37.3430 N.pl3     1 SAH300      0.0000 
     23 N1         22.5410    5.0190   36.2380 N.ar      1 SAH300      0.0000 
     24 C2         23.6190    4.9100   35.4810 C.ar      1 SAH300      0.0000 
     25 N3         24.0240    3.7460   35.0070 N.ar      1 SAH300      0.0000 
     26 C4         23.3420    2.6260   35.2810 C.ar      1 SAH300      0.0000 
     27 H          25.7326   -3.6657   40.2382 H         1 SAH300      0.0000 
     28 H          23.8857   -2.3855   39.2368 H         1 SAH300      0.0000 
     29 H          23.0973   -3.9038   38.7751 H         1 SAH300      0.0000 
     30 H          24.9888   -4.4257   37.2339 H         1 SAH300      0.0000 
     31 H          25.7998   -2.9238   37.7100 H         1 SAH300      0.0000 
     32 H          24.8598   -3.3506   34.2987 H         1 SAH300      0.0000 
     33 H          26.1284   -3.0438   35.4972 H         1 SAH300      0.0000 
     34 H          26.2187   -1.3534   33.5349 H         1 SAH300      0.0000 
     35 H          25.5889   -0.3227   36.2199 H         1 SAH300      0.0000 
     36 H          25.9786    1.7800   35.2646 H         1 SAH300      0.0000 
     37 H          24.4972    1.2473   33.0887 H         1 SAH300      0.0000 
     38 H          22.4075   -0.3214   35.4315 H         1 SAH300      0.0000 
     39 H          20.0032    3.4094   37.1840 H         1 SAH300      0.0000 
     40 H          20.7803    4.7940   38.0233 H         1 SAH300      0.0000 
     41 H          24.1762    5.7859   35.2471 H         1 SAH300      0.0000 
     42 H          25.5209   -5.6479   38.8605 H         1 SAH300      0.0000 
     43 H          25.4628   -6.0675   40.4118 H         1 SAH300      0.0000 
     44 H          24.1116   -6.0176   39.5412 H         1 SAH300      0.0000 
     45 H          28.0174    0.0326   34.9382 H         1 SAH300      0.0000 
     46 H          26.3783    0.7829   32.7164 H         1 SAH300      0.0000 
@<TRIPOS>BOND
     1    2    1 1    
     2   42    1 1    
     3   43    1 1    
     4   44    1 1    
     5    3    2 1    
     6    6    2 1    
     7   27    2 1    
     8    4    3 1    
     9   28    3 1    
    10   29    3 1    
    11    5    4 1    
    12   30    4 1    
    13   31    4 1    
    14    9    5 1    
    15    7    6 ar   
    16    8    6 ar   
    17   10    9 1    
    18   32    9 1    
    19   33    9 1    
    20   11   10 1    
    21   12   10 1    
    22   34   10 1    
    23   16   11 1    
    24   13   12 1    
    25   14   12 1    
    26   35   12 1    
    27   45   13 1    
    28   15   14 1    
    29   16   14 1    
    30   36   14 1    
    31   46   15 1    
    32   17   16 1    
    33   37   16 1    
    34   18   17 1    
    35   26   17 1    
    36   19   18 2    
    37   38   18 1    
    38   20   19 1    
    39   21   20 ar   
    40   26   20 ar   
    41   22   21 1    
    42   23   21 ar   
    43   39   22 1    
    44   40   22 1    
    45   24   23 ar   
    46   25   24 ar   
    47   41   24 1    
    48   26   25 ar   
@<TRIPOS>SUBSTRUCTURE
     1 SAH300      1 GROUP   
@<TRIPOS>SET

