#    Name: 4e80_UTP_3_INTS_M
#    Modification time : Tue Mar 25 10:43:44 2014

@<TRIPOS>MOLECULE
4e80_UTP_3_INTS_M
   46     0    12     0     0
SMALL
NO_CHARGES


@<TRIPOS>ATOM
      1 NZ        -30.4550  -50.5315   40.5885 N.4       3 LYC4        0.0000 
      2 NZ        -30.7350  -50.2380   42.4560 N.4      11 LYL4        0.0000 
      3 NZ        -30.1750  -50.8250   38.7210 N.4       7 LYP4        0.0000 
      4 N         -31.2340  -49.7200   41.3565 N.am      2 SEC2        0.0000 
      5 N         -30.7350  -50.2380   42.4560 N.am     10 SEL2        0.0000 
      6 N         -31.7330  -49.2020   40.2570 N.am      6 SEP2        0.0000 
      7 N         -30.8930  -51.4070   39.7815 N.am      2 SEC2        0.0000 
      8 N         -31.6110  -51.9890   40.8420 N.am     10 SEL2        0.0000 
      9 N         -30.1750  -50.8250   38.7210 N.am      6 SEP2        0.0000 
     10 NZ        -31.7520  -55.0345   38.8425 N.4       3 LYC4        0.0000 
     11 NZ        -32.4710  -54.2890   39.8520 N.4      11 LYL4        0.0000 
     12 NZ        -31.0330  -55.7800   37.8330 N.4       7 LYP4        0.0000 
     13 N         -31.7520  -55.0345   38.8425 N.am      2 SEC2        0.0000 
     14 N         -32.4710  -54.2890   39.8520 N.am     10 SEL2        0.0000 
     15 N         -31.0330  -55.7800   37.8330 N.am      6 SEP2        0.0000 
     16 N         -31.3565  -54.9370   40.3965 N.am      2 SEC2        0.0000 
     17 N         -30.2420  -55.5850   40.9410 N.am      6 SEP2        0.0000 
     18 NZ        -31.9115  -51.4670   39.0360 N.4       3 LYC4        0.0000 
     19 NZ        -33.6480  -52.1090   39.3510 N.4      11 LYL4        0.0000 
     20 CA        -33.6790  -48.9890   48.2550 C.3       4 GLC5        0.0000 
     21 CA        -32.2000  -50.0400   47.2840 C.3      12 GLL5        0.0000 
     22 CA        -35.1580  -47.9380   49.2260 C.3       8 GLP5        0.0000 
     23 CA        -33.2195  -48.9395   49.3295 C.3       4 GLC5        0.0000 
     24 CA        -31.2810  -49.9410   49.4330 C.3      12 GLL5        0.0000 
     25 CA        -32.0475  -48.4410   50.6775 C.3       4 GLC5        0.0000 
     26 CA        -32.8140  -46.9410   51.9220 C.3       8 GLP5        0.0000 
     27 O         -29.4040  -47.1705   49.0795 O.2       1 ALC1        0.0000 
     28 O         -30.4030  -47.7510   48.8930 O.2       9 ALL1        0.0000 
     29 O         -28.4050  -46.5900   49.2660 O.2       5 ALP1        0.0000 
     30 CA        -29.3415  -52.3555   47.7815 C.3       4 GLC5        0.0000 
     31 CA        -30.6670  -52.3140   49.1390 C.3      12 GLL5        0.0000 
     32 CA        -28.0160  -52.3970   46.4240 C.3       8 GLP5        0.0000 
     33 N         -28.9000  -48.6895   51.4535 N.am      2 SEC2        0.0000 
     34 N         -29.6340  -50.0290   51.5630 N.am     10 SEL2        0.0000 
     35 N         -28.1660  -47.3500   51.3440 N.am      6 SEP2        0.0000 
     36 N         -27.8535  -54.6215   52.3690 N.am      2 SEC2        0.0000 
     37 N         -28.4470  -54.3200   50.9440 N.am     10 SEL2        0.0000 
     38 N         -27.2600  -54.9230   53.7940 N.am      6 SEP2        0.0000 
     39 CA        -28.4350  -52.6095   49.0555 C.3       4 GLC5        0.0000 
     40 CA        -29.9630  -53.4140   49.5020 C.3      12 GLL5        0.0000 
     41 CA        -26.9070  -51.8050   48.6090 C.3       8 GLP5        0.0000 
     42 CA        -32.3865  -48.2305   45.9707 C.3       4 GLC5        0.0000 
     43 CA        -30.8500  -49.3100   47.0770 C.3      12 GLL5        0.0000 
     44 CA        -33.2480  -46.7860   44.7610 C.3       8 GLP5        0.0000 
     45 CA        -28.8778  -49.6523   47.3887 C.3       4 GLC5        0.0000 
     46 CA        -27.1540  -50.0840   46.9800 C.3       8 GLP5        0.0000 
@<TRIPOS>BOND
@<TRIPOS>SUBSTRUCTURE
     1 ALC1       27 GROUP        1 X    ALC  0     ROOT ALC X 1
     2 SEC2        4 GROUP        1 X    SEC  0     **** SEC X 2
     3 LYC4        1 GROUP        1 X    LYC  0     **** LYC X 4
     4 GLC5       20 GROUP        1 X    GLC  0     **** GLC X 6
     5 ALP1       29 GROUP        1 Y    ALP  0     ROOT ALP Y 8
     6 SEP2        6 GROUP        1 Y    SEP  0     **** SEP Y 9
     7 LYP4        3 GROUP        1 Y    LYP  0     **** LYP Y 11
     8 GLP5       22 GROUP        1 Y    GLP  0     **** GLP Y 13
     9 ALL1       28 GROUP        1 Z    ALL  0     ROOT ALL Z 15
    10 SEL2        5 GROUP        1 Z    SEL  0     **** SEL Z 16
    11 LYL4        2 GROUP        1 Z    LYL  0     **** LYL Z 18
    12 GLL5       21 GROUP        1 Z    GLL  0     **** GLL Z 20
@<TRIPOS>SET

