#    Name: 4e80_UTP_3_ligand
#    Modification time : Tue Mar 25 10:43:44 2014

@<TRIPOS>MOLECULE
4e80_UTP_3_ligand
   40    41     1     0     0
SMALL
NO_CHARGES


@<TRIPOS>ATOM
      1 PA        -31.8560  -52.7600   44.6800 P.3       1 UTP501      0.0000 
      2 O1A       -33.2810  -53.0530   44.3520 O.co2     1 UTP501      0.0000 
      3 O2A       -31.2360  -53.9620   45.5510 O.co2     1 UTP501      0.0000 
      4 O3A       -30.9790  -52.6020   43.3650 O.3       1 UTP501      0.0000 
      5 O5'       -31.6020  -51.3800   45.4370 O.3       1 UTP501      0.0000 
      6 PB        -31.6210  -51.4330   42.3840 P.3       1 UTP501      0.0000 
      7 O1B       -33.1270  -50.9690   42.7970 O.co2     1 UTP501      0.0000 
      8 O2B       -30.7350  -50.2380   42.4560 O.co2     1 UTP501      0.0000 
      9 O3B       -31.6110  -51.9890   40.8420 O.3       1 UTP501      0.0000 
     10 PG        -32.9360  -52.8500   40.4200 P.3       1 UTP501      0.0000 
     11 O1G       -32.4710  -54.2890   39.8520 O.co2     1 UTP501      0.0000 
     12 O2G       -33.6480  -52.1090   39.3510 O.co2     1 UTP501      0.0000 
     13 O3G       -33.9470  -53.0880   41.6570 O.co2     1 UTP501      0.0000 
     14 C5'       -32.4770  -51.2920   46.5000 C.3       1 UTP501      0.0000 
     15 C4'       -32.2000  -50.0400   47.2840 C.3       1 UTP501      0.0000 
     16 O4'       -32.4330  -50.2950   48.6730 O.3       1 UTP501      0.0000 
     17 C1'       -31.2810  -49.9410   49.4330 C.3       1 UTP501      0.0000 
     18 C2'       -30.3530  -49.1310   48.5180 C.3       1 UTP501      0.0000 
     19 O2'       -30.4030  -47.7510   48.8930 O.3       1 UTP501      0.0000 
     20 C3'       -30.8500  -49.3100   47.0770 C.3       1 UTP501      0.0000 
     21 O3'       -31.0480  -48.0580   46.4630 O.3       1 UTP501      0.0000 
     22 N1        -30.5480  -51.1410   49.8560 N.am      1 UTP501      0.0000 
     23 C6        -30.6670  -52.3140   49.1390 C.2       1 UTP501      0.0000 
     24 C2        -29.7310  -51.0780   50.9370 C.2       1 UTP501      0.0000 
     25 O2        -29.6340  -50.0290   51.5630 O.2       1 UTP501      0.0000 
     26 N3        -29.0110  -52.1730   51.3210 N.am      1 UTP501      0.0000 
     27 C4        -29.1020  -53.3420   50.6230 C.2       1 UTP501      0.0000 
     28 O4        -28.4470  -54.3200   50.9440 O.2       1 UTP501      0.0000 
     29 C5        -29.9630  -53.4140   49.5020 C.2       1 UTP501      0.0000 
     30 H         -32.3874  -52.1468   47.1945 H         1 UTP501      0.0000 
     31 H         -33.5333  -51.2565   46.1775 H         1 UTP501      0.0000 
     32 H         -32.9989  -49.2858   46.9657 H         1 UTP501      0.0000 
     33 H         -31.5224  -49.3323   50.2709 H         1 UTP501      0.0000 
     34 H         -29.3712  -49.5389   48.5912 H         1 UTP501      0.0000 
     35 H         -30.1992  -49.9621   46.5785 H         1 UTP501      0.0000 
     36 H         -31.3026  -52.3432   48.3181 H         1 UTP501      0.0000 
     37 H         -28.3883  -52.1150   52.1524 H         1 UTP501      0.0000 
     38 H         -30.0342  -54.2982   48.9898 H         1 UTP501      0.0000 
     39 H         -29.6123  -47.6163   49.4902 H         1 UTP501      0.0000 
     40 H         -30.9889  -47.3927   47.2072 H         1 UTP501      0.0000 
@<TRIPOS>BOND
     1    2    1 ar   
     2    3    1 ar   
     3    4    1 1    
     4    5    1 1    
     5    6    4 1    
     6   14    5 1    
     7    7    6 ar   
     8    8    6 ar   
     9    9    6 1    
    10   10    9 1    
    11   11   10 ar   
    12   12   10 ar   
    13   13   10 ar   
    14   15   14 1    
    15   30   14 1    
    16   31   14 1    
    17   16   15 1    
    18   20   15 1    
    19   32   15 1    
    20   17   16 1    
    21   18   17 1    
    22   22   17 1    
    23   33   17 1    
    24   19   18 1    
    25   20   18 1    
    26   34   18 1    
    27   39   19 1    
    28   21   20 1    
    29   35   20 1    
    30   40   21 1    
    31   23   22 1    
    32   24   22 1    
    33   29   23 2    
    34   36   23 1    
    35   25   24 2    
    36   26   24 1    
    37   27   26 1    
    38   37   26 1    
    39   28   27 2    
    40   29   27 1    
    41   38   29 1    
@<TRIPOS>SUBSTRUCTURE
     1 UTP501      1 GROUP   
@<TRIPOS>SET

