#    Name: 3tkl_GTP_1_INTS_M
#    Modification time : Mon Mar 24 20:15:18 2014

@<TRIPOS>MOLECULE
3tkl_GTP_1_INTS_M
   84     0    15     0     0
SMALL
NO_CHARGES


@<TRIPOS>ATOM
      1 Zn         12.0060  -13.1455  -18.0600 Zn        4 ZIC7        0.0000 
      2 Zn         11.3080  -12.3600  -18.0130 Zn       14 ZIL7        0.0000 
      3 Zn         12.7040  -13.9310  -18.1070 Zn        9 ZIP7        0.0000 
      4 N          10.6365  -12.6690  -16.7815 N.am      2 SEC2        0.0000 
      5 N          11.3080  -12.3600  -18.0130 N.am     12 SEL2        0.0000 
      6 N           9.9650  -12.9780  -15.5500 N.am      7 SEP2        0.0000 
      7 NZ         12.9850  -10.0515  -19.9025 N.4       3 LYC4        0.0000 
      8 NZ         11.9310  -10.2590  -19.0740 N.4      13 LYL4        0.0000 
      9 NZ         14.0390   -9.8440  -20.7310 N.4       8 LYP4        0.0000 
     10 N          12.9850  -10.0515  -19.9025 N.am      2 SEC2        0.0000 
     11 N          11.9310  -10.2590  -19.0740 N.am     12 SEL2        0.0000 
     12 N          14.0390   -9.8440  -20.7310 N.am      7 SEP2        0.0000 
     13 N          12.3210   -9.1060  -18.3605 N.am      2 SEC2        0.0000 
     14 N          12.7110   -7.9530  -17.6470 N.am      7 SEP2        0.0000 
     15 N           8.9660   -9.9845  -19.5570 N.am      2 SEC2        0.0000 
     16 N           9.5120  -10.9550  -18.9740 N.am     12 SEL2        0.0000 
     17 N           8.4200   -9.0140  -20.1400 N.am      7 SEP2        0.0000 
     18 N           8.3795  -11.5430  -19.3310 N.am      2 SEC2        0.0000 
     19 N           7.2470  -12.1310  -19.6880 N.am      7 SEP2        0.0000 
     20 N          10.5290  -11.3740  -21.6345 N.am      2 SEC2        0.0000 
     21 N          11.0600  -12.1550  -20.6010 N.am     12 SEL2        0.0000 
     22 N           9.9980  -10.5930  -22.6680 N.am      7 SEP2        0.0000 
     23 NZ         13.5800  -10.9705  -21.3610 N.4       3 LYC4        0.0000 
     24 NZ         13.1210  -12.0970  -21.9910 N.4      13 LYL4        0.0000 
     25 N          13.2680  -12.7210  -23.3580 N.am      2 SEC2        0.0000 
     26 N          13.1210  -12.0970  -21.9910 N.am     12 SEL2        0.0000 
     27 N          13.4150  -13.3450  -24.7250 N.am      7 SEP2        0.0000 
     28 N          14.2880  -12.9090  -22.4255 N.am      2 SEC2        0.0000 
     29 N          15.4550  -13.7210  -22.8600 N.am      7 SEP2        0.0000 
     30 N          13.5800  -10.9705  -21.3610 N.am      2 SEC2        0.0000 
     31 Zn         12.8330  -13.8395  -19.1355 Zn        4 ZIC7        0.0000 
     32 Zn         12.9620  -13.7480  -20.1640 Zn       14 ZIL7        0.0000 
     33 N          14.2165  -14.5815  -20.3205 N.am      2 SEC2        0.0000 
     34 N          12.9620  -13.7480  -20.1640 N.am     12 SEL2        0.0000 
     35 N          15.4710  -15.4150  -20.4770 N.am      7 SEP2        0.0000 
     36 N          12.4685  -13.6710  -23.4855 N.am      2 SEC2        0.0000 
     37 N          11.5220  -13.9970  -22.2460 N.am     12 SEL2        0.0000 
     38 N          14.0775  -16.9395  -21.8480 N.am      2 SEC2        0.0000 
     39 N          13.0400  -16.0010  -22.0890 N.am     12 SEL2        0.0000 
     40 N          15.1150  -17.8780  -21.6070 N.am      7 SEP2        0.0000 
     41 CA          9.6545  -13.5115  -23.7615 C.3       5 GLC5        0.0000 
     42 CA          9.7550  -15.5010  -23.8270 C.3      15 GLL5        0.0000 
     43 CA          9.5540  -11.5220  -23.6960 C.3      10 GLP5        0.0000 
     44 CA         11.8785  -15.0825  -24.2000 C.3       5 GLC5        0.0000 
     45 CA         14.0020  -14.6640  -24.5730 C.3      10 GLP5        0.0000 
     46 O           8.7100  -19.1250  -22.8340 O.2       1 ALC1        0.0000 
     47 O           8.0240  -18.2070  -23.6820 O.2      11 ALL1        0.0000 
     48 O           9.3960  -20.0430  -21.9860 O.2       6 ALP1        0.0000 
     49 CA         10.1835  -20.3205  -26.3150 C.3       5 GLC5        0.0000 
     50 CA          9.1340  -18.4290  -25.7010 C.3      15 GLL5        0.0000 
     51 CA         11.2330  -22.2120  -26.9290 C.3      10 GLP5        0.0000 
     52 O           7.4885  -19.8765  -26.6440 O.2       1 ALC1        0.0000 
     53 O           7.8600  -18.7490  -26.0860 O.2      11 ALL1        0.0000 
     54 O           7.1170  -21.0040  -27.2020 O.2       6 ALP1        0.0000 
     55 CA         10.3525  -15.9055  -27.6550 C.3       5 GLC5        0.0000 
     56 CA          9.6280  -17.4330  -26.6740 C.3      15 GLL5        0.0000 
     57 CA         11.0770  -14.3780  -28.6360 C.3      10 GLP5        0.0000 
     58 N          14.0900  -16.8045  -27.5265 N.am      2 SEC2        0.0000 
     59 N          13.0710  -17.9350  -27.1760 N.am     12 SEL2        0.0000 
     60 N          15.1090  -15.6740  -27.8770 N.am      7 SEP2        0.0000 
     61 CA         14.5645  -19.1000  -27.4605 C.3       5 GLC5        0.0000 
     62 CA         12.7300  -18.3790  -28.3780 C.3      15 GLL5        0.0000 
     63 CA         16.3990  -19.8210  -26.5430 C.3      10 GLP5        0.0000 
     64 CA         12.9855  -20.4515  -29.0985 C.3       5 GLC5        0.0000 
     65 CA         13.2410  -22.5240  -29.8190 C.3      10 GLP5        0.0000 
     66 N          14.9960  -20.4180  -29.1720 N.am      2 SEC2        0.0000 
     67 N          14.6910  -19.0380  -29.6420 N.am     12 SEL2        0.0000 
     68 N          15.3010  -21.7980  -28.7020 N.am      7 SEP2        0.0000 
     69 O          13.1580  -19.3710  -31.7645 O.2       1 ALC1        0.0000 
     70 O          12.5190  -19.2330  -30.5800 O.2      11 ALL1        0.0000 
     71 O          13.7970  -19.5090  -32.9490 O.2       6 ALP1        0.0000 
     72 O          12.2735  -19.9485  -32.0705 O.2       1 ALC1        0.0000 
     73 O          12.0280  -20.6640  -33.5610 O.2       6 ALP1        0.0000 
     74 O          11.2180  -20.0690  -32.6070 O.2       1 ALC1        0.0000 
     75 O          10.4080  -19.4740  -31.6530 O.2      11 ALL1        0.0000 
     76 CA          8.4938  -15.7743  -22.4207 C.3       5 GLC5        0.0000 
     77 CA          8.9700  -16.3120  -24.7480 C.3      15 GLL5        0.0000 
     78 CA          7.6250  -15.6420  -20.5540 C.3      10 GLP5        0.0000 
     79 CA         10.8033  -18.7175  -24.0478 C.3       5 GLC5        0.0000 
     80 CA          9.1110  -17.7530  -24.4100 C.3      15 GLL5        0.0000 
     81 CA         12.4840  -19.3440  -23.0400 C.3      10 GLP5        0.0000 
     82 CA         12.3108  -16.8525  -29.3500 C.3       5 GLC5        0.0000 
     83 CA         11.2710  -18.2730  -28.4020 C.3      15 GLL5        0.0000 
     84 CA         12.6210  -15.3790  -30.3100 C.3      10 GLP5        0.0000 
@<TRIPOS>BOND
@<TRIPOS>SUBSTRUCTURE
     1 ALC1       46 GROUP        1 X    ALC  0     ROOT ALC X 1
     2 SEC2        4 GROUP        1 X    SEC  0     **** SEC X 2
     3 LYC4        7 GROUP        1 X    LYC  0     **** LYC X 4
     4 ZIC7        1 GROUP        1 X    ZIC  0     **** ZIC X 5
     5 GLC5       41 GROUP        1 X    GLC  0     **** GLC X 6
     6 ALP1       48 GROUP        1 Y    ALP  0     ROOT ALP Y 8
     7 SEP2        6 GROUP        1 Y    SEP  0     **** SEP Y 9
     8 LYP4        9 GROUP        1 Y    LYP  0     **** LYP Y 11
     9 ZIP7        3 GROUP        1 Y    ZIP  0     **** ZIP Y 12
    10 GLP5       43 GROUP        1 Y    GLP  0     **** GLP Y 13
    11 ALL1       47 GROUP        1 Z    ALL  0     ROOT ALL Z 15
    12 SEL2        5 GROUP        1 Z    SEL  0     **** SEL Z 16
    13 LYL4        8 GROUP        1 Z    LYL  0     **** LYL Z 18
    14 ZIL7        2 GROUP        1 Z    ZIL  0     **** ZIL Z 19
    15 GLL5       42 GROUP        1 Z    GLL  0     **** GLL Z 20
@<TRIPOS>SET

