#    Name: 3tkl_GTP_1_ligand
#    Modification time : Mon Mar 24 20:15:18 2014

@<TRIPOS>MOLECULE
3tkl_GTP_1_ligand
   44    46     1     0     0
SMALL
NO_CHARGES


@<TRIPOS>ATOM
      1 PG         10.9270  -11.4170  -19.1540 P.3       1 GTP301      0.0000 
      2 O1G        11.3080  -12.3600  -18.0130 O.co2     1 GTP301      0.0000 
      3 O2G        11.9310  -10.2590  -19.0740 O.co2     1 GTP301      0.0000 
      4 O3G         9.5120  -10.9550  -18.9740 O.co2     1 GTP301      0.0000 
      5 O3B        11.0600  -12.1550  -20.6010 O.3       1 GTP301      0.0000 
      6 PB         12.2130  -12.9770  -21.1850 P.3       1 GTP301      0.0000 
      7 O1B        13.1210  -12.0970  -21.9910 O.co2     1 GTP301      0.0000 
      8 O2B        12.9620  -13.7480  -20.1640 O.co2     1 GTP301      0.0000 
      9 O3A        11.5220  -13.9970  -22.2460 O.3       1 GTP301      0.0000 
     10 PA         11.5500  -15.5570  -22.0500 P.3       1 GTP301      0.0000 
     11 O1A        13.0400  -16.0010  -22.0890 O.co2     1 GTP301      0.0000 
     12 O2A        10.7820  -15.9820  -20.8000 O.co2     1 GTP301      0.0000 
     13 O5'        10.8630  -16.0910  -23.3460 O.3       1 GTP301      0.0000 
     14 C5'         9.7550  -15.5010  -23.8270 C.3       1 GTP301      0.0000 
     15 C4'         8.9700  -16.3120  -24.7480 C.3       1 GTP301      0.0000 
     16 O4'         9.5350  -16.1700  -26.0730 O.3       1 GTP301      0.0000 
     17 C3'         9.1110  -17.7530  -24.4100 C.3       1 GTP301      0.0000 
     18 O3'         8.0240  -18.2070  -23.6820 O.3       1 GTP301      0.0000 
     19 C2'         9.1340  -18.4290  -25.7010 C.3       1 GTP301      0.0000 
     20 O2'         7.8600  -18.7490  -26.0860 O.3       1 GTP301      0.0000 
     21 C1'         9.6280  -17.4330  -26.6740 C.3       1 GTP301      0.0000 
     22 N9         10.9580  -17.7220  -27.1400 N.pl3     1 GTP301      0.0000 
     23 C8         12.0940  -17.5880  -26.5140 C.2       1 GTP301      0.0000 
     24 N7         13.0710  -17.9350  -27.1760 N.2       1 GTP301      0.0000 
     25 C5         12.7300  -18.3790  -28.3780 C.2       1 GTP301      0.0000 
     26 C6         13.2920  -18.8780  -29.5290 C.2       1 GTP301      0.0000 
     27 O6         14.6910  -19.0380  -29.6420 O.2       1 GTP301      0.0000 
     28 N1         12.5190  -19.2330  -30.5800 N.am      1 GTP301      0.0000 
     29 C2         11.1650  -19.1020  -30.5580 C.2       1 GTP301      0.0000 
     30 N2         10.4080  -19.4740  -31.6530 N.pl3     1 GTP301      0.0000 
     31 N3         10.5700  -18.6260  -29.4710 N.2       1 GTP301      0.0000 
     32 C4         11.2710  -18.2730  -28.4020 C.2       1 GTP301      0.0000 
     33 H           9.9928  -14.5226  -24.3549 H         1 GTP301      0.0000 
     34 H           9.0591  -15.1656  -22.9929 H         1 GTP301      0.0000 
     35 H           7.9519  -16.0378  -24.7429 H         1 GTP301      0.0000 
     36 H          10.0462  -17.9014  -23.9197 H         1 GTP301      0.0000 
     37 H           9.7967  -19.2508  -25.6805 H         1 GTP301      0.0000 
     38 H           8.9291  -17.4660  -27.5410 H         1 GTP301      0.0000 
     39 H          12.1286  -17.2204  -25.5508 H         1 GTP301      0.0000 
     40 H          12.9764  -19.6240  -31.4454 H         1 GTP301      0.0000 
     41 H           9.4162  -19.4024  -31.5471 H         1 GTP301      0.0000 
     42 H          10.9178  -19.7825  -32.4561 H         1 GTP301      0.0000 
     43 H           8.3976  -18.8977  -23.0628 H         1 GTP301      0.0000 
     44 H           7.9725  -19.3883  -26.8467 H         1 GTP301      0.0000 
@<TRIPOS>BOND
     1    2    1 ar   
     2    3    1 ar   
     3    4    1 ar   
     4    5    1 1    
     5    6    5 1    
     6    7    6 ar   
     7    8    6 ar   
     8    9    6 1    
     9   10    9 1    
    10   11   10 ar   
    11   12   10 ar   
    12   13   10 1    
    13   14   13 1    
    14   15   14 1    
    15   33   14 1    
    16   34   14 1    
    17   16   15 1    
    18   17   15 1    
    19   35   15 1    
    20   21   16 1    
    21   18   17 1    
    22   19   17 1    
    23   36   17 1    
    24   43   18 1    
    25   20   19 1    
    26   21   19 1    
    27   37   19 1    
    28   44   20 1    
    29   22   21 1    
    30   38   21 1    
    31   23   22 1    
    32   32   22 1    
    33   24   23 2    
    34   39   23 1    
    35   25   24 1    
    36   26   25 1    
    37   32   25 2    
    38   27   26 2    
    39   28   26 am   
    40   29   28 1    
    41   40   28 1    
    42   30   29 1    
    43   31   29 2    
    44   41   30 1    
    45   42   30 1    
    46   32   31 1    
@<TRIPOS>SUBSTRUCTURE
     1 GTP301      1 GROUP   
@<TRIPOS>SET

