#    Name: 2AJ4_2_CAVITY_N1_6.mol2
#    Modification time : Tue Mar 11 01:57:18 2014

@<TRIPOS>MOLECULE
2AJ4_2_CAVITY_N1_6.mol2
  125     0     7     0     0
SMALL
NO_CHARGES


@<TRIPOS>ATOM
      1 CZ         66.1436   29.2326   39.6802 C.ar      5 PHE5        0.0000 
      2 OG         64.1798   29.1774   38.8799 O.2       1 SER1        0.0000 
      3 CA         65.4834   28.5188   38.5380 C.3       6 GLY6        0.0000 
      4 CZ         66.7870   27.8603   38.1960 C.ar      5 PHE5        0.0000 
      5 OG         64.8232   27.8051   37.3957 O.2       1 SER1        0.0000 
      6 DU         66.1267   27.1465   37.0538 H         7 CUB7        0.0000 
      7 CZ         67.4303   26.4879   36.7118 C.ar      5 PHE5        0.0000 
      8 CZ         68.7339   25.8294   36.3699 C.ar      5 PHE5        0.0000 
      9 OG         64.1630   27.0914   36.2535 O.2       1 SER1        0.0000 
     10 O          65.4665   26.4328   35.9115 O.2       2 ALA2        0.0000 
     11 O          64.8063   25.7191   34.7693 O.2       2 ALA2        0.0000 
     12 CA         57.6102   27.2391   43.8882 C.3       6 GLY6        0.0000 
     13 N          58.9138   26.5805   43.5463 N.2       2 ALA2        0.0000 
     14 O          66.7353   22.6289   41.4946 O.2       2 ALA2        0.0000 
     15 N          55.6464   27.1840   43.0879 N.2       2 ALA2        0.0000 
     16 NZ         56.9500   26.5254   42.7460 N.2       4 LYS4        0.0000 
     17 NZ         58.2536   25.8668   42.4040 N.2       4 LYS4        0.0000 
     18 CZ         66.0751   21.9152   40.3524 C.ar      5 PHE5        0.0000 
     19 N          67.3787   21.2566   40.0104 N.2       2 ALA2        0.0000 
     20 CZ         64.1113   21.8601   39.5521 C.ar      5 PHE5        0.0000 
     21 DU         65.4149   21.2015   39.2101 H         7 CUB7        0.0000 
     22 OG         66.7184   20.5429   38.8682 O.2       1 SER1        0.0000 
     23 OG         68.0220   19.8843   38.5262 O.2       1 SER1        0.0000 
     24 NZ         58.2367   23.7807   39.7776 N.2       4 LYS4        0.0000 
     25 CA         59.5914   28.8669   41.7260 C.3       6 GLY6        0.0000 
     26 CA         60.8950   28.2083   41.3841 C.3       6 GLY6        0.0000 
     27 CA         62.1986   27.5497   41.0421 C.3       6 GLY6        0.0000 
     28 CZ         63.5022   26.8911   40.7002 C.ar      5 PHE5        0.0000 
     29 CZ         64.8057   26.2325   40.3582 C.ar      5 PHE5        0.0000 
     30 CZ         66.1093   25.5739   40.0163 C.ar      5 PHE5        0.0000 
     31 CZ         67.4129   24.9153   39.6743 C.ar      5 PHE5        0.0000 
     32 OG         68.7165   24.2567   39.3324 O.2       1 SER1        0.0000 
     33 N          58.9312   28.1531   40.5838 N.2       2 ALA2        0.0000 
     34 CA         60.2348   27.4945   40.2418 C.3       6 GLY6        0.0000 
     35 CA         62.8419   26.1774   39.5579 C.3       6 GLY6        0.0000 
     36 CZ         64.1455   25.5188   39.2160 C.ar      5 PHE5        0.0000 
     37 CZ         65.4491   24.8602   38.8740 C.ar      5 PHE5        0.0000 
     38 DU         66.7527   24.2016   38.5321 H         7 CUB7        0.0000 
     39 OG         68.0563   23.5430   38.1901 O.2       1 SER1        0.0000 
     40 N          56.9674   28.0980   39.7834 N.2       2 ALA2        0.0000 
     41 N          58.2710   27.4394   39.4415 N.2       2 ALA2        0.0000 
     42 CA         63.4853   24.8050   38.0737 C.3       6 GLY6        0.0000 
     43 O          64.7889   24.1465   37.7318 O.2       2 ALA2        0.0000 
     44 O          66.0925   23.4879   37.3898 O.2       2 ALA2        0.0000 
     45 O          67.3961   22.8293   37.0479 O.2       2 ALA2        0.0000 
     46 N          56.3072   27.3843   38.6412 N.2       2 ALA2        0.0000 
     47 N          57.6108   26.7257   38.2993 N.2       2 ALA2        0.0000 
     48 CA         62.8251   24.0913   36.9315 C.3       6 GLY6        0.0000 
     49 O          64.1287   23.4327   36.5895 O.2       2 ALA2        0.0000 
     50 O          65.4323   22.7741   36.2476 O.2       2 ALA2        0.0000 
     51 OG         62.1649   23.3776   35.7892 O.2       1 SER1        0.0000 
     52 CA         62.8083   22.0053   34.3050 C.3       6 GLY6        0.0000 
     53 CZ         63.7725   20.7169   40.4622 C.ar      5 PHE5        0.0000 
     54 O          59.9128   28.4374   43.7784 O.2       2 ALA2        0.0000 
     55 O          61.2164   27.7788   43.4364 O.2       2 ALA2        0.0000 
     56 O          62.5200   27.1202   43.0945 O.2       2 ALA2        0.0000 
     57 N          57.9490   28.3823   42.9781 N.2       2 ALA2        0.0000 
     58 N          59.2526   27.7237   42.6361 N.2       2 ALA2        0.0000 
     59 CZ         60.5562   27.0651   42.2942 C.ar      5 PHE5        0.0000 
     60 CZ         65.7705   24.4307   40.9264 C.ar      5 PHE5        0.0000 
     61 O          67.0741   23.7721   40.5845 O.2       2 ALA2        0.0000 
     62 OG         68.3777   23.1135   40.2425 O.2       1 SER1        0.0000 
     63 N          57.2888   27.6685   41.8358 N.2       2 ALA2        0.0000 
     64 NZ         58.5924   27.0100   41.4939 N.2       4 LYS4        0.0000 
     65 CZ         59.8960   26.3514   41.1519 C.ar      5 PHE5        0.0000 
     66 CZ         65.1103   23.7170   39.7842 C.ar      5 PHE5        0.0000 
     67 CZ         66.4139   23.0584   39.4422 C.ar      5 PHE5        0.0000 
     68 OG         67.7175   22.3998   39.1003 O.2       1 SER1        0.0000 
     69 N          55.3250   27.6134   41.0355 N.2       2 ALA2        0.0000 
     70 NZ         56.6286   26.9548   40.6936 N.2       4 LYS4        0.0000 
     71 NZ         57.9322   26.2962   40.3516 N.2       4 LYS4        0.0000 
     72 CA         59.2358   25.6376   40.0097 C.3       6 GLY6        0.0000 
     73 CZ         64.4501   23.0033   38.6419 C.ar      5 PHE5        0.0000 
     74 DU         65.7537   22.3447   38.3000 H         7 CUB7        0.0000 
     75 OG         67.0573   21.6861   37.9580 O.2       1 SER1        0.0000 
     76 NZ         55.9684   26.2411   39.5513 N.2       4 LYS4        0.0000 
     77 NZ         57.2720   25.5825   39.2094 N.2       4 LYS4        0.0000 
     78 OG         62.4863   22.9481   37.8416 O.2       1 SER1        0.0000 
     79 DU         63.7899   22.2896   37.4997 H         7 CUB7        0.0000 
     80 DU         65.0935   21.6310   37.1577 H         7 CUB7        0.0000 
     81 O          65.1620   28.9483   36.4856 O.2       2 ALA2        0.0000 
     82 CA         66.4656   28.2897   36.1436 C.3       6 GLY6        0.0000 
     83 OG         67.7691   27.6311   35.8017 O.2       1 SER1        0.0000 
     84 OG         64.5018   28.2346   35.3433 O.2       1 SER1        0.0000 
     85 O          65.8054   27.5760   35.0014 O.2       2 ALA2        0.0000 
     86 O          67.1089   26.9174   34.6594 O.2       2 ALA2        0.0000 
     87 O          65.1451   26.8623   33.8591 O.2       2 ALA2        0.0000 
     88 OG         64.5192   29.8072   32.3808 O.2       1 SER1        0.0000 
     89 OD1        65.8228   29.1486   32.0389 O.3       3 ASP3        0.0000 
     90 O          64.8580   30.9504   31.4707 O.2       2 ALA2        0.0000 
     91 OD1        66.1616   30.2918   31.1287 O.3       3 ASP3        0.0000 
     92 OG         64.8406   29.3778   34.4332 O.2       1 SER1        0.0000 
     93 OG         66.1442   28.7192   34.0912 O.2       1 SER1        0.0000 
     94 OD1        67.4478   28.0606   33.7493 O.3       3 ASP3        0.0000 
     95 O          64.1804   28.6640   33.2909 O.2       2 ALA2        0.0000 
     96 OD1        65.4840   28.0055   32.9490 O.3       3 ASP3        0.0000 
     97 O          66.7875   27.3469   32.6071 O.2       2 ALA2        0.0000 
     98 CZ         63.1976   29.4066   41.2742 C.ar      5 PHE5        0.0000 
     99 CZ         64.5012   28.7480   40.9323 C.ar      5 PHE5        0.0000 
    100 CZ         65.8048   28.0894   40.5903 C.ar      5 PHE5        0.0000 
    101 CZ         67.1083   27.4308   40.2484 C.ar      5 PHE5        0.0000 
    102 CA         59.9302   30.0100   40.8159 C.3       6 GLY6        0.0000 
    103 CA         61.2338   29.3514   40.4739 C.3       6 GLY6        0.0000 
    104 CA         62.5374   28.6929   40.1320 C.3       6 GLY6        0.0000 
    105 CA         63.8410   28.0343   39.7900 C.3       6 GLY6        0.0000 
    106 DU         65.1446   27.3757   39.4481 H         7 CUB7        0.0000 
    107 CZ         66.4481   26.7171   39.1061 C.ar      5 PHE5        0.0000 
    108 CZ         67.7517   26.0585   38.7642 C.ar      5 PHE5        0.0000 
    109 CA         64.4843   26.6619   38.3058 C.3       6 GLY6        0.0000 
    110 DU         65.7879   26.0034   37.9639 H         7 CUB7        0.0000 
    111 O          67.0915   25.3448   37.6220 O.2       2 ALA2        0.0000 
    112 O          68.3951   24.6862   37.2800 O.2       2 ALA2        0.0000 
    113 OG         69.6987   24.0276   36.9381 O.2       1 SER1        0.0000 
    114 CA         63.8241   25.9482   37.1636 C.3       6 GLY6        0.0000 
    115 O          65.1277   25.2896   36.8217 O.2       2 ALA2        0.0000 
    116 O          64.4675   24.5759   35.6794 O.2       2 ALA2        0.0000 
    117 O          62.5037   24.5208   34.8791 O.2       2 ALA2        0.0000 
    118 O          63.8073   23.8622   34.5372 O.2       2 ALA2        0.0000 
    119 CA         61.5552   28.9220   42.5263 C.3       6 GLY6        0.0000 
    120 CA         62.8588   28.2634   42.1844 C.3       6 GLY6        0.0000 
    121 CZ         64.1624   27.6048   41.8424 C.ar      5 PHE5        0.0000 
    122 CA         65.4659   26.9462   41.5005 C.3       6 GLY6        0.0000 
    123 CA         66.7695   26.2876   41.1585 C.3       6 GLY6        0.0000 
    124 CA         68.0731   25.6290   40.8166 C.3       6 GLY6        0.0000 
    125 OD1        66.5004   31.4350   30.2186 O.3       3 ASP3        0.0000 
@<TRIPOS>BOND
@<TRIPOS>SUBSTRUCTURE
     1 SER1        2 GROUP   
     2 ALA2       10 GROUP   
     3 ASP3       89 GROUP   
     4 LYS4       16 GROUP   
     5 PHE5        1 GROUP   
     6 GLY6        3 GROUP   
     7 CUB7        6 GROUP   
@<TRIPOS>SET

