#    Name: 2aj4_ANP_2_INTS_M
#    Modification time : Mon Mar 24 19:22:01 2014

@<TRIPOS>MOLECULE
2aj4_ANP_2_INTS_M
   61     0    12     0     0
SMALL
NO_CHARGES


@<TRIPOS>ATOM
      1 N          63.3905   32.0015   31.8750 N.am      1 SEC2        0.0000 
      2 N          64.1300   30.9430   31.4280 N.am      9 SEL2        0.0000 
      3 N          62.6510   33.0600   32.3220 N.am      5 SEP2        0.0000 
      4 N          65.3200   31.6030   31.4145 N.am      1 SEC2        0.0000 
      5 N          66.5100   32.2630   31.4010 N.am      5 SEP2        0.0000 
      6 Zn         64.5360   28.3035   30.1605 Zn        3 ZIC7        0.0000 
      7 Zn         63.7920   28.5460   31.2970 Zn       11 ZIL7        0.0000 
      8 Zn         65.2800   28.0610   29.0240 Zn        7 ZIP7        0.0000 
      9 N          62.6415   29.0565   30.5260 N.am      1 SEC2        0.0000 
     10 N          63.7920   28.5460   31.2970 N.am      9 SEL2        0.0000 
     11 N          61.4910   29.5670   29.7550 N.am      5 SEP2        0.0000 
     12 N          62.3510   28.1445   33.3840 N.am      1 SEC2        0.0000 
     13 N          62.9230   29.7400   33.3850 N.am      9 SEL2        0.0000 
     14 N          61.7790   26.5490   33.3830 N.am      5 SEP2        0.0000 
     15 N          62.8150   31.0055   34.2740 N.am      1 SEC2        0.0000 
     16 N          62.7070   32.2710   35.1630 N.am      5 SEP2        0.0000 
     17 N          67.3560   26.6095   31.0610 N.am      1 SEC2        0.0000 
     18 N          66.4390   27.5030   31.6430 N.am      9 SEL2        0.0000 
     19 N          68.2730   25.7160   30.4790 N.am      5 SEP2        0.0000 
     20 NZ         68.2165   29.7015   33.0175 N.4       2 LYC4        0.0000 
     21 NZ         67.7290   28.5690   33.5270 N.4      10 LYL4        0.0000 
     22 NZ         68.7040   30.8340   32.5080 N.4       6 LYP4        0.0000 
     23 N          68.2165   29.7015   33.0175 N.am      1 SEC2        0.0000 
     24 N          67.7290   28.5690   33.5270 N.am      9 SEL2        0.0000 
     25 N          68.7040   30.8340   32.5080 N.am      5 SEP2        0.0000 
     26 N          62.6425   27.2710   34.1325 N.am      1 SEC2        0.0000 
     27 N          63.5060   27.9930   34.8820 N.am      9 SEL2        0.0000 
     28 N          65.7280   24.9320   35.0700 N.am      1 SEC2        0.0000 
     29 N          64.4350   25.7950   35.6400 N.am      9 SEL2        0.0000 
     30 N          67.0210   24.0690   34.5000 N.am      5 SEP2        0.0000 
     31 CA         68.5655   27.8830   36.9100 C.3       4 GLC5        0.0000 
     32 CA         66.8030   27.3820   36.5140 C.3      12 GLL5        0.0000 
     33 CA         70.3280   28.3840   37.3060 C.3       8 GLP5        0.0000 
     34 CA         66.8890   29.2435   36.2485 C.3       4 GLC5        0.0000 
     35 CA         66.9750   31.1050   35.9830 C.3       8 GLP5        0.0000 
     36 CA         64.9405   24.8085   40.9570 C.3       4 GLC5        0.0000 
     37 CA         66.2390   26.0710   39.9670 C.3      12 GLL5        0.0000 
     38 CA         63.6420   23.5460   41.9470 C.3       8 GLP5        0.0000 
     39 CA         66.4550   25.4845   41.9145 C.3       4 GLC5        0.0000 
     40 CA         66.6710   24.8980   43.8620 C.3       8 GLP5        0.0000 
     41 CA         66.1655   29.0735   41.3630 C.3       4 GLC5        0.0000 
     42 CA         66.2210   27.5790   40.0280 C.3      12 GLL5        0.0000 
     43 CA         66.1100   30.5680   42.6980 C.3       8 GLP5        0.0000 
     44 N          62.4320   29.2850   38.2430 N.am      1 SEC2        0.0000 
     45 N          62.8440   28.8020   39.5630 N.am      9 SEL2        0.0000 
     46 N          62.0200   29.7680   36.9230 N.am      5 SEP2        0.0000 
     47 CA         61.9285   27.5885   39.3325 C.3       4 GLC5        0.0000 
     48 CA         62.8620   28.3740   40.8930 C.3      12 GLL5        0.0000 
     49 CA         60.9950   26.8030   37.7720 C.3       8 GLP5        0.0000 
     50 N          61.9455   27.5235   44.4885 N.am      1 SEC2        0.0000 
     51 N          62.2940   27.8820   43.0740 N.am      9 SEL2        0.0000 
     52 N          61.5970   27.1650   45.9030 N.am      5 SEP2        0.0000 
     53 CA         65.1125   26.1455   43.5865 C.3       4 GLC5        0.0000 
     54 CA         63.5540   27.3930   43.3110 C.3      12 GLL5        0.0000 
     55 CA         68.3762   26.8755   38.2087 C.3       4 GLC5        0.0000 
     56 CA         66.1450   25.8270   38.4330 C.3      12 GLL5        0.0000 
     57 CA         70.1660   27.3560   38.2320 C.3       8 GLP5        0.0000 
     58 CA         68.1035   27.2375   39.7918 C.3       4 GLC5        0.0000 
     59 CA         69.9770   27.6500   39.5860 C.3       8 GLP5        0.0000 
     60 CA         61.7950   29.9348   42.3287 C.3       4 GLC5        0.0000 
     61 CA         61.2210   31.4800   43.2600 C.3       8 GLP5        0.0000 
@<TRIPOS>BOND
@<TRIPOS>SUBSTRUCTURE
     1 SEC2        1 GROUP        1 X    SEC  0     ROOT SEC X 2
     2 LYC4       20 GROUP        1 X    LYC  0     **** LYC X 4
     3 ZIC7        6 GROUP        1 X    ZIC  0     **** ZIC X 5
     4 GLC5       31 GROUP        1 X    GLC  0     **** GLC X 6
     5 SEP2        3 GROUP        1 Y    SEP  0     ROOT SEP Y 9
     6 LYP4       22 GROUP        1 Y    LYP  0     **** LYP Y 11
     7 ZIP7        8 GROUP        1 Y    ZIP  0     **** ZIP Y 12
     8 GLP5       33 GROUP        1 Y    GLP  0     **** GLP Y 13
     9 SEL2        2 GROUP        1 Z    SEL  0     ROOT SEL Z 16
    10 LYL4       21 GROUP        1 Z    LYL  0     **** LYL Z 18
    11 ZIL7        7 GROUP        1 Z    ZIL  0     **** ZIL Z 19
    12 GLL5       32 GROUP        1 Z    GLL  0     **** GLL Z 20
@<TRIPOS>SET

