#    Name: 2aj4_ANP_2_ligand
#    Modification time : Mon Mar 24 19:22:02 2014

@<TRIPOS>MOLECULE
2aj4_ANP_2_ligand
   42    44     1     0     0
SMALL
NO_CHARGES


@<TRIPOS>ATOM
      1 PG         64.0460   29.6830   32.2370 P.3       1 ANP532      0.0000 
      2 O1G        64.1300   30.9430   31.4280 O.co2     1 ANP532      0.0000 
      3 O2G        63.7920   28.5460   31.2970 O.co2     1 ANP532      0.0000 
      4 O3G        62.9230   29.7400   33.3850 O.co2     1 ANP532      0.0000 
      5 PB         66.3630   28.1720   33.0050 P.3       1 ANP532      0.0000 
      6 O1B        66.4390   27.5030   31.6430 O.co2     1 ANP532      0.0000 
      7 O2B        67.7290   28.5690   33.5270 O.co2     1 ANP532      0.0000 
      8 N3B        65.4460   29.4670   32.9580 N.4       1 ANP532      0.0000 
      9 PA         64.7480   27.1960   35.2250 P.3       1 ANP532      0.0000 
     10 O1A        63.5060   27.9930   34.8820 O.co2     1 ANP532      0.0000 
     11 O2A        64.4350   25.7950   35.6400 O.co2     1 ANP532      0.0000 
     12 O3A        65.7300   27.0770   33.9820 O.3       1 ANP532      0.0000 
     13 O5'        65.4900   27.9120   36.4020 O.3       1 ANP532      0.0000 
     14 C5'        66.8030   27.3820   36.5140 C.3       1 ANP532      0.0000 
     15 C4'        67.0280   26.9630   37.9380 C.3       1 ANP532      0.0000 
     16 O4'        66.7410   28.0750   38.8370 O.3       1 ANP532      0.0000 
     17 C3'        66.1450   25.8270   38.4330 C.3       1 ANP532      0.0000 
     18 O3'        66.5320   24.5400   37.9010 O.3       1 ANP532      0.0000 
     19 C2'        66.2390   26.0710   39.9670 C.3       1 ANP532      0.0000 
     20 O2'        67.4250   25.5790   40.6310 O.3       1 ANP532      0.0000 
     21 C1'        66.2210   27.5790   40.0280 C.3       1 ANP532      0.0000 
     22 N9         64.8430   27.9690   40.0880 N.pl3     1 ANP532      0.0000 
     23 C8         64.0630   28.5120   39.1210 C.2       1 ANP532      0.0000 
     24 N7         62.8440   28.8020   39.5630 N.2       1 ANP532      0.0000 
     25 C5         62.8620   28.3740   40.8930 C.ar      1 ANP532      0.0000 
     26 C6         61.8760   28.4050   41.9020 C.ar      1 ANP532      0.0000 
     27 N6         60.7080   28.8210   41.8370 N.pl3     1 ANP532      0.0000 
     28 N1         62.2940   27.8820   43.0740 N.ar      1 ANP532      0.0000 
     29 C2         63.5540   27.3930   43.3110 C.ar      1 ANP532      0.0000 
     30 N3         64.4830   27.3430   42.4040 N.ar      1 ANP532      0.0000 
     31 C4         64.0800   27.8460   41.2140 C.ar      1 ANP532      0.0000 
     32 H          67.5627   28.1239   36.2480 H         1 ANP532      0.0000 
     33 H          66.9425   26.5075   35.8704 H         1 ANP532      0.0000 
     34 H          68.0628   26.6670   38.0788 H         1 ANP532      0.0000 
     35 H          65.1242   26.1163   38.1512 H         1 ANP532      0.0000 
     36 H          65.3268   25.7273   40.4049 H         1 ANP532      0.0000 
     37 H          66.7482   27.8964   40.8811 H         1 ANP532      0.0000 
     38 H          64.3800   28.6690   38.1933 H         1 ANP532      0.0000 
     39 H          63.7513   27.0425   44.3023 H         1 ANP532      0.0000 
     40 H          67.4980   24.6387   37.6622 H         1 ANP532      0.0000 
     41 H          68.1694   25.7380   39.9824 H         1 ANP532      0.0000 
     42 H          60.2335   28.3799   42.5988 H         1 ANP532      0.0000 
@<TRIPOS>BOND
     1    2    1 ar   
     2    3    1 ar   
     3    4    1 ar   
     4    8    1 1    
     5    6    5 ar   
     6    7    5 ar   
     7    8    5 1    
     8   12    5 1    
     9   10    9 ar   
    10   11    9 ar   
    11   12    9 1    
    12   13    9 1    
    13   14   13 1    
    14   15   14 1    
    15   32   14 1    
    16   33   14 1    
    17   16   15 1    
    18   17   15 1    
    19   34   15 1    
    20   21   16 1    
    21   18   17 1    
    22   19   17 1    
    23   35   17 1    
    24   40   18 1    
    25   20   19 1    
    26   21   19 1    
    27   36   19 1    
    28   41   20 1    
    29   22   21 1    
    30   37   21 1    
    31   23   22 1    
    32   31   22 1    
    33   24   23 2    
    34   38   23 1    
    35   25   24 1    
    36   26   25 ar   
    37   31   25 ar   
    38   27   26 1    
    39   28   26 ar   
    40   42   27 1    
    41   29   28 ar   
    42   30   29 ar   
    43   39   29 1    
    44   31   30 ar   
@<TRIPOS>SUBSTRUCTURE
     1 ANP532      1 GROUP   
@<TRIPOS>SET

