#    Name: 1MXI_1_CAVITY_N1_ALL.mol2
#    Modification time : Mon Mar 10 18:01:07 2014

@<TRIPOS>MOLECULE
1MXI_1_CAVITY_N1_ALL.mol2
   93     0     5     0     0
SMALL
NO_CHARGES


@<TRIPOS>ATOM
      1 N           8.0365  -12.8926   -4.9396 N.2       2 ALA2        0.0000 
      2 O           6.6939  -13.4171   -5.3548 O.2       2 ALA2        0.0000 
      3 O           6.2589  -12.0252   -5.7062 O.2       2 ALA2        0.0000 
      4 O           5.8239  -10.6334   -6.0577 O.2       2 ALA2        0.0000 
      5 OG          5.3513  -13.9415   -5.7700 O.2       1 SER1        0.0000 
      6 CA          4.4813  -11.1578   -6.4728 C.3       4 GLY6        0.0000 
      7 N           8.3608  -20.1822   -2.1997 N.2       2 ALA2        0.0000 
      8 N           7.0558  -16.0066   -3.2540 N.2       2 ALA2        0.0000 
      9 O           6.6208  -14.6148   -3.6055 O.2       2 ALA2        0.0000 
     10 N           6.1858  -13.2229   -3.9569 N.2       2 ALA2        0.0000 
     11 N           5.3158  -10.4392   -4.6598 N.2       2 ALA2        0.0000 
     12 N           4.8808   -9.0473   -5.0112 N.2       2 ALA2        0.0000 
     13 N           6.5832  -19.3148   -2.9663 N.2       2 ALA2        0.0000 
     14 N           6.1482  -17.9229   -3.3177 N.2       2 ALA2        0.0000 
     15 OG          5.7132  -16.5311   -3.6692 O.2       1 SER1        0.0000 
     16 OG          5.2782  -15.1392   -4.0206 O.2       1 SER1        0.0000 
     17 OG          4.8432  -13.7473   -4.3721 O.2       1 SER1        0.0000 
     18 CA          4.4082  -12.3555   -4.7235 C.3       4 GLY6        0.0000 
     19 CA          3.9732  -10.9636   -5.0749 C.3       4 GLY6        0.0000 
     20 DU          3.5382   -9.5718   -5.4264 H         5 CUB7        0.0000 
     21 OG          5.2406  -19.8392   -3.3815 O.2       1 SER1        0.0000 
     22 OG          4.8056  -18.4474   -3.7329 O.2       1 SER1        0.0000 
     23 OG          4.3706  -17.0555   -4.0843 O.2       1 SER1        0.0000 
     24 CA          2.6306  -11.4881   -5.4901 C.3       4 GLY6        0.0000 
     25 N           2.1956  -10.0962   -5.8415 N.2       2 ALA2        0.0000 
     26 N           5.7153   -8.3287   -3.1981 N.2       2 ALA2        0.0000 
     27 O           6.1127  -14.4206   -2.2075 O.2       2 ALA2        0.0000 
     28 N           4.3727   -8.8532   -3.6133 N.2       2 ALA2        0.0000 
     29 N           6.5101  -20.5125   -1.2170 N.2       2 ALA2        0.0000 
     30 CA          6.0751  -19.1206   -1.5684 C.3       4 GLY6        0.0000 
     31 CA          5.2051  -16.3369   -2.2713 C.3       4 GLY6        0.0000 
     32 OG          4.7701  -14.9450   -2.6227 O.2       1 SER1        0.0000 
     33 N           4.3351  -13.5532   -2.9742 N.2       2 ALA2        0.0000 
     34 N           3.9001  -12.1613   -3.3256 N.2       2 ALA2        0.0000 
     35 N           3.4651  -10.7695   -3.6770 N.2       2 ALA2        0.0000 
     36 N           3.0301   -9.3776   -4.0285 N.2       2 ALA2        0.0000 
     37 OG          4.7325  -19.6450   -1.9836 O.2       1 SER1        0.0000 
     38 CA          4.2975  -18.2532   -2.3350 C.3       4 GLY6        0.0000 
     39 OG          3.8625  -16.8613   -2.6864 O.2       1 SER1        0.0000 
     40 OG          3.4275  -15.4695   -3.0379 O.2       1 SER1        0.0000 
     41 OG          2.9925  -14.0776   -3.3893 O.2       1 SER1        0.0000 
     42 CA          2.5575  -12.6858   -3.7408 C.3       4 GLY6        0.0000 
     43 O           2.9549  -18.7776   -2.7502 O.2       2 ALA2        0.0000 
     44 CA          2.5199  -17.3858   -3.1016 C.3       4 GLY6        0.0000 
     45 N           4.2996  -10.0509   -1.8640 N.2       2 ALA2        0.0000 
     46 N           4.2620  -14.7509   -1.2248 N.2       2 ALA2        0.0000 
     47 N           3.8270  -13.3590   -1.5763 N.2       2 ALA2        0.0000 
     48 N           3.3920  -11.9672   -1.9277 N.2       2 ALA2        0.0000 
     49 N           2.9570  -10.5753   -2.2791 N.2       2 ALA2        0.0000 
     50 O           4.2244  -19.4509   -0.5857 O.2       2 ALA2        0.0000 
     51 CA          3.7894  -18.0590   -0.9371 C.3       4 GLY6        0.0000 
     52 CA          3.3544  -16.6672   -1.2885 C.3       4 GLY6        0.0000 
     53 OG          2.9194  -15.2753   -1.6400 O.2       1 SER1        0.0000 
     54 N           2.4844  -13.8835   -1.9914 N.2       2 ALA2        0.0000 
     55 CA          2.4468  -18.5835   -1.3523 C.3       4 GLY6        0.0000 
     56 O           2.0118  -17.1916   -1.7037 O.2       2 ALA2        0.0000 
     57 OG          1.5768  -15.7998   -2.0552 O.2       1 SER1        0.0000 
     58 N           1.1418  -14.4079   -2.4066 N.2       2 ALA2        0.0000 
     59 O           0.6692  -17.7161   -2.1189 O.2       2 ALA2        0.0000 
     60 CA          0.2342  -16.3242   -2.4703 C.3       4 GLY6        0.0000 
     61 O          -0.2008  -14.9324   -2.8218 O.2       2 ALA2        0.0000 
     62 O          -0.6734  -18.2405   -2.5341 O.2       2 ALA2        0.0000 
     63 CA         -1.1084  -16.8487   -2.8855 C.3       4 GLY6        0.0000 
     64 CA         -1.5435  -15.4568   -3.2369 C.3       4 GLY6        0.0000 
     65 O          -2.4511  -17.3731   -3.3007 O.2       2 ALA2        0.0000 
     66 CA          4.1889  -15.9486    0.5245 C.3       4 GLY6        0.0000 
     67 N           3.7539  -14.5567    0.1731 N.2       2 ALA2        0.0000 
     68 N           3.3189  -13.1649   -0.1784 N.2       2 ALA2        0.0000 
     69 CA          2.8839  -11.7730   -0.5298 C.3       4 GLY6        0.0000 
     70 CA          3.2813  -17.8649    0.4608 C.3       4 GLY6        0.0000 
     71 CA          2.8463  -16.4730    0.1094 C.3       4 GLY6        0.0000 
     72 DU          2.4113  -15.0812   -0.2421 H         5 CUB7        0.0000 
     73 DU          1.9763  -13.6893   -0.5935 H         5 CUB7        0.0000 
     74 N           1.5413  -12.2975   -0.9450 N.2       2 ALA2        0.0000 
     75 N           1.5037  -16.9975   -0.3058 N.2       2 ALA2        0.0000 
     76 DU          1.0687  -15.6056   -0.6573 H         5 CUB7        0.0000 
     77 OG          0.6337  -14.2138   -1.0087 O.2       1 SER1        0.0000 
     78 N           0.1611  -17.5219   -0.7210 N.2       2 ALA2        0.0000 
     79 OG         -0.2739  -16.1301   -1.0724 O.2       1 SER1        0.0000 
     80 OG         -0.7090  -14.7382   -1.4239 O.2       1 SER1        0.0000 
     81 OG         -1.6166  -16.6545   -1.4876 O.2       1 SER1        0.0000 
     82 OG         -2.0516  -15.2626   -1.8390 O.2       1 SER1        0.0000 
     83 N           2.8108  -12.9707    1.2195 N.2       2 ALA2        0.0000 
     84 O           2.3382  -16.2789    1.5073 O.2       2 ALA2        0.0000 
     85 N           1.9032  -14.8870    1.1558 N.2       2 ALA2        0.0000 
     86 CA          1.4681  -13.4951    0.8044 C.3       4 GLY6        0.0000 
     87 N           0.9956  -16.8033    1.0921 N.2       2 ALA2        0.0000 
     88 CZ          0.5606  -15.4114    0.7406 C.ar      3 PHE5        0.0000 
     89 OG          0.1255  -14.0196    0.3892 O.2       1 SER1        0.0000 
     90 CA         -0.7821  -15.9359    0.3255 C.3       4 GLY6        0.0000 
     91 CA         -2.1247  -16.4603   -0.0897 C.3       4 GLY6        0.0000 
     92 CA          1.3950  -14.6928    2.5537 C.3       4 GLY6        0.0000 
     93 CZ          0.0524  -15.2173    2.1385 C.ar      3 PHE5        0.0000 
@<TRIPOS>BOND
@<TRIPOS>SUBSTRUCTURE
     1 SER1        5 GROUP   
     2 ALA2        1 GROUP   
     3 PHE5       88 GROUP   
     4 GLY6        6 GROUP   
     5 CUB7       20 GROUP   
@<TRIPOS>SET

