#    Name: 1mxi_SAH_1_INTS_M
#    Modification time : Tue Mar 25 12:15:11 2014

@<TRIPOS>MOLECULE
1mxi_SAH_1_INTS_M
   68     0     9     0     0
SMALL
NO_CHARGES


@<TRIPOS>ATOM
      1 CA          5.8765  -16.4525   -1.7480 C.3       3 GLC5        0.0000 
      2 CA          5.3250  -15.6990   -3.7890 C.3       9 GLL5        0.0000 
      3 CA          6.4280  -17.2060    0.2930 C.3       6 GLP5        0.0000 
      4 CA          5.5865  -15.6220   -0.7975 C.3       3 GLC5        0.0000 
      5 CA          4.7450  -14.0380   -1.8880 C.3       9 GLL5        0.0000 
      6 CA          2.5220  -13.7130   -3.7655 C.3       3 GLC5        0.0000 
      7 CA          3.1160  -13.2520   -1.7740 C.3       9 GLL5        0.0000 
      8 CA          1.9280  -14.1740   -5.7570 C.3       6 GLP5        0.0000 
      9 CA          4.5360  -12.0935    0.1055 C.3       3 GLC5        0.0000 
     10 CA          3.0000  -13.3180    0.0470 C.3       9 GLL5        0.0000 
     11 CA          6.0720  -10.8690    0.1640 C.3       6 GLP5        0.0000 
     12 CA          4.3965  -16.5145    0.1595 C.3       3 GLC5        0.0000 
     13 CA          2.3650  -15.8230    0.0260 C.3       9 GLL5        0.0000 
     14 N           3.3415  -16.3940    2.3115 N.am      2 SEC2        0.0000 
     15 N           3.5450  -16.3710    0.7430 N.am      8 SEL2        0.0000 
     16 N           3.1380  -16.4170    3.8800 N.am      5 SEP2        0.0000 
     17 CA         -0.5495  -17.6140    1.3855 C.3       3 GLC5        0.0000 
     18 CA          1.0410  -16.4380    0.4730 C.3       9 GLL5        0.0000 
     19 CA         -2.1400  -18.7900    2.2980 C.3       6 GLP5        0.0000 
     20 N           2.0400  -16.5860    2.8770 N.am      2 SEC2        0.0000 
     21 N           0.9420  -16.7550    1.8740 N.am      8 SEL2        0.0000 
     22 O           0.7900  -18.1260    1.6500 O.2       1 ALC1        0.0000 
     23 O           0.9420  -16.7550    1.8740 O.2       7 ALL1        0.0000 
     24 O           0.6380  -19.4970    1.4260 O.2       4 ALP1        0.0000 
     25 CA         -0.9150  -15.3135    1.8710 C.3       3 GLC5        0.0000 
     26 CA          0.0870  -15.3340   -0.0280 C.3       9 GLL5        0.0000 
     27 CA         -1.9170  -15.2930    3.7700 C.3       6 GLP5        0.0000 
     28 CA         -1.4460  -14.2180    0.0490 C.3       3 GLC5        0.0000 
     29 CA         -2.9790  -13.1020    0.1260 C.3       6 GLP5        0.0000 
     30 N          -0.7945  -13.9060   -4.4685 N.am      2 SEC2        0.0000 
     31 N          -0.9240  -15.0430   -3.5480 N.am      8 SEL2        0.0000 
     32 N          -0.6650  -12.7690   -5.3890 N.am      5 SEP2        0.0000 
     33 CA         -4.1820  -17.2775   -3.5290 C.3       3 GLC5        0.0000 
     34 CA         -2.3530  -17.2610   -3.7790 C.3       9 GLL5        0.0000 
     35 CA         -6.0110  -17.2940   -3.2790 C.3       6 GLP5        0.0000 
     36 O          -3.9430  -17.8795   -5.4515 O.2       1 ALC1        0.0000 
     37 O          -2.7830  -17.1670   -5.0570 O.2       7 ALL1        0.0000 
     38 O          -5.1030  -18.5920   -5.8460 O.2       4 ALP1        0.0000 
     39 N          -3.9655  -18.9715   -3.1940 N.am      2 SEC2        0.0000 
     40 N          -2.7470  -18.3680   -3.0640 N.am      8 SEL2        0.0000 
     41 N          -5.1840  -19.5750   -3.3240 N.am      5 SEP2        0.0000 
     42 CA         -2.2415  -18.6340    0.2420 C.3       3 GLC5        0.0000 
     43 CA         -2.3430  -18.4780   -1.8140 C.3       9 GLL5        0.0000 
     44 CA         -0.8250  -19.7005   -1.3550 C.3       3 GLC5        0.0000 
     45 CA          0.6930  -20.9230   -0.8960 C.3       6 GLP5        0.0000 
     46 CA         -1.0355  -19.5395   -3.2305 C.3       3 GLC5        0.0000 
     47 CA          0.2720  -20.6010   -4.6470 C.3       6 GLP5        0.0000 
     48 CA         -3.2645  -20.0895   -2.3065 C.3       3 GLC5        0.0000 
     49 CA         -4.1860  -21.7010   -2.7990 C.3       6 GLP5        0.0000 
     50 CA         -4.2075  -17.8580   -1.7620 C.3       3 GLC5        0.0000 
     51 CA         -6.0720  -17.2380   -1.7100 C.3       6 GLP5        0.0000 
     52 CA         -3.3655  -16.2260   -1.4905 C.3       3 GLC5        0.0000 
     53 CA         -1.1980  -16.5350   -1.8280 C.3       9 GLL5        0.0000 
     54 CA         -5.5330  -15.9170   -1.1530 C.3       6 GLP5        0.0000 
     55 CA         -2.0885  -14.8185   -0.8510 C.3       3 GLC5        0.0000 
     56 CA          3.6555  -14.5745   -4.6397 C.3       3 GLC5        0.0000 
     57 CA          5.4410  -14.2510   -3.2560 C.3       9 GLL5        0.0000 
     58 CA          5.0013  -12.2570   -0.8335 C.3       3 GLC5        0.0000 
     59 CA          1.7572  -12.8930    1.7428 C.3       3 GLC5        0.0000 
     60 CA          0.9760  -11.9350    3.1860 C.3       6 GLP5        0.0000 
     61 CA          3.3930  -15.6378    2.0370 C.3       3 GLC5        0.0000 
     62 CA          2.0770  -14.3840    0.5520 C.3       9 GLL5        0.0000 
     63 CA          4.5650  -16.1720    3.7850 C.3       6 GLP5        0.0000 
     64 CA         -2.5225  -14.8912   -3.7400 C.3       3 GLC5        0.0000 
     65 CA         -3.1120  -13.0240   -4.0160 C.3       6 GLP5        0.0000 
     66 CA         -0.4612  -17.4094   -4.0150 C.3       3 GLC5        0.0000 
     67 CA         -1.5130  -16.2560   -3.1490 C.3       9 GLL5        0.0000 
     68 CA          0.6430  -18.1720   -5.3840 C.3       6 GLP5        0.0000 
@<TRIPOS>BOND
@<TRIPOS>SUBSTRUCTURE
     1 ALC1       22 GROUP        1 X    ALC  0     ROOT ALC X 1
     2 SEC2       14 GROUP        1 X    SEC  0     **** SEC X 2
     3 GLC5        1 GROUP        1 X    GLC  0     **** GLC X 6
     4 ALP1       24 GROUP        1 Y    ALP  0     ROOT ALP Y 8
     5 SEP2       16 GROUP        1 Y    SEP  0     **** SEP Y 9
     6 GLP5        3 GROUP        1 Y    GLP  0     **** GLP Y 13
     7 ALL1       23 GROUP        1 Z    ALL  0     ROOT ALL Z 15
     8 SEL2       15 GROUP        1 Z    SEL  0     **** SEL Z 16
     9 GLL5        2 GROUP        1 Z    GLL  0     **** GLL Z 20
@<TRIPOS>SET

