#    Name: 1mxi_SAH_1_ligand
#    Modification time : Tue Mar 25 12:15:11 2014

@<TRIPOS>MOLECULE
1mxi_SAH_1_ligand
   46    48     1     0     0
SMALL
NO_CHARGES


@<TRIPOS>ATOM
      1 N           5.8130  -16.6740   -2.8030 N.4       1 SAH302      0.0000 
      2 CA          5.3250  -15.6990   -3.7890 C.3       1 SAH302      0.0000 
      3 CB          5.4410  -14.2510   -3.2560 C.3       1 SAH302      0.0000 
      4 CG          4.7450  -14.0380   -1.8880 C.3       1 SAH302      0.0000 
      5 SD          3.1160  -13.2520   -1.7740 S.3       1 SAH302      0.0000 
      6 C           6.0850  -15.8370   -5.1340 C.2       1 SAH302      0.0000 
      7 O           6.9880  -16.7180   -5.1940 O.co2     1 SAH302      0.0000 
      8 OXT         5.7910  -15.0730   -6.0980 O.co2     1 SAH302      0.0000 
      9 C5'         3.0000  -13.3180    0.0470 C.3       1 SAH302      0.0000 
     10 C4'         2.0770  -14.3840    0.5520 C.3       1 SAH302      0.0000 
     11 O4'         0.7850  -14.0500    0.0520 O.3       1 SAH302      0.0000 
     12 C3'         2.3650  -15.8230    0.0260 C.3       1 SAH302      0.0000 
     13 O3'         3.5450  -16.3710    0.7430 O.3       1 SAH302      0.0000 
     14 C2'         1.0410  -16.4380    0.4730 C.3       1 SAH302      0.0000 
     15 O2'         0.9420  -16.7550    1.8740 O.3       1 SAH302      0.0000 
     16 C1'         0.0870  -15.3340   -0.0280 C.3       1 SAH302      0.0000 
     17 N9         -0.4160  -15.4560   -1.3920 N.pl3     1 SAH302      0.0000 
     18 C8         -0.2680  -14.5640   -2.4910 C.2       1 SAH302      0.0000 
     19 N7         -0.9240  -15.0430   -3.5480 N.2       1 SAH302      0.0000 
     20 C5         -1.5130  -16.2560   -3.1490 C.ar      1 SAH302      0.0000 
     21 C6         -2.3530  -17.2610   -3.7790 C.ar      1 SAH302      0.0000 
     22 N6         -2.7830  -17.1670   -5.0570 N.pl3     1 SAH302      0.0000 
     23 N1         -2.7470  -18.3680   -3.0640 N.ar      1 SAH302      0.0000 
     24 C2         -2.3430  -18.4780   -1.8140 C.ar      1 SAH302      0.0000 
     25 N3         -1.6050  -17.6510   -1.1150 N.ar      1 SAH302      0.0000 
     26 C4         -1.1980  -16.5350   -1.8280 C.ar      1 SAH302      0.0000 
     27 H           4.2673  -15.8822   -3.9992 H         1 SAH302      0.0000 
     28 H           4.9966  -13.5672   -3.9881 H         1 SAH302      0.0000 
     29 H           6.5017  -13.9941   -3.1559 H         1 SAH302      0.0000 
     30 H           5.3546  -13.4100   -1.2047 H         1 SAH302      0.0000 
     31 H           4.5789  -14.9963   -1.3524 H         1 SAH302      0.0000 
     32 H           2.6857  -12.3104    0.2801 H         1 SAH302      0.0000 
     33 H           4.0352  -13.4579    0.3245 H         1 SAH302      0.0000 
     34 H           2.0686  -14.4053    1.6155 H         1 SAH302      0.0000 
     35 H           2.4243  -15.7899   -0.9877 H         1 SAH302      0.0000 
     36 H           0.8698  -17.2898   -0.1815 H         1 SAH302      0.0000 
     37 H          -0.7589  -15.2867    0.6745 H         1 SAH302      0.0000 
     38 H           0.2408  -13.7483   -2.4292 H         1 SAH302      0.0000 
     39 H          -2.5148  -16.3404   -5.5518 H         1 SAH302      0.0000 
     40 H          -3.3311  -17.9324   -5.3943 H         1 SAH302      0.0000 
     41 H          -2.6749  -19.3981   -1.2834 H         1 SAH302      0.0000 
     42 H           6.5783  -17.2105   -3.1586 H         1 SAH302      0.0000 
     43 H           6.1312  -16.2284   -1.9662 H         1 SAH302      0.0000 
     44 H           5.0994  -17.3220   -2.5369 H         1 SAH302      0.0000 
     45 H           3.1647  -16.8858    1.5113 H         1 SAH302      0.0000 
     46 H           0.8441  -17.7496    1.9079 H         1 SAH302      0.0000 
@<TRIPOS>BOND
     1    2    1 1    
     2   42    1 1    
     3   43    1 1    
     4   44    1 1    
     5    3    2 1    
     6    6    2 1    
     7   27    2 1    
     8    4    3 1    
     9   28    3 1    
    10   29    3 1    
    11    5    4 1    
    12   30    4 1    
    13   31    4 1    
    14    9    5 1    
    15    7    6 ar   
    16    8    6 ar   
    17   10    9 1    
    18   32    9 1    
    19   33    9 1    
    20   11   10 1    
    21   12   10 1    
    22   34   10 1    
    23   16   11 1    
    24   13   12 1    
    25   14   12 1    
    26   35   12 1    
    27   45   13 1    
    28   15   14 1    
    29   16   14 1    
    30   36   14 1    
    31   46   15 1    
    32   17   16 1    
    33   37   16 1    
    34   18   17 1    
    35   26   17 1    
    36   19   18 2    
    37   38   18 1    
    38   20   19 1    
    39   21   20 ar   
    40   26   20 ar   
    41   22   21 1    
    42   23   21 ar   
    43   39   22 1    
    44   40   22 1    
    45   24   23 ar   
    46   25   24 ar   
    47   41   24 1    
    48   26   25 ar   
@<TRIPOS>SUBSTRUCTURE
     1 SAH302      1 GROUP   
@<TRIPOS>SET

