#    Name: 3u9y_09L_1_INTS_M
#    Modification time : Mon Mar 24 22:03:24 2014

@<TRIPOS>MOLECULE
3u9y_09L_1_INTS_M
   76     0     9     0     0
SMALL
NO_CHARGES


@<TRIPOS>ATOM
      1 CA          6.5565   -6.2935   24.4815 C.3       3 GLC5        0.0000 
      2 CA          5.9750   -4.3570   24.2940 C.3       9 GLL5        0.0000 
      3 CA          7.1380   -8.2300   24.6690 C.3       6 GLP5        0.0000 
      4 CA          5.9360   -1.5200   25.0695 C.3       3 GLC5        0.0000 
      5 CA          6.8790   -3.1600   24.6010 C.3       9 GLL5        0.0000 
      6 CA          4.9930    0.1200   25.5380 C.3       6 GLP5        0.0000 
      7 N           3.2500   -2.8525   21.9005 N.am      2 SEC2        0.0000 
      8 N           4.5720   -3.0520   22.3170 N.am      8 SEL2        0.0000 
      9 N           1.9280   -2.6530   21.4840 N.am      5 SEP2        0.0000 
     10 CA          4.0890    0.4790   19.7790 C.3       3 GLC5        0.0000 
     11 CA          5.3370   -0.7310   21.0420 C.3       9 GLL5        0.0000 
     12 CA          2.8410    1.6890   18.5160 C.3       6 GLP5        0.0000 
     13 CA          5.2805    0.4205   18.4120 C.3       3 GLC5        0.0000 
     14 CA          6.0820    0.0530   19.9590 C.3       9 GLL5        0.0000 
     15 CA          4.4790    0.7880   16.8650 C.3       6 GLP5        0.0000 
     16 CA          7.5990   -2.9315   20.5275 C.3       3 GLC5        0.0000 
     17 CA          7.6860   -1.3490   21.8820 C.3       9 GLL5        0.0000 
     18 CA          7.5120   -4.5140   19.1730 C.3       6 GLP5        0.0000 
     19 N           6.7750    2.9620   17.5315 N.am      2 SEC2        0.0000 
     20 N           7.0150    2.3590   18.9900 N.am      8 SEL2        0.0000 
     21 N           6.5350    3.5650   16.0730 N.am      5 SEP2        0.0000 
     22 CA          9.1430    3.9335   17.3615 C.3       3 GLC5        0.0000 
     23 CA          9.6500    3.1370   19.1870 C.3       9 GLL5        0.0000 
     24 CA          8.6360    4.7300   15.5360 C.3       6 GLP5        0.0000 
     25 CA          6.8550    3.1065   22.5665 C.3       3 GLC5        0.0000 
     26 CA          8.7620    2.3360   22.7010 C.3       9 GLL5        0.0000 
     27 CA          4.9480    3.8770   22.4320 C.3       6 GLP5        0.0000 
     28 CA         11.1125    5.9025   18.7690 C.3       3 GLC5        0.0000 
     29 CA         11.6170    4.3810   18.2210 C.3       9 GLL5        0.0000 
     30 CA         10.6080    7.4240   19.3170 C.3       6 GLP5        0.0000 
     31 CA         10.1265    4.5555   16.8785 C.3       3 GLC5        0.0000 
     32 CA         13.3540    4.1300   18.3265 C.3       3 GLC5        0.0000 
     33 CA         15.0910    3.8790   18.4320 C.3       6 GLP5        0.0000 
     34 CA         13.9240    5.8620   13.1345 C.3       3 GLC5        0.0000 
     35 CA         11.9600    5.8350   14.2030 C.3       9 GLL5        0.0000 
     36 CA         15.8880    5.8890   12.0660 C.3       6 GLP5        0.0000 
     37 CA         10.3175    2.8925   12.5890 C.3       3 GLC5        0.0000 
     38 CA         12.2350    3.5660   13.3860 C.3       9 GLL5        0.0000 
     39 CA          8.4000    2.2190   11.7920 C.3       6 GLP5        0.0000 
     40 CA         13.8145    2.0240   12.9890 C.3       3 GLC5        0.0000 
     41 CA         15.3940    0.4820   12.5920 C.3       6 GLP5        0.0000 
     42 N          12.5055   -0.5165   14.4910 N.am      2 SEC2        0.0000 
     43 N          12.3900    0.8530   14.1040 N.am      8 SEL2        0.0000 
     44 N          12.6210   -1.8860   14.8780 N.am      5 SEP2        0.0000 
     45 N          12.8105    0.4135   12.8475 N.am      2 SEC2        0.0000 
     46 N          13.2310   -0.0260   11.5910 N.am      5 SEP2        0.0000 
     47 O          12.4510    0.2160   16.9255 O.2       1 ALC1        0.0000 
     48 O          12.0710    1.3320   16.3170 O.2       7 ALL1        0.0000 
     49 O          12.8310   -0.9000   17.5340 O.2       4 ALP1        0.0000 
     50 CA          6.5373   -4.7335   21.8852 C.3       3 GLC5        0.0000 
     51 CA          6.6780   -3.6210   23.1590 C.3       9 GLL5        0.0000 
     52 CA          6.7480   -5.4780   20.0440 C.3       6 GLP5        0.0000 
     53 CA          8.3418   -4.3099   23.9031 C.3       3 GLC5        0.0000 
     54 CA         10.1310   -4.9300   24.0030 C.3       6 GLP5        0.0000 
     55 CA          5.1543   -1.6115   18.9838 C.3       3 GLC5        0.0000 
     56 CA          4.5990   -2.8840   17.4670 C.3       6 GLP5        0.0000 
     57 CA          8.5198    4.3487   21.9567 C.3       3 GLC5        0.0000 
     58 CA          9.4350    2.8050   21.6080 C.3       9 GLL5        0.0000 
     59 CA          7.9410    6.1270   21.7590 C.3       6 GLP5        0.0000 
     60 CA         12.4200    4.6065   21.8295 C.3       3 GLC5        0.0000 
     61 CA         11.3380    3.9860   20.6810 C.3       9 GLL5        0.0000 
     62 CA         13.8510    5.4800   22.4250 C.3       6 GLP5        0.0000 
     63 CA         10.2685    4.6873   15.5762 C.3       3 GLC5        0.0000 
     64 CA         11.9430    3.9580   15.7320 C.3       9 GLL5        0.0000 
     65 CA         10.3435    5.0583   14.6077 C.3       3 GLC5        0.0000 
     66 CA         11.8420    6.3853   11.9773 C.3       3 GLC5        0.0000 
     67 CA         11.6330    7.3840   10.2750 C.3       6 GLP5        0.0000 
     68 CA         12.3528    3.5545   11.5480 C.3       3 GLC5        0.0000 
     69 CA         12.1420    4.9380   13.1560 C.3       9 GLL5        0.0000 
     70 CA         12.5170    2.8570    9.8250 C.3       6 GLP5        0.0000 
     71 CA         13.7248    4.6205   12.1350 C.3       3 GLC5        0.0000 
     72 CA         15.2610    4.9890   10.9990 C.3       6 GLP5        0.0000 
     73 CA         10.4117    4.0252   14.7835 C.3       3 GLC5        0.0000 
     74 CA          9.5940    4.9286   20.4125 C.3       3 GLC5        0.0000 
     75 CA         10.8490    3.8020   19.3860 C.3       9 GLL5        0.0000 
     76 CA          8.6570    6.3180   20.4270 C.3       6 GLP5        0.0000 
@<TRIPOS>BOND
@<TRIPOS>SUBSTRUCTURE
     1 ALC1       47 GROUP        1 X    ALC  0     ROOT ALC X 1
     2 SEC2        7 GROUP        1 X    SEC  0     **** SEC X 2
     3 GLC5        1 GROUP        1 X    GLC  0     **** GLC X 6
     4 ALP1       49 GROUP        1 Y    ALP  0     ROOT ALP Y 8
     5 SEP2        9 GROUP        1 Y    SEP  0     **** SEP Y 9
     6 GLP5        3 GROUP        1 Y    GLP  0     **** GLP Y 13
     7 ALL1       48 GROUP        1 Z    ALL  0     ROOT ALL Z 15
     8 SEL2        8 GROUP        1 Z    SEL  0     **** SEL Z 16
     9 GLL5        2 GROUP        1 Z    GLL  0     **** GLL Z 20
@<TRIPOS>SET

