#    Name: 3u9y_09L_1_ligand
#    Modification time : Mon Mar 24 22:03:24 2014

@<TRIPOS>MOLECULE
3u9y_09L_1_ligand
   55    59     1     0     0
SMALL
NO_CHARGES


@<TRIPOS>ATOM
      1 CAJ         5.9750   -4.3570   24.2940 C.3       1 09L1165     0.0000 
      2 CAK         6.8790   -3.1600   24.6010 C.3       1 09L1165     0.0000 
      3 CAI         6.6780   -3.6210   23.1590 C.3       1 09L1165     0.0000 
      4 CAL         5.7540   -2.7370   22.3760 C.2       1 09L1165     0.0000 
      5 OAB         4.5720   -3.0520   22.3170 O.2       1 09L1165     0.0000 
      6 NAE         6.2320   -1.6310   21.8030 N.am      1 09L1165     0.0000 
      7 CAM         5.3370   -0.7310   21.0420 C.3       1 09L1165     0.0000 
      8 CAO         6.0820    0.0530   19.9590 C.3       1 09L1165     0.0000 
      9 CAN         7.6860   -1.3490   21.8820 C.3       1 09L1165     0.0000 
     10 CAP         8.0880    0.1020   21.5610 C.3       1 09L1165     0.0000 
     11 NAF         7.2850    0.7360   20.4860 N.am      1 09L1165     0.0000 
     12 CAQ         7.6570    1.9070   19.9280 C.2       1 09L1165     0.0000 
     13 OAC         7.0150    2.3590   18.9900 O.2       1 09L1165     0.0000 
     14 CAR         8.9440    2.6400   20.2890 C.ar      1 09L1165     0.0000 
     15 CAS         9.6500    3.1370   19.1870 C.ar      1 09L1165     0.0000 
     16 CAU         9.4350    2.8050   21.6080 C.ar      1 09L1165     0.0000 
     17 FAA         8.7620    2.3360   22.7010 F         1 09L1165     0.0000 
     18 CAX        10.6400    3.4800   21.7870 C.ar      1 09L1165     0.0000 
     19 CAW        11.3380    3.9860   20.6810 C.ar      1 09L1165     0.0000 
     20 CAT        10.8490    3.8020   19.3860 C.ar      1 09L1165     0.0000 
     21 CAV        11.6170    4.3810   18.2210 C.3       1 09L1165     0.0000 
     22 CAY        11.8140    3.4610   17.0300 C.2       1 09L1165     0.0000 
     23 CAZ        11.9430    3.9580   15.7320 C.ar      1 09L1165     0.0000 
     24 CBB        11.8590    5.3310   15.5010 C.ar      1 09L1165     0.0000 
     25 CBE        11.9600    5.8350   14.2030 C.ar      1 09L1165     0.0000 
     26 CBF        12.1420    4.9380   13.1560 C.ar      1 09L1165     0.0000 
     27 CBD        12.2350    3.5660   13.3860 C.ar      1 09L1165     0.0000 
     28 CBA        12.1400    3.0750   14.6760 C.ar      1 09L1165     0.0000 
     29 CBC        12.2130    1.7140   14.9700 C.2       1 09L1165     0.0000 
     30 OAD        12.3900    0.8530   14.1040 O.2       1 09L1165     0.0000 
     31 NAH        12.0710    1.3320   16.3170 N.am      1 09L1165     0.0000 
     32 NAG        11.8960    2.1420   17.2390 N.2       1 09L1165     0.0000 
     33 H           5.0813   -4.0513   24.3237 H         1 09L1165     0.0000 
     34 H           6.4707   -5.1402   24.4782 H         1 09L1165     0.0000 
     35 H           7.7089   -3.5011   24.8960 H         1 09L1165     0.0000 
     36 H           6.3195   -2.4122   24.7415 H         1 09L1165     0.0000 
     37 H           7.4075   -4.1053   22.8951 H         1 09L1165     0.0000 
     38 H           4.8552   -0.0100   21.7198 H         1 09L1165     0.0000 
     39 H           4.5353   -1.3098   20.5587 H         1 09L1165     0.0000 
     40 H           5.3868    0.7868   19.5244 H         1 09L1165     0.0000 
     41 H           6.3615   -0.6467   19.1572 H         1 09L1165     0.0000 
     42 H           8.2407   -2.0163   21.1879 H         1 09L1165     0.0000 
     43 H           8.0649   -1.5891   22.8986 H         1 09L1165     0.0000 
     44 H           9.1611    0.1049   21.2860 H         1 09L1165     0.0000 
     45 H           8.0064    0.6922   22.4949 H         1 09L1165     0.0000 
     46 H           9.2768    3.0064   18.2416 H         1 09L1165     0.0000 
     47 H          11.0229    3.6100   22.7320 H         1 09L1165     0.0000 
     48 H          12.2195    4.4979   20.8279 H         1 09L1165     0.0000 
     49 H          12.6172    4.7174   18.5797 H         1 09L1165     0.0000 
     50 H          11.1023    5.3067   17.8740 H         1 09L1165     0.0000 
     51 H          11.7219    5.9761   16.2908 H         1 09L1165     0.0000 
     52 H          11.9015    6.8350   14.0298 H         1 09L1165     0.0000 
     53 H          12.2100    5.2948   12.1851 H         1 09L1165     0.0000 
     54 H          12.3740    2.9241   12.5950 H         1 09L1165     0.0000 
     55 H          12.1273    0.2709   16.4817 H         1 09L1165     0.0000 
@<TRIPOS>BOND
     1    2    1 1    
     2    3    1 1    
     3   33    1 1    
     4   34    1 1    
     5    3    2 1    
     6   35    2 1    
     7   36    2 1    
     8    4    3 1    
     9   37    3 1    
    10    5    4 2    
    11    6    4 am   
    12    7    6 1    
    13    9    6 1    
    14    8    7 1    
    15   38    7 1    
    16   39    7 1    
    17   11    8 1    
    18   40    8 1    
    19   41    8 1    
    20   10    9 1    
    21   42    9 1    
    22   43    9 1    
    23   11   10 1    
    24   44   10 1    
    25   45   10 1    
    26   12   11 am   
    27   13   12 2    
    28   14   12 1    
    29   15   14 ar   
    30   16   14 ar   
    31   20   15 ar   
    32   46   15 1    
    33   17   16 1    
    34   18   16 ar   
    35   19   18 ar   
    36   47   18 1    
    37   20   19 ar   
    38   48   19 1    
    39   21   20 1    
    40   22   21 1    
    41   49   21 1    
    42   50   21 1    
    43   23   22 1    
    44   32   22 2    
    45   24   23 ar   
    46   28   23 ar   
    47   25   24 ar   
    48   51   24 1    
    49   26   25 ar   
    50   52   25 1    
    51   27   26 ar   
    52   53   26 1    
    53   28   27 ar   
    54   54   27 1    
    55   29   28 1    
    56   30   29 2    
    57   31   29 am   
    58   32   31 1    
    59   55   31 1    
@<TRIPOS>SUBSTRUCTURE
     1 09L1165     1 GROUP   
@<TRIPOS>SET

