#    Name: 3ko0_TFP_15_INTS_M
#    Modification time : Mon Mar 24 19:53:27 2014

@<TRIPOS>MOLECULE
3ko0_TFP_15_INTS_M
   72     0     6     0     0
SMALL
NO_CHARGES


@<TRIPOS>ATOM
      1 CA         37.4755   51.3160   41.6910 C.3       2 GLC5        0.0000 
      2 CA         39.4080   51.2840   41.5660 C.3       6 GLL5        0.0000 
      3 CA         35.5430   51.3480   41.8160 C.3       4 GLP5        0.0000 
      4 CA         41.2505   52.4145   41.4220 C.3       2 GLC5        0.0000 
      5 CA         43.0930   53.5450   41.2780 C.3       4 GLP5        0.0000 
      6 CA         39.7305   49.6590   43.0500 C.3       2 GLC5        0.0000 
      7 CA         40.0530   48.0340   44.5340 C.3       4 GLP5        0.0000 
      8 CA         41.1605   54.9280   44.0345 C.3       2 GLC5        0.0000 
      9 CA         39.4380   54.6920   43.7530 C.3       6 GLL5        0.0000 
     10 CA         42.8830   55.1640   44.3160 C.3       4 GLP5        0.0000 
     11 CA         41.5655   53.7845   45.0170 C.3       2 GLC5        0.0000 
     12 CA         40.2480   52.4050   45.7180 C.3       6 GLL5        0.0000 
     13 CA         40.5990   50.1875   45.6785 C.3       2 GLC5        0.0000 
     14 CA         40.9500   47.9700   45.6390 C.3       4 GLP5        0.0000 
     15 CA         39.1555   49.4540   45.1180 C.3       2 GLC5        0.0000 
     16 CA         38.2580   50.8740   45.7020 C.3       6 GLL5        0.0000 
     17 CA         35.7195   51.3115   43.8960 C.3       2 GLC5        0.0000 
     18 CA         35.8960   51.2750   45.9760 C.3       6 GLL5        0.0000 
     19 O          33.9440   49.5900   45.6535 O.2       1 ALC1        0.0000 
     20 O          34.5120   49.5410   46.9370 O.2       5 ALL1        0.0000 
     21 O          33.3760   49.6390   44.3700 O.2       3 ALP1        0.0000 
     22 CA         36.9060   47.3285   48.5845 C.3       2 GLC5        0.0000 
     23 CA         35.6990   48.7700   47.3690 C.3       6 GLL5        0.0000 
     24 CA         38.1130   45.8870   49.8000 C.3       4 GLP5        0.0000 
     25 CA         35.6700   48.7435   44.5145 C.3       2 GLC5        0.0000 
     26 CA         36.8070   49.0920   46.3730 C.3       6 GLL5        0.0000 
     27 CA         34.5330   48.3950   42.6560 C.3       4 GLP5        0.0000 
     28 CA         37.9775   48.0310   45.3485 C.3       2 GLC5        0.0000 
     29 CA         39.1480   46.9700   44.3240 C.3       4 GLP5        0.0000 
     30 CA         32.2570   47.5930   47.1720 C.3       2 GLC5        0.0000 
     31 CA         33.3220   49.2110   47.7450 C.3       6 GLL5        0.0000 
     32 CA         31.1920   45.9750   46.5990 C.3       4 GLP5        0.0000 
     33 CA         44.3375   49.3525   46.5710 C.3       2 GLC5        0.0000 
     34 CA         44.3940   48.6750   44.8800 C.3       6 GLL5        0.0000 
     35 CA         44.2810   50.0300   48.2620 C.3       4 GLP5        0.0000 
     36 CA         46.7505   51.2120   45.6905 C.3       2 GLC5        0.0000 
     37 CA         45.1870   50.6310   44.8430 C.3       6 GLL5        0.0000 
     38 CA         48.3140   51.7930   46.5380 C.3       4 GLP5        0.0000 
     39 CA         45.6720   49.8220   41.3115 C.3       2 GLC5        0.0000 
     40 CA         45.5270   49.3430   43.1550 C.3       6 GLL5        0.0000 
     41 CA         45.8170   50.3010   39.4680 C.3       4 GLP5        0.0000 
     42 CA         47.2495   49.0800   42.8990 C.3       2 GLC5        0.0000 
     43 CA         48.9720   48.8170   42.6430 C.3       4 GLP5        0.0000 
     44 CA         43.1003   51.7110   42.0715 C.3       2 GLC5        0.0000 
     45 CA         43.3330   50.1730   43.4440 C.3       6 GLL5        0.0000 
     46 CA         42.9390   49.3270   40.2910 C.3       2 GLC5        0.0000 
     47 CA         42.8820   49.5810   42.2860 C.3       6 GLL5        0.0000 
     48 CA         43.5990   48.8960   38.5830 C.3       4 GLP5        0.0000 
     49 CA         42.1830   51.9770   41.6427 C.3       2 GLC5        0.0000 
     50 CA         41.6760   49.9350   41.7120 C.3       6 GLL5        0.0000 
     51 CA         42.5085   52.4335   42.5520 C.3       2 GLC5        0.0000 
     52 CA         41.3020   51.5190   43.5780 C.3       6 GLL5        0.0000 
     53 CA         38.5817   55.8565   40.0560 C.3       2 GLC5        0.0000 
     54 CA         38.4140   53.7340   41.2920 C.3       6 GLL5        0.0000 
     55 CA         38.8790   57.3200   38.6140 C.3       4 GLP5        0.0000 
     56 CA         38.3944   52.5531   39.7749 C.3       2 GLC5        0.0000 
     57 CA         37.9360   52.2010   37.9890 C.3       4 GLP5        0.0000 
     58 CA         40.4265   55.0935   41.9290 C.3       2 GLC5        0.0000 
     59 CA         38.1550   55.0520   41.7040 C.3       6 GLL5        0.0000 
     60 CA         42.4390   54.8970   41.5470 C.3       4 GLP5        0.0000 
     61 CA         40.8441   54.1109   42.0489 C.3       2 GLC5        0.0000 
     62 CA         39.7040   53.3480   43.4090 C.3       6 GLL5        0.0000 
     63 CA         40.9753   51.9455   47.2300 C.3       2 GLC5        0.0000 
     64 CA         42.4260   51.5810   48.5130 C.3       4 GLP5        0.0000 
     65 CA         38.2938   51.3328   48.0250 C.3       2 GLC5        0.0000 
     66 CA         38.8010   52.2150   46.1760 C.3       6 GLL5        0.0000 
     67 CA         38.0580   51.1210   50.1110 C.3       4 GLP5        0.0000 
     68 CA         37.1555   50.0260   48.4910 C.3       2 GLC5        0.0000 
     69 CA         42.7343   48.5823   45.0573 C.3       2 GLC5        0.0000 
     70 CA         44.0115   50.3882   46.1105 C.3       2 GLC5        0.0000 
     71 CA         44.6430   49.7140   44.0710 C.3       6 GLL5        0.0000 
     72 CA         43.1080   50.6040   47.7640 C.3       4 GLP5        0.0000 
@<TRIPOS>BOND
@<TRIPOS>SUBSTRUCTURE
     1 ALC1       19 GROUP        1 X    ALC  0     ROOT ALC X 1
     2 GLC5        1 GROUP        1 X    GLC  0     **** GLC X 6
     3 ALP1       21 GROUP        1 Y    ALP  0     ROOT ALP Y 8
     4 GLP5        3 GROUP        1 Y    GLP  0     **** GLP Y 13
     5 ALL1       20 GROUP        1 Z    ALL  0     ROOT ALL Z 15
     6 GLL5        2 GROUP        1 Z    GLL  0     **** GLL Z 20
@<TRIPOS>SET

