#    Name: 3ko0_TFP_15_ligand
#    Modification time : Mon Mar 24 19:53:27 2014

@<TRIPOS>MOLECULE
3ko0_TFP_15_ligand
   53    56     1     0     0
SMALL
NO_CHARGES


@<TRIPOS>ATOM
      1 C1         43.3330   50.1730   43.4440 C.ar      1 TFP201      0.0000 
      2 C2         42.8820   49.5810   42.2860 C.ar      1 TFP201      0.0000 
      3 C3         41.6760   49.9350   41.7120 C.ar      1 TFP201      0.0000 
      4 C4         40.8700   50.8830   42.3030 C.ar      1 TFP201      0.0000 
      5 C5         41.3020   51.5190   43.5780 C.ar      1 TFP201      0.0000 
      6 C6         42.5460   51.1250   44.0740 C.ar      1 TFP201      0.0000 
      7 S          39.4080   51.2840   41.5660 S.3       1 TFP201      0.0000 
      8 C7         39.1750   52.8690   42.0930 C.ar      1 TFP201      0.0000 
      9 C8         38.4140   53.7340   41.2920 C.ar      1 TFP201      0.0000 
     10 C9         38.1550   55.0520   41.7040 C.ar      1 TFP201      0.0000 
     11 C10        38.6730   55.5280   42.9180 C.ar      1 TFP201      0.0000 
     12 C11        39.4380   54.6920   43.7530 C.ar      1 TFP201      0.0000 
     13 C12        39.7040   53.3480   43.4090 C.ar      1 TFP201      0.0000 
     14 N1         40.5500   52.5560   44.2540 N.pl3     1 TFP201      0.0000 
     15 C13        40.2480   52.4050   45.7180 C.3       1 TFP201      0.0000 
     16 C14        38.8010   52.2150   46.1760 C.3       1 TFP201      0.0000 
     17 C15        38.2580   50.8740   45.7020 C.3       1 TFP201      0.0000 
     18 N2         37.0630   50.5300   46.4610 N.3       1 TFP201      0.0000 
     19 C16        35.8960   51.2750   45.9760 C.3       1 TFP201      0.0000 
     20 C17        34.7670   51.0020   46.9740 C.3       1 TFP201      0.0000 
     21 N3         34.5120   49.5410   46.9370 N.4       1 TFP201      0.0000 
     22 C18        35.6990   48.7700   47.3690 C.3       1 TFP201      0.0000 
     23 C19        36.8070   49.0920   46.3730 C.3       1 TFP201      0.0000 
     24 C20        33.3220   49.2110   47.7450 C.3       1 TFP201      0.0000 
     25 C21        44.6430   49.7140   44.0710 C.3       1 TFP201      0.0000 
     26 F1         44.3940   48.6750   44.8800 F         1 TFP201      0.0000 
     27 F2         45.1870   50.6310   44.8430 F         1 TFP201      0.0000 
     28 F3         45.5270   49.3430   43.1550 F         1 TFP201      0.0000 
     29 H          43.4643   48.8456   41.8281 H         1 TFP201      0.0000 
     30 H          41.3770   49.4824   40.8294 H         1 TFP201      0.0000 
     31 H          42.8945   51.5675   44.9555 H         1 TFP201      0.0000 
     32 H          38.0412   53.4002   40.3930 H         1 TFP201      0.0000 
     33 H          37.5850   55.6680   41.1145 H         1 TFP201      0.0000 
     34 H          38.4925   56.5003   43.2033 H         1 TFP201      0.0000 
     35 H          39.8145   55.0679   44.6381 H         1 TFP201      0.0000 
     36 H          40.6684   53.2983   46.2695 H         1 TFP201      0.0000 
     37 H          40.8538   51.5419   46.1266 H         1 TFP201      0.0000 
     38 H          38.1892   53.0179   45.7685 H         1 TFP201      0.0000 
     39 H          38.7620   52.2577   47.2631 H         1 TFP201      0.0000 
     40 H          39.0379   50.1199   45.8364 H         1 TFP201      0.0000 
     41 H          38.0353   50.9507   44.6345 H         1 TFP201      0.0000 
     42 H          35.5875   50.9271   45.0047 H         1 TFP201      0.0000 
     43 H          36.0896   52.3341   45.9577 H         1 TFP201      0.0000 
     44 H          33.8928   51.5501   46.6683 H         1 TFP201      0.0000 
     45 H          35.0879   51.3090   47.9543 H         1 TFP201      0.0000 
     46 H          34.2917   49.2686   45.8850 H         1 TFP201      0.0000 
     47 H          35.4989   47.7127   47.3403 H         1 TFP201      0.0000 
     48 H          36.0138   49.0727   48.3528 H         1 TFP201      0.0000 
     49 H          37.6872   48.5223   46.6387 H         1 TFP201      0.0000 
     50 H          36.4726   48.8154   45.3823 H         1 TFP201      0.0000 
     51 H          33.1262   48.2304   47.7345 H         1 TFP201      0.0000 
     52 H          33.4377   49.4766   48.7021 H         1 TFP201      0.0000 
     53 H          32.5037   49.6769   47.4084 H         1 TFP201      0.0000 
@<TRIPOS>BOND
     1    2    1 ar   
     2    6    1 ar   
     3   25    1 1    
     4    3    2 ar   
     5   29    2 1    
     6    4    3 ar   
     7   30    3 1    
     8    5    4 ar   
     9    7    4 1    
    10    6    5 ar   
    11   14    5 1    
    12   31    6 1    
    13    8    7 1    
    14    9    8 ar   
    15   13    8 ar   
    16   10    9 ar   
    17   32    9 1    
    18   11   10 ar   
    19   33   10 1    
    20   12   11 ar   
    21   34   11 1    
    22   13   12 ar   
    23   35   12 1    
    24   14   13 1    
    25   15   14 1    
    26   16   15 1    
    27   36   15 1    
    28   37   15 1    
    29   17   16 1    
    30   38   16 1    
    31   39   16 1    
    32   18   17 1    
    33   40   17 1    
    34   41   17 1    
    35   19   18 1    
    36   23   18 1    
    37   20   19 1    
    38   42   19 1    
    39   43   19 1    
    40   21   20 1    
    41   44   20 1    
    42   45   20 1    
    43   22   21 1    
    44   24   21 1    
    45   46   21 1    
    46   23   22 1    
    47   47   22 1    
    48   48   22 1    
    49   49   23 1    
    50   50   23 1    
    51   51   24 1    
    52   52   24 1    
    53   53   24 1    
    54   26   25 1    
    55   27   25 1    
    56   28   25 1    
@<TRIPOS>SUBSTRUCTURE
     1 TFP201      1 GROUP   
@<TRIPOS>SET

