#    Name: 2fzk_EOZ_2_INTS_M
#    Modification time : Tue Mar 25 13:17:51 2014

@<TRIPOS>MOLECULE
2fzk_EOZ_2_INTS_M
   43     0     9     0     0
SMALL
NO_CHARGES


@<TRIPOS>ATOM
      1 CA         68.7940   54.4440   54.6195 C.3       3 GLC5        0.0000 
      2 CA         70.4240   54.6390   55.2240 C.3       9 GLL5        0.0000 
      3 CA         67.1640   54.2490   54.0150 C.3       6 GLP5        0.0000 
      4 CA         70.2955   54.3205   56.6040 C.3       3 GLC5        0.0000 
      5 CA         70.1670   54.0020   57.9840 C.3       6 GLP5        0.0000 
      6 CA         68.3405   56.3360   50.5740 C.3       3 GLC5        0.0000 
      7 CA         69.3110   54.5330   51.1070 C.3       9 GLL5        0.0000 
      8 CA         67.3700   58.1390   50.0410 C.3       6 GLP5        0.0000 
      9 NZ         66.5850   53.7535   49.4585 N.4       2 LYC4        0.0000 
     10 NZ         67.8010   52.5080   48.5110 N.4       8 LYL4        0.0000 
     11 NZ         65.3690   54.9990   50.4060 N.4       5 LYP4        0.0000 
     12 N          66.8815   51.6120   49.3255 N.am      1 SEC2        0.0000 
     13 N          67.8010   52.5080   48.5110 N.am      7 SEL2        0.0000 
     14 N          65.9620   50.7160   50.1400 N.am      4 SEP2        0.0000 
     15 NZ         66.9160   54.8040   49.4040 N.4       2 LYC4        0.0000 
     16 NZ         68.4630   54.6090   48.4020 N.4       8 LYL4        0.0000 
     17 CA         71.1480   47.2435   54.1495 C.3       3 GLC5        0.0000 
     18 CA         70.9350   48.9550   53.8570 C.3       9 GLL5        0.0000 
     19 CA         71.3610   45.5320   54.4420 C.3       6 GLP5        0.0000 
     20 CA         69.0250   48.6090   54.7905 C.3       3 GLC5        0.0000 
     21 CA         67.1150   48.2630   55.7240 C.3       6 GLP5        0.0000 
     22 NZ         72.2140   47.0030   51.6980 N.4       2 LYC4        0.0000 
     23 NZ         70.5070   47.7020   51.4420 N.4       8 LYL4        0.0000 
     24 NZ         73.9210   46.3040   51.9540 N.4       5 LYP4        0.0000 
     25 NZ         66.9165   49.7265   51.8940 N.4       2 LYC4        0.0000 
     26 NZ         68.5360   48.9970   52.4970 N.4       8 LYL4        0.0000 
     27 NZ         65.2970   50.4560   51.2910 N.4       5 LYP4        0.0000 
     28 N          68.2920   49.1200   53.8790 N.am      1 SEC2        0.0000 
     29 N          68.5360   48.9970   52.4970 N.am      7 SEL2        0.0000 
     30 N          68.0480   49.2430   55.2610 N.am      4 SEP2        0.0000 
     31 N          67.9820   47.0825   52.9475 N.am      1 SEC2        0.0000 
     32 N          69.2850   46.7680   53.5140 N.am      7 SEL2        0.0000 
     33 N          66.6790   47.3970   52.3810 N.am      4 SEP2        0.0000 
     34 N          68.9670   46.5690   54.6060 N.am      1 SEC2        0.0000 
     35 N          68.6490   46.3700   55.6980 N.am      4 SEP2        0.0000 
     36 CA         68.5005   54.0350   53.3635 C.3       3 GLC5        0.0000 
     37 CA         69.9080   53.1910   53.0050 C.3       9 GLL5        0.0000 
     38 CA         70.2567   55.9695   51.7070 C.3       3 GLC5        0.0000 
     39 CA         69.7660   54.4510   52.4190 C.3       9 GLL5        0.0000 
     40 CA         70.9750   57.4470   51.6510 C.3       6 GLP5        0.0000 
     41 CA         68.1515   54.1053   52.3833 C.3       3 GLC5        0.0000 
     42 CA         68.2618   53.1705   52.8285 C.3       3 GLC5        0.0000 
     43 CA         69.6040   52.0370   52.2940 C.3       9 GLL5        0.0000 
@<TRIPOS>BOND
@<TRIPOS>SUBSTRUCTURE
     1 SEC2       12 GROUP        1 X    SEC  0     ROOT SEC X 2
     2 LYC4        9 GROUP        1 X    LYC  0     **** LYC X 4
     3 GLC5        1 GROUP        1 X    GLC  0     **** GLC X 6
     4 SEP2       14 GROUP        1 Y    SEP  0     ROOT SEP Y 9
     5 LYP4       11 GROUP        1 Y    LYP  0     **** LYP Y 11
     6 GLP5        3 GROUP        1 Y    GLP  0     **** GLP Y 13
     7 SEL2       13 GROUP        1 Z    SEL  0     ROOT SEL Z 16
     8 LYL4       10 GROUP        1 Z    LYL  0     **** LYL Z 18
     9 GLL5        2 GROUP        1 Z    GLL  0     **** GLL Z 20
@<TRIPOS>SET

