#    Name: 2fzk_EOZ_2_ligand
#    Modification time : Tue Mar 25 13:17:51 2014

@<TRIPOS>MOLECULE
2fzk_EOZ_2_ligand
   34    34     1     0     0
SMALL
NO_CHARGES


@<TRIPOS>ATOM
      1 OAD        72.9650   53.9740   54.6040 O.co2     1 EOZ612      0.0000 
      2 PAX        71.9890   54.0310   55.8700 P.3       1 EOZ612      0.0000 
      3 OAH        72.5600   55.1320   56.8850 O.co2     1 EOZ612      0.0000 
      4 OAG        71.8660   52.6830   56.4550 O.co2     1 EOZ612      0.0000 
      5 CAN        70.4240   54.6390   55.2240 C.3       1 EOZ612      0.0000 
      6 CAS        70.6080   55.7790   54.2290 C.2       1 EOZ612      0.0000 
      7 OAB        71.1430   56.8320   54.6010 O.2       1 EOZ612      0.0000 
      8 NAP        70.2210   55.5740   52.9750 N.am      1 EOZ612      0.0000 
      9 CAU        69.7660   54.4510   52.4190 C.ar      1 EOZ612      0.0000 
     10 CAK        69.9080   53.1910   53.0050 C.ar      1 EOZ612      0.0000 
     11 CAL        69.3110   54.5330   51.1070 C.ar      1 EOZ612      0.0000 
     12 CAW        68.9670   53.3900   50.3960 C.ar      1 EOZ612      0.0000 
     13 CAR        68.3730   53.5090   48.9890 C.2       1 EOZ612      0.0000 
     14 OAA        67.8010   52.5080   48.5110 O.co2     1 EOZ612      0.0000 
     15 OAF        68.4630   54.6090   48.4020 O.co2     1 EOZ612      0.0000 
     16 CAM        69.1150   52.1470   50.9900 C.ar      1 EOZ612      0.0000 
     17 CAV        69.6040   52.0370   52.2940 C.ar      1 EOZ612      0.0000 
     18 NAQ        69.9720   50.8100   52.6620 N.am      1 EOZ612      0.0000 
     19 CAT        70.6950   50.4620   53.7260 C.2       1 EOZ612      0.0000 
     20 OAC        71.2130   51.2460   54.5220 O.2       1 EOZ612      0.0000 
     21 CAO        70.9350   48.9550   53.8570 C.3       1 EOZ612      0.0000 
     22 PAY        69.7620   48.0050   52.8450 P.3       1 EOZ612      0.0000 
     23 OAI        70.5070   47.7020   51.4420 O.co2     1 EOZ612      0.0000 
     24 OAE        68.5360   48.9970   52.4970 O.co2     1 EOZ612      0.0000 
     25 OAJ        69.2850   46.7680   53.5140 O.co2     1 EOZ612      0.0000 
     26 H          69.9000   54.9306   56.1140 H         1 EOZ612      0.0000 
     27 H          69.9919   53.7586   54.7882 H         1 EOZ612      0.0000 
     28 H          70.2839   56.4499   52.3014 H         1 EOZ612      0.0000 
     29 H          70.2436   53.1200   53.9797 H         1 EOZ612      0.0000 
     30 H          69.2277   55.4604   50.6540 H         1 EOZ612      0.0000 
     31 H          68.8634   51.2925   50.4691 H         1 EOZ612      0.0000 
     32 H          69.6399   49.9881   52.0110 H         1 EOZ612      0.0000 
     33 H          70.7495   48.5770   54.8369 H         1 EOZ612      0.0000 
     34 H          71.8777   48.6380   53.4719 H         1 EOZ612      0.0000 
@<TRIPOS>BOND
     1    2    1 ar   
     2    3    2 ar   
     3    4    2 ar   
     4    5    2 1    
     5    6    5 1    
     6   26    5 1    
     7   27    5 1    
     8    7    6 2    
     9    8    6 am   
    10    9    8 1    
    11   28    8 1    
    12   10    9 ar   
    13   11    9 ar   
    14   17   10 ar   
    15   29   10 1    
    16   12   11 ar   
    17   30   11 1    
    18   13   12 1    
    19   16   12 ar   
    20   14   13 ar   
    21   15   13 ar   
    22   17   16 ar   
    23   31   16 1    
    24   18   17 1    
    25   19   18 am   
    26   32   18 1    
    27   20   19 2    
    28   21   19 1    
    29   22   21 1    
    30   33   21 1    
    31   34   21 1    
    32   23   22 ar   
    33   24   22 ar   
    34   25   22 ar   
@<TRIPOS>SUBSTRUCTURE
     1 EOZ612      1 GROUP   
@<TRIPOS>SET

