#    Name: 2iog_IOG_1_INTS_M
#    Modification time : Tue Mar 25 18:27:57 2014

@<TRIPOS>MOLECULE
2iog_IOG_1_INTS_M
  130     0    12     0     0
SMALL
NO_CHARGES


@<TRIPOS>ATOM
      1 CA         27.9380    2.9055   27.2565 C.3       4 GLC5        0.0000 
      2 CA         27.7630    0.8960   27.6590 C.3      12 GLL5        0.0000 
      3 CA         28.1130    4.9150   26.8540 C.3       8 GLP5        0.0000 
      4 CA         27.0010    1.3465   29.4000 C.3       4 GLC5        0.0000 
      5 CA         26.2390    1.7970   31.1410 C.3       8 GLP5        0.0000 
      6 CA         26.0220    2.4975   27.1850 C.3       4 GLC5        0.0000 
      7 CA         26.4620    0.4010   27.5120 C.3      12 GLL5        0.0000 
      8 CA         25.5820    4.5940   26.8580 C.3       8 GLP5        0.0000 
      9 CA         25.2620    1.2205   28.7375 C.3       4 GLC5        0.0000 
     10 CA         24.0620    2.0400   29.9630 C.3       8 GLP5        0.0000 
     11 N          23.7760   -1.4860   27.9280 N.am      2 SEC2        0.0000 
     12 N          25.0170   -1.3320   26.8820 N.am     10 SEL2        0.0000 
     13 N          22.5350   -1.6400   28.9740 N.am      6 SEP2        0.0000 
     14 N          23.7345   -0.6415   26.3045 N.am      2 SEC2        0.0000 
     15 N          22.4520    0.0490   25.7270 N.am      6 SEP2        0.0000 
     16 O          24.8615   -2.3750   26.1485 O.2       1 ALC1        0.0000 
     17 O          25.0170   -1.3320   26.8820 O.2       9 ALL1        0.0000 
     18 O          24.7060   -3.4180   25.4150 O.2       5 ALP1        0.0000 
     19 CA         29.3910   -0.2910   30.1220 C.3       4 GLC5        0.0000 
     20 CA         30.6040    0.6810   29.0300 C.3      12 GLL5        0.0000 
     21 CA         28.1780   -1.2630   31.2140 C.3       8 GLP5        0.0000 
     22 CA         31.3570    3.3555   28.1880 C.3       4 GLC5        0.0000 
     23 CA         31.8910    1.5150   29.2500 C.3      12 GLL5        0.0000 
     24 CA         30.8230    5.1960   27.1260 C.3       8 GLP5        0.0000 
     25 CA         33.9490    0.5950   31.9835 C.3       4 GLC5        0.0000 
     26 CA         32.3170    1.3690   30.7160 C.3      12 GLL5        0.0000 
     27 CA         35.5810   -0.1790   33.2510 C.3       8 GLP5        0.0000 
     28 CA         32.1595    0.6195   32.4400 C.3       4 GLC5        0.0000 
     29 CA         32.0020   -0.1300   34.1640 C.3       8 GLP5        0.0000 
     30 CA         33.3520    2.8095   24.9930 C.3       4 GLC5        0.0000 
     31 CA         34.4260    1.5960   26.4310 C.3      12 GLL5        0.0000 
     32 CA         32.2780    4.0230   23.5550 C.3       8 GLP5        0.0000 
     33 CA         35.0800    3.0030   28.0355 C.3       4 GLC5        0.0000 
     34 CA         35.7340    4.4100   29.6400 C.3       8 GLP5        0.0000 
     35 CA         35.0875    3.2550   26.2970 C.3       4 GLC5        0.0000 
     36 CA         35.7490    4.9140   26.1630 C.3       8 GLP5        0.0000 
     37 CA         36.2340   -1.0110   25.1225 C.3       4 GLC5        0.0000 
     38 CA         35.6620   -0.7660   27.1210 C.3      12 GLL5        0.0000 
     39 CA         36.8060   -1.2560   23.1240 C.3       8 GLP5        0.0000 
     40 CA         32.8705   -3.8955   26.8110 C.3       4 GLC5        0.0000 
     41 CA         33.8670   -3.1370   24.9630 C.3      12 GLL5        0.0000 
     42 CA         31.8740   -4.6540   28.6590 C.3       8 GLP5        0.0000 
     43 CA         31.6030    1.0035   24.4105 C.3       4 GLC5        0.0000 
     44 CA         32.8250   -0.5170   24.7440 C.3      12 GLL5        0.0000 
     45 CA         30.3810    2.5240   24.0770 C.3       8 GLP5        0.0000 
     46 CA         37.4430    1.3590   31.7355 C.3       4 GLC5        0.0000 
     47 CA         37.6190    1.0380   29.8810 C.3      12 GLL5        0.0000 
     48 CA         37.2670    1.6800   33.5900 C.3       8 GLP5        0.0000 
     49 CA         37.9055    0.2225   31.7990 C.3       4 GLC5        0.0000 
     50 CA         38.7990    0.2900   29.9170 C.3      12 GLL5        0.0000 
     51 CA         37.0120    0.1550   33.6810 C.3       8 GLP5        0.0000 
     52 CA         39.8315   -1.2895   27.6110 C.3       4 GLC5        0.0000 
     53 CA         37.8940   -1.1550   28.1710 C.3      12 GLL5        0.0000 
     54 CA         41.7690   -1.4240   27.0510 C.3       8 GLP5        0.0000 
     55 CA         31.0585   -4.2370   22.9380 C.3       4 GLC5        0.0000 
     56 CA         33.0450   -4.6620   22.3200 C.3      12 GLL5        0.0000 
     57 CA         29.0720   -3.8120   23.5560 C.3       8 GLP5        0.0000 
     58 CA         34.3455   -5.3320   19.7065 C.3       4 GLC5        0.0000 
     59 CA         33.5890   -3.9920   21.0560 C.3      12 GLL5        0.0000 
     60 CA         35.1020   -6.6720   18.3570 C.3       8 GLP5        0.0000 
     61 OD1        31.7695   -5.2685   19.7660 O.co2     3 ASC3        0.0000 
     62 OD1        32.6150   -4.1210   19.9290 O.co2    11 ASL3        0.0000 
     63 OD1        30.9240   -6.4160   19.6030 O.co2     7 ASP3        0.0000 
     64 O          31.7695   -5.2685   19.7660 O.2       1 ALC1        0.0000 
     65 O          32.6150   -4.1210   19.9290 O.2       9 ALL1        0.0000 
     66 O          30.9240   -6.4160   19.6030 O.2       5 ALP1        0.0000 
     67 CA         32.5175   -1.4670   19.7905 C.3       4 GLC5        0.0000 
     68 CA         33.2600   -3.3100   18.8600 C.3      12 GLL5        0.0000 
     69 CA         31.7750    0.3760   20.7210 C.3       8 GLP5        0.0000 
     70 CA         31.7760   -2.4795   15.7610 C.3       4 GLC5        0.0000 
     71 CA         32.2890   -3.0900   17.6880 C.3      12 GLL5        0.0000 
     72 CA         31.2630   -1.8690   13.8340 C.3       8 GLP5        0.0000 
     73 CA         31.3995   -1.0025   19.4515 C.3       4 GLC5        0.0000 
     74 CA         31.0240   -2.3810   18.1820 C.3      12 GLL5        0.0000 
     75 CA         31.5195   -1.0425   16.5375 C.3       4 GLC5        0.0000 
     76 CA         32.0150    0.2960   14.8930 C.3       8 GLP5        0.0000 
     77 CA         29.3475   -5.1035   19.7935 C.3       4 GLC5        0.0000 
     78 CA         30.3630   -3.3220   19.2000 C.3      12 GLL5        0.0000 
     79 CA         28.3320   -6.8850   20.3870 C.3       8 GLP5        0.0000 
     80 CA         30.2095   -3.6630   21.9585 C.3       4 GLC5        0.0000 
     81 CA         31.3470   -3.5140   20.3610 C.3      12 GLL5        0.0000 
     82 CA         29.9627    1.4655   25.7535 C.3       4 GLC5        0.0000 
     83 CA         28.8630    0.0960   27.3330 C.3      12 GLL5        0.0000 
     84 CA         26.3134    0.5666   25.6486 C.3       4 GLC5        0.0000 
     85 CA         25.9240    1.2690   23.9680 C.3       8 GLP5        0.0000 
     86 CA         28.5520   -2.6330   25.1653 C.3       4 GLC5        0.0000 
     87 CA         27.3770   -1.7070   26.7010 C.3      12 GLL5        0.0000 
     88 CA         27.6195   -0.9925   24.7927 C.3       4 GLC5        0.0000 
     89 CA         27.2070   -0.5310   22.8110 C.3       8 GLP5        0.0000 
     90 CA         32.5545    3.1465   30.3735 C.3       4 GLC5        0.0000 
     91 CA         33.0050    4.8510   30.7640 C.3       8 GLP5        0.0000 
     92 CA         31.9706   -0.7383   30.0525 C.3       4 GLC5        0.0000 
     93 CA         32.1590   -2.7100   30.1770 C.3       8 GLP5        0.0000 
     94 CA         30.6271    2.6593   30.8020 C.3       4 GLC5        0.0000 
     95 CA         29.4720    4.0850   31.6760 C.3       8 GLP5        0.0000 
     96 CA         32.8655   -4.9203   24.6635 C.3       4 GLC5        0.0000 
     97 CA         32.3350   -6.8600   24.8690 C.3       8 GLP5        0.0000 
     98 CA         30.8582   -2.9992   23.7402 C.3       4 GLC5        0.0000 
     99 CA         32.9250   -2.8240   23.9530 C.3      12 GLL5        0.0000 
    100 CA         35.1689   -1.9845   23.8831 C.3       4 GLC5        0.0000 
    101 CA         34.8139   -3.6990   23.9556 C.3       4 GLC5        0.0000 
    102 CA         34.4100   -2.0670   25.7000 C.3      12 GLL5        0.0000 
    103 CA         36.0960   -4.6850   23.2690 C.3       8 GLP5        0.0000 
    104 CA         33.9257   -0.3665   23.0930 C.3       4 GLC5        0.0000 
    105 CA         32.3640   -1.5490   23.8960 C.3      12 GLL5        0.0000 
    106 CA         35.2570    0.3000   21.8660 C.3       8 GLP5        0.0000 
    107 CA         35.2978    0.1120   24.4586 C.3       4 GLC5        0.0000 
    108 CA         33.9090   -0.7860   25.6050 C.3      12 GLL5        0.0000 
    109 CA         36.3540    0.1800   22.9020 C.3       8 GLP5        0.0000 
    110 CA         38.2828    1.3615   27.8938 C.3       4 GLC5        0.0000 
    111 CA         36.7320   -0.3820   28.1050 C.3      12 GLL5        0.0000 
    112 CA         39.9050    2.5500   27.2580 C.3       8 GLP5        0.0000 
    113 CA         36.4190    2.6465   29.5288 C.3       4 GLC5        0.0000 
    114 CA         36.5890    0.7280   28.9540 C.3      12 GLL5        0.0000 
    115 CA         39.0570    1.6070   28.5785 C.3       4 GLC5        0.0000 
    116 CA         39.4850   -1.4125   30.7987 C.3       4 GLC5        0.0000 
    117 CA         40.1030   -2.5710   32.0990 C.3       8 GLP5        0.0000 
    118 CA         40.5835   -0.4835   29.5963 C.3       4 GLC5        0.0000 
    119 CA         38.9350   -0.7980   29.0800 C.3      12 GLL5        0.0000 
    120 CA         42.3000   -0.7130   29.6940 C.3       8 GLP5        0.0000 
    121 CA         39.1598    0.7867   27.9417 C.3       4 GLC5        0.0000 
    122 CA         33.5630   -6.1105   22.4035 C.3       4 GLC5        0.0000 
    123 CA         33.8090   -7.8940   23.1190 C.3       8 GLP5        0.0000 
    124 CA         34.7065   -4.5060   22.4785 C.3       4 GLC5        0.0000 
    125 CA         33.7048   -4.5590   17.6985 C.3       4 GLC5        0.0000 
    126 CA         34.6350   -5.9180   17.1230 C.3       8 GLP5        0.0000 
    127 CA         29.3597   -3.2597   17.3925 C.3       4 GLC5        0.0000 
    128 CA         28.0260   -3.6680   16.0940 C.3       8 GLP5        0.0000 
    129 CA         30.6325   -1.5810   20.3672 C.3       4 GLC5        0.0000 
    130 CA         30.4100    0.2560   20.9540 C.3       8 GLP5        0.0000 
@<TRIPOS>BOND
@<TRIPOS>SUBSTRUCTURE
     1 ALC1       16 GROUP        1 X    ALC  0     ROOT ALC X 1
     2 SEC2       11 GROUP        1 X    SEC  0     **** SEC X 2
     3 ASC3       61 GROUP        1 X    ASC  0     **** ASC X 3
     4 GLC5        1 GROUP        1 X    GLC  0     **** GLC X 6
     5 ALP1       18 GROUP        1 Y    ALP  0     ROOT ALP Y 8
     6 SEP2       13 GROUP        1 Y    SEP  0     **** SEP Y 9
     7 ASP3       63 GROUP        1 Y    ASP  0     **** ASP Y 10
     8 GLP5        3 GROUP        1 Y    GLP  0     **** GLP Y 13
     9 ALL1       17 GROUP        1 Z    ALL  0     ROOT ALL Z 15
    10 SEL2       12 GROUP        1 Z    SEL  0     **** SEL Z 16
    11 ASL3       62 GROUP        1 Z    ASL  0     **** ASL Z 17
    12 GLL5        2 GROUP        1 Z    GLL  0     **** GLL Z 20
@<TRIPOS>SET

