#    Name: 2iog_IOG_1_ligand
#    Modification time : Tue Mar 25 18:27:57 2014

@<TRIPOS>MOLECULE
2iog_IOG_1_ligand
   79    83     1     0     0
SMALL
NO_CHARGES


@<TRIPOS>ATOM
      1 C1         28.8630    0.0960   27.3330 C.ar      1 IOG600      0.0000 
      2 C2         27.7630    0.8960   27.6590 C.ar      1 IOG600      0.0000 
      3 C3         26.4620    0.4010   27.5120 C.ar      1 IOG600      0.0000 
      4 C4         26.2930   -0.9200   27.0730 C.ar      1 IOG600      0.0000 
      5 O5         25.0170   -1.3320   26.8820 O.3       1 IOG600      0.0000 
      6 C6         27.3770   -1.7070   26.7010 C.ar      1 IOG600      0.0000 
      7 C7         28.6870   -1.2010   26.8480 C.ar      1 IOG600      0.0000 
      8 C8         30.2260    0.7180   27.5270 C.3       1 IOG600      0.0000 
      9 C9         30.6040    0.6810   29.0300 C.3       1 IOG600      0.0000 
     10 C10        31.8910    1.5150   29.2500 C.3       1 IOG600      0.0000 
     11 C11        32.3170    1.3690   30.7160 C.3       1 IOG600      0.0000 
     12 N12        32.9100    1.0600   28.2660 N.am      1 IOG600      0.0000 
     13 C13        33.4390    1.9920   27.4540 C.2       1 IOG600      0.0000 
     14 O14        33.1100    3.1980   27.5470 O.2       1 IOG600      0.0000 
     15 C15        34.4260    1.5960   26.4310 C.3       1 IOG600      0.0000 
     16 C16        34.7220    0.1520   26.4200 C.2       1 IOG600      0.0000 
     17 C17        35.6620   -0.7660   27.1210 C.2       1 IOG600      0.0000 
     18 N18        35.4250   -2.1180   26.5900 N.pl3     1 IOG600      0.0000 
     19 C19        34.4100   -2.0670   25.7000 C.ar      1 IOG600      0.0000 
     20 C20        33.8670   -3.1370   24.9630 C.ar      1 IOG600      0.0000 
     21 C21        32.9250   -2.8240   23.9530 C.ar      1 IOG600      0.0000 
     22 C22        32.3640   -1.5490   23.8960 C.ar      1 IOG600      0.0000 
     23 C23        32.8250   -0.5170   24.7440 C.ar      1 IOG600      0.0000 
     24 C24        33.9090   -0.7860   25.6050 C.ar      1 IOG600      0.0000 
     25 C25        36.7320   -0.3820   28.1050 C.ar      1 IOG600      0.0000 
     26 C26        36.5890    0.7280   28.9540 C.ar      1 IOG600      0.0000 
     27 C27        37.6190    1.0380   29.8810 C.ar      1 IOG600      0.0000 
     28 C28        38.7990    0.2900   29.9170 C.ar      1 IOG600      0.0000 
     29 C29        38.9350   -0.7980   29.0800 C.ar      1 IOG600      0.0000 
     30 C30        37.8940   -1.1550   28.1710 C.ar      1 IOG600      0.0000 
     31 O31        32.3420   -3.8020   23.2300 O.3       1 IOG600      0.0000 
     32 C32        33.0450   -4.6620   22.3200 C.3       1 IOG600      0.0000 
     33 C33        33.5890   -3.9920   21.0560 C.3       1 IOG600      0.0000 
     34 N34        32.6150   -4.1210   19.9290 N.4       1 IOG600      0.0000 
     35 C35        33.2600   -3.3100   18.8600 C.3       1 IOG600      0.0000 
     36 C36        32.2890   -3.0900   17.6880 C.3       1 IOG600      0.0000 
     37 C37        31.0240   -2.3810   18.1820 C.3       1 IOG600      0.0000 
     38 C38        30.3630   -3.3220   19.2000 C.3       1 IOG600      0.0000 
     39 C39        31.3470   -3.5140   20.3610 C.3       1 IOG600      0.0000 
     40 H          27.9100    1.8511   28.0079 H         1 IOG600      0.0000 
     41 H          25.6579    0.9844   27.7183 H         1 IOG600      0.0000 
     42 H          27.2371   -2.6456   26.3232 H         1 IOG600      0.0000 
     43 H          29.4868   -1.7796   26.6018 H         1 IOG600      0.0000 
     44 H          30.2152    1.7501   27.1995 H         1 IOG600      0.0000 
     45 H          30.9716    0.1642   26.9702 H         1 IOG600      0.0000 
     46 H          30.7868   -0.3384   29.3245 H         1 IOG600      0.0000 
     47 H          29.8017    1.1071   29.6079 H         1 IOG600      0.0000 
     48 H          31.6270    2.5479   29.0643 H         1 IOG600      0.0000 
     49 H          33.1459    0.0863   28.2620 H         1 IOG600      0.0000 
     50 H          35.3693    2.1645   26.5908 H         1 IOG600      0.0000 
     51 H          34.0587    1.9047   25.4269 H         1 IOG600      0.0000 
     52 H          35.9393   -2.8613   26.8710 H         1 IOG600      0.0000 
     53 H          34.1350   -4.0869   25.1438 H         1 IOG600      0.0000 
     54 H          31.6041   -1.3486   23.2307 H         1 IOG600      0.0000 
     55 H          32.3865    0.3938   24.7328 H         1 IOG600      0.0000 
     56 H          35.7554    1.3104   28.9103 H         1 IOG600      0.0000 
     57 H          37.4857    1.8244   30.5297 H         1 IOG600      0.0000 
     58 H          39.5504    0.5537   30.5612 H         1 IOG600      0.0000 
     59 H          39.7894   -1.3727   29.0952 H         1 IOG600      0.0000 
     60 H          38.0111   -1.9757   27.5762 H         1 IOG600      0.0000 
     61 H          32.3920   -5.5106   21.9886 H         1 IOG600      0.0000 
     62 H          33.9115   -5.1581   22.8294 H         1 IOG600      0.0000 
     63 H          34.5360   -4.4649   20.7894 H         1 IOG600      0.0000 
     64 H          33.7760   -2.9384   21.2715 H         1 IOG600      0.0000 
     65 H          32.5256   -5.1116   19.6469 H         1 IOG600      0.0000 
     66 H          34.1482   -3.8181   18.4811 H         1 IOG600      0.0000 
     67 H          33.5568   -2.3349   19.2495 H         1 IOG600      0.0000 
     68 H          32.0209   -4.0501   17.2630 H         1 IOG600      0.0000 
     69 H          32.7729   -2.4795   16.9347 H         1 IOG600      0.0000 
     70 H          30.3580   -2.2193   17.3604 H         1 IOG600      0.0000 
     71 H          31.2906   -1.4639   18.6642 H         1 IOG600      0.0000 
     72 H          30.1665   -4.2700   18.7356 H         1 IOG600      0.0000 
     73 H          29.4586   -2.8740   19.5664 H         1 IOG600      0.0000 
     74 H          31.5270   -2.5294   20.8215 H         1 IOG600      0.0000 
     75 H          30.8574   -4.1422   21.1223 H         1 IOG600      0.0000 
     76 H          32.5003    0.4158   30.9563 H         1 IOG600      0.0000 
     77 H          33.1494    1.8865   30.9142 H         1 IOG600      0.0000 
     78 H          31.6108    1.6986   31.3426 H         1 IOG600      0.0000 
     79 H          25.0222   -1.7852   25.9906 H         1 IOG600      0.0000 
@<TRIPOS>BOND
     1    2    1 ar   
     2    7    1 ar   
     3    8    1 1    
     4    3    2 ar   
     5   40    2 1    
     6    4    3 ar   
     7   41    3 1    
     8    5    4 1    
     9    6    4 ar   
    10   79    5 1    
    11    7    6 ar   
    12   42    6 1    
    13   43    7 1    
    14    9    8 1    
    15   44    8 1    
    16   45    8 1    
    17   10    9 1    
    18   46    9 1    
    19   47    9 1    
    20   11   10 1    
    21   12   10 1    
    22   48   10 1    
    23   76   11 1    
    24   77   11 1    
    25   78   11 1    
    26   13   12 am   
    27   49   12 1    
    28   14   13 2    
    29   15   13 1    
    30   16   15 1    
    31   50   15 1    
    32   51   15 1    
    33   17   16 2    
    34   24   16 1    
    35   18   17 1    
    36   25   17 1    
    37   19   18 1    
    38   52   18 1    
    39   20   19 ar   
    40   24   19 ar   
    41   21   20 ar   
    42   53   20 1    
    43   22   21 ar   
    44   31   21 1    
    45   23   22 ar   
    46   54   22 1    
    47   24   23 ar   
    48   55   23 1    
    49   26   25 ar   
    50   30   25 ar   
    51   27   26 ar   
    52   56   26 1    
    53   28   27 ar   
    54   57   27 1    
    55   29   28 ar   
    56   58   28 1    
    57   30   29 ar   
    58   59   29 1    
    59   60   30 1    
    60   32   31 1    
    61   33   32 1    
    62   61   32 1    
    63   62   32 1    
    64   34   33 1    
    65   63   33 1    
    66   64   33 1    
    67   35   34 1    
    68   39   34 1    
    69   65   34 1    
    70   36   35 1    
    71   66   35 1    
    72   67   35 1    
    73   37   36 1    
    74   68   36 1    
    75   69   36 1    
    76   38   37 1    
    77   70   37 1    
    78   71   37 1    
    79   39   38 1    
    80   72   38 1    
    81   73   38 1    
    82   74   39 1    
    83   75   39 1    
@<TRIPOS>SUBSTRUCTURE
     1 IOG600      1 GROUP   
@<TRIPOS>SET

