#    Name: 1g4t_FTP_1_INTS_M
#    Modification time : Tue Mar 25 02:34:05 2014

@<TRIPOS>MOLECULE
1g4t_FTP_1_INTS_M
   85     0     9     0     0
SMALL
NO_CHARGES


@<TRIPOS>ATOM
      1 CA         17.7265   42.5440   15.0415 C.3       3 GLC5        0.0000 
      2 CA         16.4500   41.3000   15.9430 C.3       9 GLL5        0.0000 
      3 CA         19.0030   43.7880   14.1400 C.3       6 GLP5        0.0000 
      4 N          18.6440   41.8745   17.0810 N.am      2 SEC2        0.0000 
      5 N          17.1480   42.1750   16.6500 N.am      8 SEL2        0.0000 
      6 N          20.1400   41.5740   17.5120 N.am      5 SEP2        0.0000 
      7 CA         16.9330   42.0215   18.3550 C.3       3 GLC5        0.0000 
      8 CA         16.5930   43.4020   16.9480 C.3       9 GLL5        0.0000 
      9 CA         17.2730   40.6410   19.7620 C.3       6 GLP5        0.0000 
     10 O          18.7080   43.8575   18.1870 O.2       1 ALC1        0.0000 
     11 O          17.3320   44.2390   17.6660 O.2       7 ALL1        0.0000 
     12 O          20.0840   43.4760   18.7080 O.2       4 ALP1        0.0000 
     13 CA         14.7780   43.8595   13.8295 C.3       3 GLC5        0.0000 
     14 CA         14.6000   42.7670   15.7540 C.3       9 GLL5        0.0000 
     15 CA         14.9560   44.9520   11.9050 C.3       6 GLP5        0.0000 
     16 CA         13.5060   46.5485   17.7620 C.3       3 GLC5        0.0000 
     17 CA         14.5300   45.0380   16.8110 C.3       9 GLL5        0.0000 
     18 CA         12.4820   48.0590   18.7130 C.3       6 GLP5        0.0000 
     19 CA         11.9505   42.5690   16.8950 C.3       3 GLC5        0.0000 
     20 CA         12.0960   44.5380   17.4880 C.3       9 GLL5        0.0000 
     21 CA         11.8050   40.6000   16.3020 C.3       6 GLP5        0.0000 
     22 CA          9.8940   46.0040   18.8840 C.3       3 GLC5        0.0000 
     23 CA         11.0560   44.1250   18.7390 C.3       9 GLL5        0.0000 
     24 CA          8.7320   47.8830   19.0290 C.3       6 GLP5        0.0000 
     25 CA         11.7595   42.1890   18.7195 C.3       3 GLC5        0.0000 
     26 CA         12.4630   40.2530   18.7000 C.3       6 GLP5        0.0000 
     27 CA          9.7740   42.4215   19.2775 C.3       3 GLC5        0.0000 
     28 CA          8.4920   40.7180   19.8160 C.3       6 GLP5        0.0000 
     29 CA         16.6050   45.3190   20.4900 C.3       3 GLC5        0.0000 
     30 CA         14.9010   44.7420   19.8990 C.3       9 GLL5        0.0000 
     31 CA         18.3090   45.8960   21.0810 C.3       6 GLP5        0.0000 
     32 CA         15.1325   44.1240   21.8180 C.3       3 GLC5        0.0000 
     33 CA         15.3640   43.5060   23.7370 C.3       6 GLP5        0.0000 
     34 CA         11.7835   44.6305   23.3620 C.3       3 GLC5        0.0000 
     35 CA         12.2140   43.9490   21.3550 C.3       9 GLL5        0.0000 
     36 CA         11.3530   45.3120   25.3690 C.3       6 GLP5        0.0000 
     37 CA         13.0125   42.4450   19.9950 C.3       3 GLC5        0.0000 
     38 CA         13.8110   40.9410   18.6350 C.3       6 GLP5        0.0000 
     39 CA         13.7890   43.7275   22.5460 C.3       3 GLC5        0.0000 
     40 CA         12.1980   41.4050   20.2700 C.3       3 GLC5        0.0000 
     41 CA         11.9330   42.5570   21.8400 C.3       9 GLL5        0.0000 
     42 CA         10.2125   41.6375   20.8280 C.3       3 GLC5        0.0000 
     43 CA         13.5960   42.2820   22.9310 C.3       3 GLC5        0.0000 
     44 CA         15.2590   42.0070   24.0220 C.3       6 GLP5        0.0000 
     45 N           8.9125   43.0015   23.4170 N.am      2 SEC2        0.0000 
     46 N           9.5120   41.8060   23.5150 N.am      8 SEL2        0.0000 
     47 N           8.3130   44.1970   23.3190 N.am      5 SEP2        0.0000 
     48 N           8.5805   41.0275   22.7760 N.am      2 SEC2        0.0000 
     49 N           7.6490   40.2490   22.0370 N.am      5 SEP2        0.0000 
     50 N          10.8780   43.1040   25.8685 N.am      2 SEC2        0.0000 
     51 N          11.0620   41.8550   25.5300 N.am      8 SEL2        0.0000 
     52 N          10.6940   44.3530   26.2070 N.am      5 SEP2        0.0000 
     53 N          12.0305   41.1675   26.4355 N.am      2 SEC2        0.0000 
     54 N          12.9990   40.4800   27.3410 N.am      5 SEP2        0.0000 
     55 N          10.5875   41.3640   26.7170 N.am      2 SEC2        0.0000 
     56 N          10.1130   40.8730   27.9040 N.am      5 SEP2        0.0000 
     57 N          12.7120   39.7530   24.2265 N.am      2 SEC2        0.0000 
     58 N          11.4660   40.1400   23.7800 N.am      8 SEL2        0.0000 
     59 N          13.9580   39.3660   24.6730 N.am      5 SEP2        0.0000 
     60 CA         15.7330   38.0865   17.6205 C.3       3 GLC5        0.0000 
     61 CA         16.4520   39.0970   16.4840 C.3       9 GLL5        0.0000 
     62 CA         15.0140   37.0760   18.7570 C.3       6 GLP5        0.0000 
     63 CA         18.8315   41.4303   14.9208 C.3       3 GLC5        0.0000 
     64 CA         18.2990   39.9600   15.8550 C.3       9 GLL5        0.0000 
     65 CA         20.0160   42.8900   14.0860 C.3       6 GLP5        0.0000 
     66 CA         15.6208   39.6635   13.5817 C.3       3 GLC5        0.0000 
     67 CA         16.7060   39.5990   14.4350 C.3       9 GLL5        0.0000 
     68 CA         14.3910   39.5370   12.1180 C.3       6 GLP5        0.0000 
     69 CA         17.4603   43.6765   15.4307 C.3       3 GLC5        0.0000 
     70 CA         14.5349   42.0535   17.4364 C.3       3 GLC5        0.0000 
     71 CA         12.0290   46.1953   18.4132 C.3       3 GLC5        0.0000 
     72 CA         12.0392   46.0162   20.8648 C.3       3 GLC5        0.0000 
     73 CA         12.3830   44.2220   19.8620 C.3       9 GLL5        0.0000 
     74 CA         11.7800   47.9470   21.1210 C.3       6 GLP5        0.0000 
     75 CA         13.3558   46.3570   19.1360 C.3       3 GLC5        0.0000 
     76 CA         13.5580   44.5680   19.2190 C.3       9 GLL5        0.0000 
     77 CA         13.8734   42.7548   19.1774 C.3       3 GLC5        0.0000 
     78 CA         15.1991   40.4049   17.3884 C.3       3 GLC5        0.0000 
     79 CA         17.3581   40.2777   17.8802 C.3       3 GLC5        0.0000 
     80 CA         18.3628   38.4976   15.7509 C.3       3 GLC5        0.0000 
     81 CA         19.6170   37.3210   16.3030 C.3       6 GLP5        0.0000 
     82 CA         18.1872   39.0619   13.8136 C.3       3 GLC5        0.0000 
     83 CA         19.1980   38.3390   12.5320 C.3       6 GLP5        0.0000 
     84 CA         16.1969   38.0450   14.6293 C.3       3 GLC5        0.0000 
     85 CA         15.6790   36.5210   14.0060 C.3       6 GLP5        0.0000 
@<TRIPOS>BOND
@<TRIPOS>SUBSTRUCTURE
     1 ALC1       10 GROUP        1 X    ALC  0     ROOT ALC X 1
     2 SEC2        4 GROUP        1 X    SEC  0     **** SEC X 2
     3 GLC5        1 GROUP        1 X    GLC  0     **** GLC X 6
     4 ALP1       12 GROUP        1 Y    ALP  0     ROOT ALP Y 8
     5 SEP2        6 GROUP        1 Y    SEP  0     **** SEP Y 9
     6 GLP5        3 GROUP        1 Y    GLP  0     **** GLP Y 13
     7 ALL1       11 GROUP        1 Z    ALL  0     ROOT ALL Z 15
     8 SEL2        5 GROUP        1 Z    SEL  0     **** SEL Z 16
     9 GLL5        2 GROUP        1 Z    GLL  0     **** GLL Z 20
@<TRIPOS>SET

