#    Name: 1g4t_FTP_1_ligand
#    Modification time : Tue Mar 25 02:34:05 2014

@<TRIPOS>MOLECULE
1g4t_FTP_1_ligand
   38    39     1     0     0
SMALL
NO_CHARGES


@<TRIPOS>ATOM
      1 N1A        15.1790   41.5600   15.4690 N.ar      1 FTP2001     0.0000 
      2 C2A        16.4500   41.3000   15.9430 C.ar      1 FTP2001     0.0000 
      3 CM2        16.9950   39.9810   15.6560 C.3       1 FTP2001     0.0000 
      4 N3A        17.1480   42.1750   16.6500 N.ar      1 FTP2001     0.0000 
      5 C4A        16.5930   43.4020   16.9480 C.ar      1 FTP2001     0.0000 
      6 N4A        17.3320   44.2390   17.6660 N.pl3     1 FTP2001     0.0000 
      7 C5A        15.2420   43.7280   16.4950 C.ar      1 FTP2001     0.0000 
      8 C6A        14.6000   42.7670   15.7540 C.ar      1 FTP2001     0.0000 
      9 C7A        14.5300   45.0380   16.8110 C.3       1 FTP2001     0.0000 
     10 N3         13.3740   44.7420   17.8620 N.pl3     1 FTP2001     0.0000 
     11 C2         12.0960   44.5380   17.4880 C.2       1 FTP2001     0.0000 
     12 S1         11.0560   44.1250   18.7390 S.3       1 FTP2001     0.0000 
     13 C5         12.3830   44.2220   19.8620 C.2       1 FTP2001     0.0000 
     14 C4         13.5580   44.5680   19.2190 C.2       1 FTP2001     0.0000 
     15 CM4        14.9010   44.7420   19.8990 C.3       1 FTP2001     0.0000 
     16 C6         12.2140   43.9490   21.3550 C.3       1 FTP2001     0.0000 
     17 C7         11.9330   42.5570   21.8400 C.3       1 FTP2001     0.0000 
     18 O7         11.7960   42.6310   23.2880 O.3       1 FTP2001     0.0000 
     19 P1         10.8750   41.5890   24.0890 P.3       1 FTP2001     0.0000 
     20 O1          9.5120   41.8060   23.5150 O.co2     1 FTP2001     0.0000 
     21 O2         11.0620   41.8550   25.5300 O.co2     1 FTP2001     0.0000 
     22 O3         11.4660   40.1400   23.7800 O.co2     1 FTP2001     0.0000 
     23 F1         16.4520   39.0970   16.4840 F         1 FTP2001     0.0000 
     24 F2         18.2990   39.9600   15.8550 F         1 FTP2001     0.0000 
     25 F3         16.7060   39.5990   14.4350 F         1 FTP2001     0.0000 
     26 H          16.9093   45.1168   17.8913 H         1 FTP2001     0.0000 
     27 H          18.2446   43.9160   17.9167 H         1 FTP2001     0.0000 
     28 H          13.6338   42.9661   15.3952 H         1 FTP2001     0.0000 
     29 H          14.0763   45.4427   15.9272 H         1 FTP2001     0.0000 
     30 H          15.2097   45.7379   17.2570 H         1 FTP2001     0.0000 
     31 H          11.6601   44.5837   16.6344 H         1 FTP2001     0.0000 
     32 H          11.4001   44.6382   21.7401 H         1 FTP2001     0.0000 
     33 H          13.1404   44.3363   21.8819 H         1 FTP2001     0.0000 
     34 H          12.7572   41.9102   21.5612 H         1 FTP2001     0.0000 
     35 H          11.0180   42.1989   21.3819 H         1 FTP2001     0.0000 
     36 H          15.5849   44.1079   19.5382 H         1 FTP2001     0.0000 
     37 H          15.2633   45.6657   19.7747 H         1 FTP2001     0.0000 
     38 H          14.8422   44.5803   20.8841 H         1 FTP2001     0.0000 
@<TRIPOS>BOND
     1    2    1 ar   
     2    8    1 ar   
     3    3    2 1    
     4    4    2 ar   
     5   23    3 1    
     6   24    3 1    
     7   25    3 1    
     8    5    4 ar   
     9    6    5 1    
    10    7    5 ar   
    11   26    6 1    
    12   27    6 1    
    13    8    7 ar   
    14    9    7 1    
    15   28    8 1    
    16   10    9 1    
    17   29    9 1    
    18   30    9 1    
    19   11   10 2    
    20   14   10 1    
    21   12   11 1    
    22   31   11 1    
    23   13   12 1    
    24   14   13 2    
    25   16   13 1    
    26   15   14 1    
    27   36   15 1    
    28   37   15 1    
    29   38   15 1    
    30   17   16 1    
    31   32   16 1    
    32   33   16 1    
    33   18   17 1    
    34   34   17 1    
    35   35   17 1    
    36   19   18 1    
    37   20   19 ar   
    38   21   19 ar   
    39   22   19 ar   
@<TRIPOS>SUBSTRUCTURE
     1 FTP2001     1 GROUP   
@<TRIPOS>SET

