#    Name: 1cg6_MTA_1_INTS_M
#    Modification time : Mon Mar 24 20:40:56 2014

@<TRIPOS>MOLECULE
1cg6_MTA_1_INTS_M
   57     0     9     0     0
SMALL
NO_CHARGES


@<TRIPOS>ATOM
      1 CA         61.1480   12.4645   32.7715 C.3       3 GLC5        0.0000 
      2 CA         59.5150   13.6780   32.1280 C.3       9 GLL5        0.0000 
      3 CA         62.7810   11.2510   33.4150 C.3       6 GLP5        0.0000 
      4 CA         57.5850   15.4030   29.7860 C.3       3 GLC5        0.0000 
      5 CA         58.8930   14.4900   30.6240 C.3       9 GLL5        0.0000 
      6 CA         56.2770   16.3160   28.9480 C.3       6 GLP5        0.0000 
      7 CA         58.4060   16.6460   29.4755 C.3       3 GLC5        0.0000 
      8 CA         59.7360   16.0980   30.7420 C.3       9 GLL5        0.0000 
      9 CA         57.0760   17.1940   28.2090 C.3       6 GLP5        0.0000 
     10 CA         59.2760   18.1760   30.6800 C.3       3 GLC5        0.0000 
     11 CA         58.8160   20.2540   30.6180 C.3       6 GLP5        0.0000 
     12 CA         63.3380   19.0745   28.8240 C.3       3 GLC5        0.0000 
     13 CA         62.4720   17.7210   30.2760 C.3       9 GLL5        0.0000 
     14 CA         64.2040   20.4280   27.3720 C.3       6 GLP5        0.0000 
     15 CA         61.9230   19.5140   30.5945 C.3       3 GLC5        0.0000 
     16 CA         61.3740   21.3070   30.9130 C.3       6 GLP5        0.0000 
     17 N          63.9920   19.6215   30.1325 N.am      2 SEC2        0.0000 
     18 N          63.8380   18.2100   30.5270 N.am      8 SEL2        0.0000 
     19 N          64.1460   21.0330   29.7380 N.am      5 SEP2        0.0000 
     20 CA         62.0190   18.6305   33.4095 C.3       3 GLC5        0.0000 
     21 CA         61.8030   17.2890   31.6490 C.3       9 GLL5        0.0000 
     22 CA         62.2350   19.9720   35.1700 C.3       6 GLP5        0.0000 
     23 CA         60.9060   18.9485   31.7790 C.3       3 GLC5        0.0000 
     24 CA         60.0090   20.6080   31.9090 C.3       6 GLP5        0.0000 
     25 CA         63.5455   14.7750   28.9430 C.3       3 GLC5        0.0000 
     26 CA         62.5040   16.4660   29.3290 C.3       9 GLL5        0.0000 
     27 CA         64.5870   13.0840   28.5570 C.3       6 GLP5        0.0000 
     28 N          59.9780   14.8950   25.1185 N.am      2 SEC2        0.0000 
     29 N          60.6290   15.8280   26.0860 N.am      8 SEL2        0.0000 
     30 N          59.3270   13.9620   24.1510 N.am      5 SEP2        0.0000 
     31 CA         60.5670   19.3125   24.1815 C.3       3 GLC5        0.0000 
     32 CA         59.6600   18.1280   25.5030 C.3       9 GLL5        0.0000 
     33 CA         61.4740   20.4970   22.8600 C.3       6 GLP5        0.0000 
     34 O          58.7915   16.5900   23.5090 O.2       1 ALC1        0.0000 
     35 O          59.0180   17.8150   24.3760 O.2       7 ALL1        0.0000 
     36 O          58.5650   15.3650   22.6420 O.2       4 ALP1        0.0000 
     37 O          58.0980   18.8695   23.6575 O.2       1 ALC1        0.0000 
     38 O          57.1780   19.9240   22.9390 O.2       4 ALP1        0.0000 
     39 N          58.6610   20.3935   25.5795 N.am      2 SEC2        0.0000 
     40 N          59.6390   19.4040   25.9860 N.am      8 SEL2        0.0000 
     41 N          57.6830   21.3830   25.1730 N.am      5 SEP2        0.0000 
     42 CA         59.7300   21.6315   27.5230 C.3       3 GLC5        0.0000 
     43 CA         60.2830   19.7070   27.1150 C.3       9 GLL5        0.0000 
     44 CA         59.1770   23.5560   27.9310 C.3       6 GLP5        0.0000 
     45 CA         61.0030   21.0785   25.7685 C.3       3 GLC5        0.0000 
     46 CA         61.7230   22.4500   24.4220 C.3       6 GLP5        0.0000 
     47 CA         62.2435   20.0675   27.2435 C.3       3 GLC5        0.0000 
     48 CA         59.5495   19.9805   28.8665 C.3       3 GLC5        0.0000 
     49 CA         62.6030   19.0355   27.3910 C.3       3 GLC5        0.0000 
     50 CA         61.0020   17.6430   27.4100 C.3       9 GLL5        0.0000 
     51 CA         59.7265   12.8865   29.9610 C.3       3 GLC5        0.0000 
     52 CA         60.2490   11.6890   28.5460 C.3       6 GLP5        0.0000 
     53 CA         62.5687   16.7863   25.9922 C.3       3 GLC5        0.0000 
     54 CA         64.4430   16.1620   25.1520 C.3       6 GLP5        0.0000 
     55 CA         60.9267   17.2145   24.1840 C.3       3 GLC5        0.0000 
     56 CA         60.3870   17.1780   26.2550 C.3       9 GLL5        0.0000 
     57 CA         61.8300   16.7760   22.4890 C.3       6 GLP5        0.0000 
@<TRIPOS>BOND
@<TRIPOS>SUBSTRUCTURE
     1 ALC1       34 GROUP        1 X    ALC  0     ROOT ALC X 1
     2 SEC2       17 GROUP        1 X    SEC  0     **** SEC X 2
     3 GLC5        1 GROUP        1 X    GLC  0     **** GLC X 6
     4 ALP1       36 GROUP        1 Y    ALP  0     ROOT ALP Y 8
     5 SEP2       19 GROUP        1 Y    SEP  0     **** SEP Y 9
     6 GLP5        3 GROUP        1 Y    GLP  0     **** GLP Y 13
     7 ALL1       35 GROUP        1 Z    ALL  0     ROOT ALL Z 15
     8 SEL2       18 GROUP        1 Z    SEL  0     **** SEL Z 16
     9 GLL5        2 GROUP        1 Z    GLL  0     **** GLL Z 20
@<TRIPOS>SET

