#    Name: 1cg6_MTA_1_ligand
#    Modification time : Mon Mar 24 20:40:56 2014

@<TRIPOS>MOLECULE
1cg6_MTA_1_ligand
   35    37     1     0     0
SMALL
NO_CHARGES


@<TRIPOS>ATOM
      1 CS         59.5150   13.6780   32.1280 C.3       1 MTA292      0.0000 
      2 S5'        58.8930   14.4900   30.6240 S.3       1 MTA292      0.0000 
      3 C5'        59.7360   16.0980   30.7420 C.3       1 MTA292      0.0000 
      4 C4'        61.1600   15.9740   31.2480 C.3       1 MTA292      0.0000 
      5 O4'        61.9480   15.4130   30.1630 O.3       1 MTA292      0.0000 
      6 C2'        62.4720   17.7210   30.2760 C.3       1 MTA292      0.0000 
      7 O2'        63.8380   18.2100   30.5270 O.3       1 MTA292      0.0000 
      8 C3'        61.8030   17.2890   31.6490 C.3       1 MTA292      0.0000 
      9 O3'        62.8030   17.1140   32.7270 O.3       1 MTA292      0.0000 
     10 C1'        62.5040   16.4660   29.3290 C.3       1 MTA292      0.0000 
     11 N9         61.6410   16.5640   27.9870 N.pl3     1 MTA292      0.0000 
     12 C8         61.3710   15.5070   27.1300 C.2       1 MTA292      0.0000 
     13 N7         60.6290   15.8280   26.0860 N.2       1 MTA292      0.0000 
     14 C5         60.3870   17.1780   26.2550 C.ar      1 MTA292      0.0000 
     15 C6         59.6600   18.1280   25.5030 C.ar      1 MTA292      0.0000 
     16 N6         59.0180   17.8150   24.3760 N.pl3     1 MTA292      0.0000 
     17 N1         59.6390   19.4040   25.9860 N.ar      1 MTA292      0.0000 
     18 C2         60.2830   19.7070   27.1150 C.ar      1 MTA292      0.0000 
     19 N3         60.9930   18.8980   27.9040 N.ar      1 MTA292      0.0000 
     20 C4         61.0020   17.6430   27.4100 C.ar      1 MTA292      0.0000 
     21 H          59.0866   16.6432   31.4009 H         1 MTA292      0.0000 
     22 H          59.6629   16.4633   29.7349 H         1 MTA292      0.0000 
     23 H          61.1794   15.2984   32.0866 H         1 MTA292      0.0000 
     24 H          61.8560   18.4611   29.8337 H         1 MTA292      0.0000 
     25 H          61.0554   17.9901   31.8641 H         1 MTA292      0.0000 
     26 H          63.5130   16.2474   29.0862 H         1 MTA292      0.0000 
     27 H          61.7258   14.5878   27.3180 H         1 MTA292      0.0000 
     28 H          59.1067   16.8679   24.0676 H         1 MTA292      0.0000 
     29 H          58.5058   18.5557   23.9411 H         1 MTA292      0.0000 
     30 H          60.2205   20.7607   27.4371 H         1 MTA292      0.0000 
     31 H          60.5093   13.7512   32.2054 H         1 MTA292      0.0000 
     32 H          59.1260   14.0818   32.9560 H         1 MTA292      0.0000 
     33 H          59.2907   12.7036   32.1438 H         1 MTA292      0.0000 
     34 H          64.0440   17.9320   31.4652 H         1 MTA292      0.0000 
     35 H          62.9185   16.1246   32.8146 H         1 MTA292      0.0000 
@<TRIPOS>BOND
     1    2    1 1    
     2   31    1 1    
     3   32    1 1    
     4   33    1 1    
     5    3    2 1    
     6    4    3 1    
     7   21    3 1    
     8   22    3 1    
     9    5    4 1    
    10    8    4 1    
    11   23    4 1    
    12   10    5 1    
    13    7    6 1    
    14    8    6 1    
    15   10    6 1    
    16   24    6 1    
    17   34    7 1    
    18    9    8 1    
    19   25    8 1    
    20   35    9 1    
    21   11   10 1    
    22   26   10 1    
    23   12   11 1    
    24   20   11 1    
    25   13   12 2    
    26   27   12 1    
    27   14   13 1    
    28   15   14 ar   
    29   20   14 ar   
    30   16   15 1    
    31   17   15 ar   
    32   28   16 1    
    33   29   16 1    
    34   18   17 ar   
    35   19   18 ar   
    36   30   18 1    
    37   20   19 ar   
@<TRIPOS>SUBSTRUCTURE
     1 MTA292      1 GROUP   
@<TRIPOS>SET

