#    Name: 3B3F_3_CAVITY_N1_ALL.mol2
#    Modification time : Tue Mar 11 10:37:15 2014

@<TRIPOS>MOLECULE
3B3F_3_CAVITY_N1_ALL.mol2
  103     0     7     0     0
SMALL
NO_CHARGES


@<TRIPOS>ATOM
      1 O          11.3010   -5.7178   24.8038 O.2       2 ALA2        0.0000 
      2 O          10.5938   -6.5569   25.8264 O.2       2 ALA2        0.0000 
      3 O           9.7642  -11.2625   12.5913 O.2       2 ALA2        0.0000 
      4 OG         11.8501   -9.5394   22.0480 O.2       1 SER1        0.0000 
      5 OG         11.1428  -10.3785   23.0707 O.2       1 SER1        0.0000 
      6 NZ         13.4595   -8.8705   14.9092 N.2       4 LYS4        0.0000 
      7 N          12.7523   -9.7096   15.9319 N.2       2 ALA2        0.0000 
      8 N          12.0450  -10.5486   16.9546 N.2       2 ALA2        0.0000 
      9 N          11.3378  -11.3876   17.9772 N.2       2 ALA2        0.0000 
     10 NZ         12.2703   -8.9752   14.0010 N.2       4 LYS4        0.0000 
     11 DU         11.5631   -9.8142   15.0236 H         7 CUB7        0.0000 
     12 N          10.8559  -10.6533   16.0463 N.2       2 ALA2        0.0000 
     13 CA         10.1486  -11.4923   17.0689 C.3       6 GLY6        0.0000 
     14 O          11.0812   -9.0799   13.0927 O.2       2 ALA2        0.0000 
     15 DU         10.3739   -9.9189   14.1154 H         7 CUB7        0.0000 
     16 CA          9.6667  -10.7579   15.1380 C.3       6 GLY6        0.0000 
     17 NZ          9.8920   -9.1845   12.1845 N.2       4 LYS4        0.0000 
     18 NZ          9.1848  -10.0236   13.2071 N.2       4 LYS4        0.0000 
     19 CA          8.4775  -10.8626   14.2298 C.3       6 GLY6        0.0000 
     20 O          12.1425  -11.0532   14.4078 O.2       2 ALA2        0.0000 
     21 CA         11.4353  -11.8922   15.4305 C.3       6 GLY6        0.0000 
     22 OD1        10.9534  -11.1579   13.4996 O.3       3 ASP3        0.0000 
     23 O          10.2461  -11.9969   14.5222 O.2       2 ALA2        0.0000 
     24 N          11.5273  -10.6082   27.5483 N.2       2 ALA2        0.0000 
     25 CA         13.1671   -7.3567   22.5495 C.3       6 GLY6        0.0000 
     26 CA         12.4598   -8.1958   23.5721 C.3       6 GLY6        0.0000 
     27 CA         11.7526   -9.0348   24.5948 C.3       6 GLY6        0.0000 
     28 CA         11.0453   -9.8739   25.6174 C.3       6 GLY6        0.0000 
     29 NZ         10.3381  -10.7129   26.6401 N.2       4 LYS4        0.0000 
     30 NZ          9.6309  -11.5519   27.6627 N.2       4 LYS4        0.0000 
     31 OG         11.2707   -8.3004   22.6639 O.2       1 SER1        0.0000 
     32 CZ         10.5634   -9.1395   23.6865 C.ar      5 PHE5        0.0000 
     33 CZ          9.8562   -9.9785   24.7092 C.ar      5 PHE5        0.0000 
     34 CZ          9.1489  -10.8176   25.7318 C.ar      5 PHE5        0.0000 
     35 OG         10.7887   -7.5661   20.7329 O.2       1 SER1        0.0000 
     36 CZ         10.0815   -8.4051   21.7556 C.ar      5 PHE5        0.0000 
     37 NZ         10.3068   -6.8317   18.8020 N.2       4 LYS4        0.0000 
     38 CZ          9.5996   -7.6707   19.8247 C.ar      5 PHE5        0.0000 
     39 CA         10.5321   -5.2583   15.8484 C.3       6 GLY6        0.0000 
     40 CA          9.8249   -6.0973   16.8711 C.3       6 GLY6        0.0000 
     41 CA          9.1176   -6.9364   17.8938 C.3       6 GLY6        0.0000 
     42 CA          8.4104   -7.7754   18.9164 C.3       6 GLY6        0.0000 
     43 DU          9.3430   -5.3629   14.9402 H         7 CUB7        0.0000 
     44 DU          8.6357   -6.2020   15.9628 H         7 CUB7        0.0000 
     45 CA          7.9285   -7.0410   16.9855 C.3       6 GLY6        0.0000 
     46 CA          7.2213   -7.8801   18.0082 C.3       6 GLY6        0.0000 
     47 DU          7.4466   -6.3066   15.0546 H         7 CUB7        0.0000 
     48 DU          6.7393   -7.1457   16.0772 H         7 CUB7        0.0000 
     49 CA          6.0321   -7.9847   17.0999 C.3       6 GLY6        0.0000 
     50 O          13.0696   -6.8521   25.0962 O.2       2 ALA2        0.0000 
     51 CA         12.5877   -6.1178   23.1653 C.3       6 GLY6        0.0000 
     52 DU         11.8804   -6.9568   24.1879 H         7 CUB7        0.0000 
     53 CA         11.1732   -7.7958   25.2106 C.3       6 GLY6        0.0000 
     54 CA         10.4659   -8.6349   26.2333 C.3       6 GLY6        0.0000 
     55 NZ          9.7587   -9.4739   27.2559 N.2       4 LYS4        0.0000 
     56 NZ         11.3985   -6.2224   22.2570 N.2       4 LYS4        0.0000 
     57 CZ         10.6913   -7.0615   23.2797 C.ar      5 PHE5        0.0000 
     58 CZ          9.9840   -7.9005   24.3023 C.ar      5 PHE5        0.0000 
     59 CZ          9.2768   -8.7396   25.3250 C.ar      5 PHE5        0.0000 
     60 NZ          8.5695   -9.5786   26.3476 N.2       4 LYS4        0.0000 
     61 CA          9.2455   -4.8583   17.4869 C.3       6 GLY6        0.0000 
     62 CA          8.0563   -4.9630   16.5787 C.3       6 GLY6        0.0000 
     63 CA          7.3491   -5.8020   17.6013 C.3       6 GLY6        0.0000 
     64 CA          6.1599   -5.9067   16.6931 C.3       6 GLY6        0.0000 
     65 OG         10.6609   -9.6441   21.1398 O.2       1 SER1        0.0000 
     66 CZ          9.9537  -10.4831   22.1624 C.ar      5 PHE5        0.0000 
     67 NZ         12.3007   -6.3926   16.1409 N.2       4 LYS4        0.0000 
     68 NZ         11.5935   -7.2316   17.1635 N.2       4 LYS4        0.0000 
     69 OG         10.8862   -8.0707   18.1862 O.2       1 SER1        0.0000 
     70 OG         10.1790   -8.9097   19.2089 O.2       1 SER1        0.0000 
     71 CZ          9.4717   -9.7487   20.2315 C.ar      5 PHE5        0.0000 
     72 DU         11.1115   -6.4972   15.2326 H         7 CUB7        0.0000 
     73 DU         10.4043   -7.3363   16.2553 H         7 CUB7        0.0000 
     74 DU          9.6971   -8.1753   17.2779 H         7 CUB7        0.0000 
     75 O           8.9898   -9.0144   18.3006 O.2       2 ALA2        0.0000 
     76 O           8.2826   -9.8534   19.3232 O.2       2 ALA2        0.0000 
     77 DU          9.9224   -6.6019   14.3244 H         7 CUB7        0.0000 
     78 DU          9.2151   -7.4410   15.3470 H         7 CUB7        0.0000 
     79 DU          8.5079   -8.2800   16.3697 H         7 CUB7        0.0000 
     80 O           7.8007   -9.1190   17.3923 O.2       2 ALA2        0.0000 
     81 O           7.0934   -9.9581   18.4150 O.2       2 ALA2        0.0000 
     82 NZ          8.0260   -7.5456   14.4388 N.2       4 LYS4        0.0000 
     83 NZ          7.3187   -8.3847   15.4614 N.2       4 LYS4        0.0000 
     84 CA          6.6115   -9.2237   16.4841 C.3       6 GLY6        0.0000 
     85 OG         11.9475  -10.0440   19.5013 O.2       1 SER1        0.0000 
     86 CA         11.2403  -10.8830   20.5240 C.3       6 GLY6        0.0000 
     87 DU         12.8801   -7.6315   15.5251 H         7 CUB7        0.0000 
     88 OG         12.1729   -8.4706   16.5477 O.2       1 SER1        0.0000 
     89 OG         11.4656   -9.3096   17.5704 O.2       1 SER1        0.0000 
     90 OG         10.7584  -10.1487   18.5930 O.2       1 SER1        0.0000 
     91 O          10.0511  -10.9877   19.6157 O.2       2 ALA2        0.0000 
     92 DU         11.6909   -7.7362   14.6168 H         7 CUB7        0.0000 
     93 DU         10.9837   -8.5753   15.6395 H         7 CUB7        0.0000 
     94 DU         10.2765   -9.4143   16.6621 H         7 CUB7        0.0000 
     95 O           9.5692  -10.2533   17.6848 O.2       2 ALA2        0.0000 
     96 DU         10.5018   -7.8409   13.7085 H         7 CUB7        0.0000 
     97 DU          9.7945   -8.6799   14.7312 H         7 CUB7        0.0000 
     98 DU          9.0873   -9.5190   15.7539 H         7 CUB7        0.0000 
     99 O           8.3801  -10.3580   16.7765 O.2       2 ALA2        0.0000 
    100 NZ          9.3126   -7.9455   12.8003 N.2       4 LYS4        0.0000 
    101 NZ          8.6054   -8.7846   13.8229 N.2       4 LYS4        0.0000 
    102 NZ          7.8981   -9.6236   14.8456 N.2       4 LYS4        0.0000 
    103 CA          7.1909  -10.4627   15.8682 C.3       6 GLY6        0.0000 
@<TRIPOS>BOND
@<TRIPOS>SUBSTRUCTURE
     1 SER1        4 GROUP   
     2 ALA2        1 GROUP   
     3 ASP3       22 GROUP   
     4 LYS4        6 GROUP   
     5 PHE5       32 GROUP   
     6 GLY6       13 GROUP   
     7 CUB7       11 GROUP   
@<TRIPOS>SET

