#    Name: 3B3F_3_CAVITY_N1_6.mol2
#    Modification time : Tue Mar 11 10:37:15 2014

@<TRIPOS>MOLECULE
3B3F_3_CAVITY_N1_6.mol2
   55     0     6     0     0
SMALL
NO_CHARGES


@<TRIPOS>ATOM
      1 O          11.3010   -5.7178   24.8038 O.2       2 ALA2        0.0000 
      2 O          10.5938   -6.5569   25.8264 O.2       2 ALA2        0.0000 
      3 OG         11.8501   -9.5394   22.0480 O.2       1 SER1        0.0000 
      4 OG         11.1428  -10.3785   23.0707 O.2       1 SER1        0.0000 
      5 N          11.3378  -11.3876   17.9772 N.2       2 ALA2        0.0000 
      6 N          11.5273  -10.6082   27.5483 N.2       2 ALA2        0.0000 
      7 CA         13.1671   -7.3567   22.5495 C.3       5 GLY6        0.0000 
      8 CA         12.4598   -8.1958   23.5721 C.3       5 GLY6        0.0000 
      9 CA         11.7526   -9.0348   24.5948 C.3       5 GLY6        0.0000 
     10 CA         11.0453   -9.8739   25.6174 C.3       5 GLY6        0.0000 
     11 NZ         10.3381  -10.7129   26.6401 N.2       3 LYS4        0.0000 
     12 NZ          9.6309  -11.5519   27.6627 N.2       3 LYS4        0.0000 
     13 OG         11.2707   -8.3004   22.6639 O.2       1 SER1        0.0000 
     14 CZ         10.5634   -9.1395   23.6865 C.ar      4 PHE5        0.0000 
     15 CZ          9.8562   -9.9785   24.7092 C.ar      4 PHE5        0.0000 
     16 CZ          9.1489  -10.8176   25.7318 C.ar      4 PHE5        0.0000 
     17 OG         10.7887   -7.5661   20.7329 O.2       1 SER1        0.0000 
     18 CZ         10.0815   -8.4051   21.7556 C.ar      4 PHE5        0.0000 
     19 NZ         10.3068   -6.8317   18.8020 N.2       3 LYS4        0.0000 
     20 CZ          9.5996   -7.6707   19.8247 C.ar      4 PHE5        0.0000 
     21 CA          9.8249   -6.0973   16.8711 C.3       5 GLY6        0.0000 
     22 CA          9.1176   -6.9364   17.8938 C.3       5 GLY6        0.0000 
     23 CA          8.4104   -7.7754   18.9164 C.3       5 GLY6        0.0000 
     24 CA          7.2213   -7.8801   18.0082 C.3       5 GLY6        0.0000 
     25 O          13.0696   -6.8521   25.0962 O.2       2 ALA2        0.0000 
     26 CA         12.5877   -6.1178   23.1653 C.3       5 GLY6        0.0000 
     27 DU         11.8804   -6.9568   24.1879 H         6 CUB7        0.0000 
     28 CA         11.1732   -7.7958   25.2106 C.3       5 GLY6        0.0000 
     29 CA         10.4659   -8.6349   26.2333 C.3       5 GLY6        0.0000 
     30 NZ          9.7587   -9.4739   27.2559 N.2       3 LYS4        0.0000 
     31 NZ         11.3985   -6.2224   22.2570 N.2       3 LYS4        0.0000 
     32 CZ         10.6913   -7.0615   23.2797 C.ar      4 PHE5        0.0000 
     33 CZ          9.9840   -7.9005   24.3023 C.ar      4 PHE5        0.0000 
     34 CZ          9.2768   -8.7396   25.3250 C.ar      4 PHE5        0.0000 
     35 NZ          8.5695   -9.5786   26.3476 N.2       3 LYS4        0.0000 
     36 CA          9.2455   -4.8583   17.4869 C.3       5 GLY6        0.0000 
     37 OG         10.6609   -9.6441   21.1398 O.2       1 SER1        0.0000 
     38 CZ          9.9537  -10.4831   22.1624 C.ar      4 PHE5        0.0000 
     39 NZ         12.3007   -6.3926   16.1409 N.2       3 LYS4        0.0000 
     40 NZ         11.5935   -7.2316   17.1635 N.2       3 LYS4        0.0000 
     41 OG         10.8862   -8.0707   18.1862 O.2       1 SER1        0.0000 
     42 OG         10.1790   -8.9097   19.2089 O.2       1 SER1        0.0000 
     43 CZ          9.4717   -9.7487   20.2315 C.ar      4 PHE5        0.0000 
     44 DU         10.4043   -7.3363   16.2553 H         6 CUB7        0.0000 
     45 DU          9.6971   -8.1753   17.2779 H         6 CUB7        0.0000 
     46 O           8.9898   -9.0144   18.3006 O.2       2 ALA2        0.0000 
     47 O           8.2826   -9.8534   19.3232 O.2       2 ALA2        0.0000 
     48 OG         11.9475  -10.0440   19.5013 O.2       1 SER1        0.0000 
     49 CA         11.2403  -10.8830   20.5240 C.3       5 GLY6        0.0000 
     50 OG         12.1729   -8.4706   16.5477 O.2       1 SER1        0.0000 
     51 OG         11.4656   -9.3096   17.5704 O.2       1 SER1        0.0000 
     52 OG         10.7584  -10.1487   18.5930 O.2       1 SER1        0.0000 
     53 O          10.0511  -10.9877   19.6157 O.2       2 ALA2        0.0000 
     54 DU         10.2765   -9.4143   16.6621 H         6 CUB7        0.0000 
     55 O           9.5692  -10.2533   17.6848 O.2       2 ALA2        0.0000 
@<TRIPOS>BOND
@<TRIPOS>SUBSTRUCTURE
     1 SER1        3 GROUP   
     2 ALA2        1 GROUP   
     3 LYS4       11 GROUP   
     4 PHE5       14 GROUP   
     5 GLY6        7 GROUP   
     6 CUB7       27 GROUP   
@<TRIPOS>SET

