#    Name: 3b3f_SAH_3_INTS_M
#    Modification time : Mon Mar 24 18:50:30 2014

@<TRIPOS>MOLECULE
3b3f_SAH_3_INTS_M
   95     0    12     0     0
SMALL
NO_CHARGES


@<TRIPOS>ATOM
      1 O          13.9045  -10.7020   30.9415 O.2       1 ALC1        0.0000 
      2 O          14.5250  -11.6050   32.0190 O.2       9 ALL1        0.0000 
      3 O          13.2840   -9.7990   29.8640 O.2       5 ALP1        0.0000 
      4 O          14.7305  -10.7085   33.0830 O.2       1 ALC1        0.0000 
      5 O          14.9360   -9.8120   34.1470 O.2       5 ALP1        0.0000 
      6 CA         14.0355  -12.7725   34.5570 C.3       4 GLC5        0.0000 
      7 CA         13.4520  -12.5250   32.4970 C.3      12 GLL5        0.0000 
      8 CA         14.6190  -13.0200   36.6170 C.3       8 GLP5        0.0000 
      9 CA         11.2205  -14.5810   31.3375 C.3       4 GLC5        0.0000 
     10 CA         12.4890  -12.9050   31.3820 C.3      12 GLL5        0.0000 
     11 CA          9.9520  -16.2570   31.2930 C.3       8 GLP5        0.0000 
     12 CA         14.7415  -14.4950   29.9745 C.3       4 GLC5        0.0000 
     13 CA         13.1300  -13.5060   30.1170 C.3      12 GLL5        0.0000 
     14 CA         16.3530  -15.4840   29.8320 C.3       8 GLP5        0.0000 
     15 CA         10.2810  -15.2000   28.4775 C.3       4 GLC5        0.0000 
     16 CA         11.9140  -14.2500   28.9920 C.3      12 GLL5        0.0000 
     17 CA          8.6480  -16.1500   27.9630 C.3       8 GLP5        0.0000 
     18 NZ         15.1375  -15.1195   32.5620 N.4       3 LYC4        0.0000 
     19 NZ         15.3140  -13.9700   32.7960 N.4      11 LYL4        0.0000 
     20 NZ         15.3280  -17.1980   33.1940 N.4       7 LYP4        0.0000 
     21 N          15.1375  -15.1195   32.5620 N.am      2 SEC2        0.0000 
     22 N          15.3140  -13.9700   32.7960 N.am     10 SEL2        0.0000 
     23 N          14.9610  -16.2690   32.3280 N.am      6 SEP2        0.0000 
     24 NZ         14.2240  -15.4245   33.0585 N.4       3 LYC4        0.0000 
     25 NZ         13.4870  -14.5800   33.7890 N.4      11 LYL4        0.0000 
     26 N          14.3715  -15.7700   34.1460 N.am      2 SEC2        0.0000 
     27 N          13.4870  -14.5800   33.7890 N.am     10 SEL2        0.0000 
     28 N          15.2560  -16.9600   34.5030 N.am      6 SEP2        0.0000 
     29 N          14.2240  -15.4245   33.0585 N.am      2 SEC2        0.0000 
     30 CA         12.8340  -12.5720   26.1910 C.3       4 GLC5        0.0000 
     31 CA         11.9840  -13.0170   27.6710 C.3      12 GLL5        0.0000 
     32 CA         13.6840  -12.1270   24.7110 C.3       8 GLP5        0.0000 
     33 CA         12.1120   -9.9025   28.1655 C.3       4 GLC5        0.0000 
     34 CA         11.2150  -11.7570   28.0680 C.3      12 GLL5        0.0000 
     35 CA         13.0090   -8.0480   28.2630 C.3       8 GLP5        0.0000 
     36 CA         12.7205  -11.1925   26.7905 C.3       4 GLC5        0.0000 
     37 CA         14.2260  -10.6280   25.5130 C.3       8 GLP5        0.0000 
     38 CA          8.4450  -13.0915   27.7870 C.3       4 GLC5        0.0000 
     39 CA          9.7050  -11.9180   28.0510 C.3      12 GLL5        0.0000 
     40 CA          7.1850  -14.2650   27.5230 C.3       8 GLP5        0.0000 
     41 N           8.4780  -12.0985   30.4120 N.am      2 SEC2        0.0000 
     42 N           9.1780  -11.2870   29.2040 N.am     10 SEL2        0.0000 
     43 N           7.7780  -12.9100   31.6200 N.am      6 SEP2        0.0000 
     44 O           9.4045   -9.9455   29.4830 O.2       1 ALC1        0.0000 
     45 O           9.1780  -11.2870   29.2040 O.2       9 ALL1        0.0000 
     46 O           9.6310   -8.6040   29.7620 O.2       5 ALP1        0.0000 
     47 CA          8.7875  -11.7795   24.7460 C.3       4 GLC5        0.0000 
     48 CA          9.2560  -11.1800   26.7980 C.3      12 GLL5        0.0000 
     49 CA          8.3190  -12.3790   22.6940 C.3       8 GLP5        0.0000 
     50 CA          8.3570  -12.7870   26.4775 C.3       4 GLC5        0.0000 
     51 CA          7.4580  -14.3940   26.1570 C.3       8 GLP5        0.0000 
     52 O           7.8295   -9.5565   27.9195 O.2       1 ALC1        0.0000 
     53 O           8.0260  -10.5410   26.9910 O.2       9 ALL1        0.0000 
     54 O           7.6330   -8.5720   28.8480 O.2       5 ALP1        0.0000 
     55 CA         11.6570   -9.0720   27.4700 C.3       4 GLC5        0.0000 
     56 CA         10.3050  -10.0960   26.6770 C.3      12 GLL5        0.0000 
     57 CA         12.2655  -10.3620   26.0950 C.3       4 GLC5        0.0000 
     58 CA          9.3000   -6.4255   23.9455 C.3       4 GLC5        0.0000 
     59 CA         11.3090   -6.9270   23.0690 C.3      12 GLL5        0.0000 
     60 CA          7.2910   -5.9240   24.8220 C.3       8 GLP5        0.0000 
     61 CA         10.3950   -4.9460   22.9960 C.3       4 GLC5        0.0000 
     62 CA          9.4810   -2.9650   22.9230 C.3       8 GLP5        0.0000 
     63 CA         12.9880   -5.6335   22.6310 C.3       4 GLC5        0.0000 
     64 CA         14.6670   -4.3400   22.1930 C.3       8 GLP5        0.0000 
     65 CA         12.9925   -7.5225   21.8760 C.3       4 GLC5        0.0000 
     66 CA         14.6760   -8.1180   20.6830 C.3       8 GLP5        0.0000 
     67 O          12.5530   -7.4370   20.8310 O.2       1 ALC1        0.0000 
     68 O          11.6070   -6.8490   21.7660 O.2       9 ALL1        0.0000 
     69 O          13.4990   -8.0250   19.8960 O.2       5 ALP1        0.0000 
     70 O          11.6090   -5.7615   20.9545 O.2       1 ALC1        0.0000 
     71 O          11.6110   -4.6740   20.1430 O.2       5 ALP1        0.0000 
     72 N          11.5520   -4.3895   23.4180 N.am      2 SEC2        0.0000 
     73 N          11.2060   -5.7870   23.8290 N.am     10 SEL2        0.0000 
     74 N          11.8980   -2.9920   23.0070 N.am      6 SEP2        0.0000 
     75 CA         11.9560   -6.9555   26.7200 C.3       4 GLC5        0.0000 
     76 CA         10.9030   -5.8630   25.1770 C.3      12 GLL5        0.0000 
     77 CA         11.5780   -4.1440   26.0375 C.3       4 GLC5        0.0000 
     78 CA         12.2530   -2.4250   26.8980 C.3       8 GLP5        0.0000 
     79 CA         10.2340   -5.5495   27.0805 C.3       4 GLC5        0.0000 
     80 CA          9.5650   -5.2360   28.9840 C.3       8 GLP5        0.0000 
     81 CA          9.0970   -5.8935   24.9995 C.3       4 GLC5        0.0000 
     82 CA         10.1920   -4.4140   24.0500 C.3       4 GLC5        0.0000 
     83 N           9.3630   -6.3850   26.4595 N.am      2 SEC2        0.0000 
     84 N          10.6860   -7.0920   25.7690 N.am     10 SEL2        0.0000 
     85 N           8.0400   -5.6780   27.1500 N.am      6 SEP2        0.0000 
     86 CA         11.8920   -8.1385   26.6430 C.3       4 GLC5        0.0000 
     87 CA         10.7750   -8.2290   25.0230 C.3      12 GLL5        0.0000 
     88 CA          9.0330   -7.0765   24.9225 C.3       4 GLC5        0.0000 
     89 CA         11.4578  -11.4300   32.3197 C.3       4 GLC5        0.0000 
     90 CA          9.9450  -10.1450   32.7000 C.3       8 GLP5        0.0000 
     91 CA         11.9005  -15.5260   30.0403 C.3       4 GLC5        0.0000 
     92 CA         11.2790  -17.1740   30.5260 C.3       8 GLP5        0.0000 
     93 CA          8.6378   -9.8330   25.1258 C.3       4 GLC5        0.0000 
     94 CA          7.4950   -9.0280   23.5140 C.3       8 GLP5        0.0000 
     95 CA         12.5798   -9.4127   24.9295 C.3       4 GLC5        0.0000 
@<TRIPOS>BOND
@<TRIPOS>SUBSTRUCTURE
     1 ALC1        1 GROUP        1 X    ALC  0     ROOT ALC X 1
     2 SEC2       21 GROUP        1 X    SEC  0     **** SEC X 2
     3 LYC4       18 GROUP        1 X    LYC  0     **** LYC X 4
     4 GLC5        6 GROUP        1 X    GLC  0     **** GLC X 6
     5 ALP1        3 GROUP        1 Y    ALP  0     ROOT ALP Y 8
     6 SEP2       23 GROUP        1 Y    SEP  0     **** SEP Y 9
     7 LYP4       20 GROUP        1 Y    LYP  0     **** LYP Y 11
     8 GLP5        8 GROUP        1 Y    GLP  0     **** GLP Y 13
     9 ALL1        2 GROUP        1 Z    ALL  0     ROOT ALL Z 15
    10 SEL2       22 GROUP        1 Z    SEL  0     **** SEL Z 16
    11 LYL4       19 GROUP        1 Z    LYL  0     **** LYL Z 18
    12 GLL5        7 GROUP        1 Z    GLL  0     **** GLL Z 20
@<TRIPOS>SET

