#    Name: 3b3f_SAH_3_ligand
#    Modification time : Mon Mar 24 18:50:30 2014

@<TRIPOS>MOLECULE
3b3f_SAH_3_ligand
   46    48     1     0     0
SMALL
NO_CHARGES


@<TRIPOS>ATOM
      1 N          14.5250  -11.6050   32.0190 N.4       1 SAH481      0.0000 
      2 CA         13.4520  -12.5250   32.4970 C.3       1 SAH481      0.0000 
      3 CB         12.4890  -12.9050   31.3820 C.3       1 SAH481      0.0000 
      4 CG         13.1300  -13.5060   30.1170 C.3       1 SAH481      0.0000 
      5 SD         11.9140  -14.2500   28.9920 S.3       1 SAH481      0.0000 
      6 C          14.1120  -13.7750   33.0660 C.2       1 SAH481      0.0000 
      7 O          15.3140  -13.9700   32.7960 O.co2     1 SAH481      0.0000 
      8 OXT        13.4870  -14.5800   33.7890 O.co2     1 SAH481      0.0000 
      9 C5'        11.9840  -13.0170   27.6710 C.3       1 SAH481      0.0000 
     10 C4'        11.2150  -11.7570   28.0680 C.3       1 SAH481      0.0000 
     11 O4'        11.4920  -10.7090   27.1550 O.3       1 SAH481      0.0000 
     12 C3'         9.7050  -11.9180   28.0510 C.3       1 SAH481      0.0000 
     13 O3'         9.1780  -11.2870   29.2040 O.3       1 SAH481      0.0000 
     14 C2'         9.2560  -11.1800   26.7980 C.3       1 SAH481      0.0000 
     15 O2'         8.0260  -10.5410   26.9910 O.3       1 SAH481      0.0000 
     16 C1'        10.3050  -10.0960   26.6770 C.3       1 SAH481      0.0000 
     17 N9         10.6000   -9.5640   25.3260 N.pl3     1 SAH481      0.0000 
     18 C8         10.8300  -10.2900   24.1770 C.2       1 SAH481      0.0000 
     19 N7         11.1170   -9.4260   23.1790 N.2       1 SAH481      0.0000 
     20 C5         11.0920   -8.1660   23.6690 C.ar      1 SAH481      0.0000 
     21 C6         11.3090   -6.9270   23.0690 C.ar      1 SAH481      0.0000 
     22 N6         11.6070   -6.8490   21.7660 N.pl3     1 SAH481      0.0000 
     23 N1         11.2060   -5.7870   23.8290 N.ar      1 SAH481      0.0000 
     24 C2         10.9030   -5.8630   25.1770 C.ar      1 SAH481      0.0000 
     25 N3         10.6860   -7.0920   25.7690 N.ar      1 SAH481      0.0000 
     26 C4         10.7750   -8.2290   25.0230 C.ar      1 SAH481      0.0000 
     27 H          12.8982  -12.0490   33.2936 H         1 SAH481      0.0000 
     28 H          11.9069  -12.0076   31.0850 H         1 SAH481      0.0000 
     29 H          11.7477  -13.6315   31.7759 H         1 SAH481      0.0000 
     30 H          13.7861  -14.3279   30.3249 H         1 SAH481      0.0000 
     31 H          13.6037  -12.7735   29.4940 H         1 SAH481      0.0000 
     32 H          11.5545  -13.5359   26.8472 H         1 SAH481      0.0000 
     33 H          13.0302  -12.8590   27.5572 H         1 SAH481      0.0000 
     34 H          11.5097  -11.4658   29.0688 H         1 SAH481      0.0000 
     35 H           9.4679  -12.9321   27.9649 H         1 SAH481      0.0000 
     36 H           9.3199  -11.8067   25.9760 H         1 SAH481      0.0000 
     37 H          10.0399   -9.2866   27.3500 H         1 SAH481      0.0000 
     38 H          10.7893  -11.2462   24.1134 H         1 SAH481      0.0000 
     39 H          12.1427   -7.6056   21.3910 H         1 SAH481      0.0000 
     40 H          11.2672   -6.0410   21.2845 H         1 SAH481      0.0000 
     41 H          10.8394   -5.0007   25.7392 H         1 SAH481      0.0000 
     42 H          14.8414  -10.9945   32.7450 H         1 SAH481      0.0000 
     43 H          15.3246  -12.1067   31.6889 H         1 SAH481      0.0000 
     44 H          14.2103  -11.0268   31.2662 H         1 SAH481      0.0000 
     45 H           9.4649  -10.3319   29.1301 H         1 SAH481      0.0000 
     46 H           8.1863   -9.8899   27.7329 H         1 SAH481      0.0000 
@<TRIPOS>BOND
     1    2    1 1    
     2   42    1 1    
     3   43    1 1    
     4   44    1 1    
     5    3    2 1    
     6    6    2 1    
     7   27    2 1    
     8    4    3 1    
     9   28    3 1    
    10   29    3 1    
    11    5    4 1    
    12   30    4 1    
    13   31    4 1    
    14    9    5 1    
    15    7    6 ar   
    16    8    6 ar   
    17   10    9 1    
    18   32    9 1    
    19   33    9 1    
    20   11   10 1    
    21   12   10 1    
    22   34   10 1    
    23   16   11 1    
    24   13   12 1    
    25   14   12 1    
    26   35   12 1    
    27   45   13 1    
    28   15   14 1    
    29   16   14 1    
    30   36   14 1    
    31   46   15 1    
    32   17   16 1    
    33   37   16 1    
    34   18   17 1    
    35   26   17 1    
    36   19   18 2    
    37   38   18 1    
    38   20   19 1    
    39   21   20 ar   
    40   26   20 ar   
    41   22   21 1    
    42   23   21 ar   
    43   39   22 1    
    44   40   22 1    
    45   24   23 ar   
    46   25   24 ar   
    47   41   24 1    
    48   26   25 ar   
@<TRIPOS>SUBSTRUCTURE
     1 SAH481      1 GROUP   
@<TRIPOS>SET

