#    Name: 3bgb_LJG_1_INTS_M
#    Modification time : Mon Mar 24 19:26:09 2014

@<TRIPOS>MOLECULE
3bgb_LJG_1_INTS_M
   94     0    12     0     0
SMALL
NO_CHARGES


@<TRIPOS>ATOM
      1 OD1        14.2995  -17.0540  -18.1785 O.co2     3 ASC3        0.0000 
      2 OD1        13.4870  -18.6170  -17.9370 O.co2    11 ASL3        0.0000 
      3 OD1        15.1120  -15.4910  -18.4200 O.co2     7 ASP3        0.0000 
      4 OD1        14.1865  -17.6085  -17.2455 O.co2     3 ASC3        0.0000 
      5 OD1        14.8860  -16.6000  -16.5540 O.co2     7 ASP3        0.0000 
      6 OD1        14.5530  -17.7665  -19.2255 O.co2     3 ASC3        0.0000 
      7 OD1        15.6190  -16.9160  -20.5140 O.co2     7 ASP3        0.0000 
      8 OD1        13.7680  -18.4745  -19.5155 O.co2     3 ASC3        0.0000 
      9 OD1        14.0490  -18.3320  -21.0940 O.co2     7 ASP3        0.0000 
     10 CA         12.6705  -16.3480  -19.8380 C.3       4 GLC5        0.0000 
     11 CA         12.3890  -18.1910  -18.8500 C.3      12 GLL5        0.0000 
     12 CA         12.9520  -14.5050  -20.8260 C.3       8 GLP5        0.0000 
     13 CA         11.2605  -15.6860  -17.7995 C.3       4 GLC5        0.0000 
     14 CA         11.1410  -17.6480  -18.1310 C.3      12 GLL5        0.0000 
     15 CA         11.3800  -13.7240  -17.4680 C.3       8 GLP5        0.0000 
     16 CA          8.7010  -18.3820  -22.8930 C.3       4 GLC5        0.0000 
     17 CA          8.9960  -17.6440  -20.9120 C.3      12 GLL5        0.0000 
     18 CA          8.4060  -19.1200  -24.8740 C.3       8 GLP5        0.0000 
     19 CA          6.3625  -16.9550  -13.4430 C.3       4 GLC5        0.0000 
     20 CA          7.6470  -16.2860  -14.7590 C.3      12 GLL5        0.0000 
     21 CA          5.0780  -17.6240  -12.1270 C.3       8 GLP5        0.0000 
     22 CA         13.3460  -24.0090  -15.5645 C.3       4 GLC5        0.0000 
     23 CA         14.3970  -22.2320  -15.7470 C.3      12 GLL5        0.0000 
     24 CA         12.2950  -25.7860  -15.3820 C.3       8 GLP5        0.0000 
     25 CA         13.7255  -22.9485  -11.7650 C.3       4 GLC5        0.0000 
     26 CA         13.7870  -22.0200  -13.2770 C.3      12 GLL5        0.0000 
     27 CA         13.6640  -23.8770  -10.2530 C.3       8 GLP5        0.0000 
     28 CA         12.1485  -22.7325  -13.1300 C.3       4 GLC5        0.0000 
     29 CA         10.5100  -23.4450  -12.9830 C.3       8 GLP5        0.0000 
     30 CA         13.6350  -25.1580  -17.0625 C.3       4 GLC5        0.0000 
     31 CA         14.9750  -24.5300  -18.7430 C.3      12 GLL5        0.0000 
     32 CA         15.6830  -20.2185  -20.1410 C.3       4 GLC5        0.0000 
     33 CA         14.3760  -19.6080  -18.6030 C.3      12 GLL5        0.0000 
     34 CA         16.9900  -20.8290  -21.6790 C.3       8 GLP5        0.0000 
     35 CA         16.4825  -20.7170  -19.1055 C.3       4 GLC5        0.0000 
     36 CA         14.9670  -20.6810  -17.6800 C.3      12 GLL5        0.0000 
     37 CA         17.9980  -20.7530  -20.5310 C.3       8 GLP5        0.0000 
     38 N          11.7145  -23.8055  -15.7215 N.am      2 SEC2        0.0000 
     39 N          12.4210  -23.4820  -17.2740 N.am     10 SEL2        0.0000 
     40 N          11.0080  -24.1290  -14.1690 N.am      6 SEP2        0.0000 
     41 CA         12.9240  -22.1770  -21.7525 C.3       4 GLC5        0.0000 
     42 CA         14.2920  -23.0550  -20.5450 C.3      12 GLL5        0.0000 
     43 CA         11.5560  -21.2990  -22.9600 C.3       8 GLP5        0.0000 
     44 CA         14.7710  -22.1315  -22.8555 C.3       4 GLC5        0.0000 
     45 CA         15.1540  -23.7260  -21.4150 C.3      12 GLL5        0.0000 
     46 CA         14.3880  -20.5370  -24.2960 C.3       8 GLP5        0.0000 
     47 CA         14.8910  -26.5355  -21.0820 C.3       4 GLC5        0.0000 
     48 CA         15.9320  -24.7900  -20.9530 C.3      12 GLL5        0.0000 
     49 CA         13.8500  -28.2810  -21.2110 C.3       8 GLP5        0.0000 
     50 O          17.2570  -24.5085  -22.9365 O.2       1 ALC1        0.0000 
     51 O          16.8150  -25.4410  -21.8430 O.2       9 ALL1        0.0000 
     52 O          17.6990  -23.5760  -24.0300 O.2       5 ALP1        0.0000 
     53 CA         15.6780  -27.1765  -19.5725 C.3       4 GLC5        0.0000 
     54 CA         15.8090  -25.2190  -19.6270 C.3      12 GLL5        0.0000 
     55 CA         15.5470  -29.1340  -19.5180 C.3       8 GLP5        0.0000 
     56 CA         17.2365  -19.2565  -14.5650 C.3       4 GLC5        0.0000 
     57 CA         15.4300  -20.3810  -14.3150 C.3      12 GLL5        0.0000 
     58 CA         19.0430  -18.1320  -14.8150 C.3       8 GLP5        0.0000 
     59 CA         12.1945  -17.4065  -13.7535 C.3       4 GLC5        0.0000 
     60 CA         10.3350  -17.0830  -14.5910 C.3      12 GLL5        0.0000 
     61 CA         14.0540  -17.7300  -12.9160 C.3       8 GLP5        0.0000 
     62 O           9.3470  -13.4310  -13.1225 O.2       1 ALC1        0.0000 
     63 O           8.1300  -14.3980  -13.3090 O.2       9 ALL1        0.0000 
     64 O          10.5640  -12.4640  -12.9360 O.2       5 ALP1        0.0000 
     65 CA          7.4645  -21.3665  -21.0940 C.3       4 GLC5        0.0000 
     66 CA          8.8550  -20.1690  -21.1360 C.3      12 GLL5        0.0000 
     67 CA          6.0740  -22.5640  -21.0520 C.3       8 GLP5        0.0000 
     68 CA          8.6305  -19.6445  -23.0050 C.3       4 GLC5        0.0000 
     69 CA         10.0090  -17.2620  -22.0377 C.3       4 GLC5        0.0000 
     70 CA          9.4880  -19.0040  -20.3330 C.3      12 GLL5        0.0000 
     71 CA         10.7760  -16.2000  -23.4530 C.3       8 GLP5        0.0000 
     72 CA         10.1643  -18.8445  -13.4407 C.3       4 GLC5        0.0000 
     73 CA          9.4260  -17.7770  -15.3940 C.3      12 GLL5        0.0000 
     74 CA         10.4480  -20.2590  -11.8890 C.3       8 GLP5        0.0000 
     75 CA          8.2323  -16.5333  -12.3773 C.3       4 GLC5        0.0000 
     76 CA          9.9050  -15.9360  -13.9170 C.3      12 GLL5        0.0000 
     77 CA          7.2290  -17.3260  -10.7910 C.3       8 GLP5        0.0000 
     78 CA         12.9388  -24.6692  -19.9195 C.3       4 GLC5        0.0000 
     79 CA         14.2180  -23.4470  -19.2050 C.3      12 GLL5        0.0000 
     80 CA         11.2810  -25.3500  -20.8650 C.3       8 GLP5        0.0000 
     81 CA         16.4047  -18.8818  -18.2488 C.3       4 GLC5        0.0000 
     82 CA         18.1380  -17.6190  -18.3560 C.3       8 GLP5        0.0000 
     83 CA         13.0020  -24.3702  -20.9225 C.3       4 GLC5        0.0000 
     84 CA         15.0410  -25.0435  -22.6600 C.3       4 GLC5        0.0000 
     85 CA         14.5390  -25.8290  -24.1360 C.3       8 GLP5        0.0000 
     86 CA         16.1587  -22.4596  -21.3227 C.3       4 GLC5        0.0000 
     87 CA         15.8574  -20.7513  -12.7722 C.3       4 GLC5        0.0000 
     88 CA         17.0150  -20.4980  -11.4260 C.3       8 GLP5        0.0000 
     89 CA         14.3769  -19.3673  -13.5173 C.3       4 GLC5        0.0000 
     90 CA         10.7255  -15.0046  -15.1465 C.3       4 GLC5        0.0000 
     91 CA         12.1080  -13.9820  -16.1610 C.3       8 GLP5        0.0000 
     92 CA         10.2600  -15.9861  -12.2540 C.3       4 GLC5        0.0000 
     93 CA         11.1770  -15.9450  -10.3760 C.3       8 GLP5        0.0000 
     94 CA         10.3637  -20.4428  -21.8473 C.3       4 GLC5        0.0000 
@<TRIPOS>BOND
@<TRIPOS>SUBSTRUCTURE
     1 ALC1       50 GROUP        1 X    ALC  0     ROOT ALC X 1
     2 SEC2       38 GROUP        1 X    SEC  0     **** SEC X 2
     3 ASC3        1 GROUP        1 X    ASC  0     **** ASC X 3
     4 GLC5       10 GROUP        1 X    GLC  0     **** GLC X 6
     5 ALP1       52 GROUP        1 Y    ALP  0     ROOT ALP Y 8
     6 SEP2       40 GROUP        1 Y    SEP  0     **** SEP Y 9
     7 ASP3        3 GROUP        1 Y    ASP  0     **** ASP Y 10
     8 GLP5       12 GROUP        1 Y    GLP  0     **** GLP Y 13
     9 ALL1       51 GROUP        1 Z    ALL  0     ROOT ALL Z 15
    10 SEL2       39 GROUP        1 Z    SEL  0     **** SEL Z 16
    11 ASL3        2 GROUP        1 Z    ASL  0     **** ASL Z 17
    12 GLL5       11 GROUP        1 Z    GLL  0     **** GLL Z 20
@<TRIPOS>SET

