#    Name: 3bgb_LJG_1_ligand
#    Modification time : Mon Mar 24 19:26:09 2014

@<TRIPOS>MOLECULE
3bgb_LJG_1_ligand
   73    74     1     0     0
SMALL
NO_CHARGES


@<TRIPOS>ATOM
      1 N1         13.4870  -18.6170  -17.9370 N.4       1 LJG2501     0.0000 
      2 C5         12.3890  -18.1910  -18.8500 C.3       1 LJG2501     0.0000 
      3 C6         11.1410  -17.6480  -18.1310 C.3       1 LJG2501     0.0000 
      4 C8          9.1060  -19.1030  -18.8250 C.3       1 LJG2501     0.0000 
      5 C10         8.9960  -17.6440  -20.9120 C.3       1 LJG2501     0.0000 
      6 C13         9.4260  -17.7770  -15.3940 C.ar      1 LJG2501     0.0000 
      7 C15         7.6470  -16.2860  -14.7590 C.ar      1 LJG2501     0.0000 
      8 C17         9.9050  -15.9360  -13.9170 C.ar      1 LJG2501     0.0000 
      9 C22        14.3970  -22.2320  -15.7470 C.3       1 LJG2501     0.0000 
     10 C24        13.7870  -22.0200  -13.2770 C.3       1 LJG2501     0.0000 
     11 C28        14.9750  -24.5300  -18.7430 C.ar      1 LJG2501     0.0000 
     12 C2         14.3760  -19.6080  -18.6030 C.3       1 LJG2501     0.0000 
     13 C3         14.9670  -20.6810  -17.6800 C.3       1 LJG2501     0.0000 
     14 N4         14.1930  -21.7880  -17.1510 N.pl3     1 LJG2501     0.0000 
     15 S26        13.1130  -22.5420  -18.1440 S.o2      1 LJG2501     0.0000 
     16 O35        12.4210  -23.4820  -17.2740 O.2       1 LJG2501     0.0000 
     17 O34        12.3090  -21.6700  -18.9570 O.2       1 LJG2501     0.0000 
     18 C27        14.2180  -23.4470  -19.2050 C.ar      1 LJG2501     0.0000 
     19 C32        14.2920  -23.0550  -20.5450 C.ar      1 LJG2501     0.0000 
     20 C31        15.1540  -23.7260  -21.4150 C.ar      1 LJG2501     0.0000 
     21 C30        15.9320  -24.7900  -20.9530 C.ar      1 LJG2501     0.0000 
     22 N33        16.8150  -25.4410  -21.8430 N.pl3     1 LJG2501     0.0000 
     23 C29        15.8090  -25.2190  -19.6270 C.ar      1 LJG2501     0.0000 
     24 C23        14.1520  -21.2360  -14.5670 C.3       1 LJG2501     0.0000 
     25 C25        15.4300  -20.3810  -14.3150 C.3       1 LJG2501     0.0000 
     26 N7         10.0890  -18.6200  -17.8590 N.pl3     1 LJG2501     0.0000 
     27 S12         9.9690  -19.2140  -16.3060 S.o2      1 LJG2501     0.0000 
     28 O21         8.8840  -20.1610  -16.3150 O.2       1 LJG2501     0.0000 
     29 O20        11.2840  -19.5210  -15.8610 O.2       1 LJG2501     0.0000 
     30 C18        10.3350  -17.0830  -14.5910 C.ar      1 LJG2501     0.0000 
     31 C16         8.5660  -15.5450  -14.0100 C.ar      1 LJG2501     0.0000 
     32 N19         8.1300  -14.3980  -13.3090 N.pl3     1 LJG2501     0.0000 
     33 C14         8.0860  -17.4030  -15.4800 C.ar      1 LJG2501     0.0000 
     34 C9          9.4880  -19.0040  -20.3330 C.3       1 LJG2501     0.0000 
     35 C11         8.8550  -20.1690  -21.1360 C.3       1 LJG2501     0.0000 
     36 H          12.0749  -19.0416  -19.4850 H         1 LJG2501     0.0000 
     37 H          12.7549  -17.4062  -19.5398 H         1 LJG2501     0.0000 
     38 H          10.7435  -16.8045  -18.7476 H         1 LJG2501     0.0000 
     39 H          11.4867  -17.1705  -17.1812 H         1 LJG2501     0.0000 
     40 H           8.1338  -18.5592  -18.7023 H         1 LJG2501     0.0000 
     41 H           8.8537  -20.1766  -18.6261 H         1 LJG2501     0.0000 
     42 H           6.6618  -16.0151  -14.7807 H         1 LJG2501     0.0000 
     43 H          10.5643  -15.3878  -13.3608 H         1 LJG2501     0.0000 
     44 H          15.4502  -22.6268  -15.6238 H         1 LJG2501     0.0000 
     45 H          13.7568  -23.1419  -15.5407 H         1 LJG2501     0.0000 
     46 H          14.9169  -24.8149  -17.7616 H         1 LJG2501     0.0000 
     47 H          15.2191  -19.0814  -19.1011 H         1 LJG2501     0.0000 
     48 H          13.8210  -20.1233  -19.4171 H         1 LJG2501     0.0000 
     49 H          15.4665  -20.1146  -16.8081 H         1 LJG2501     0.0000 
     50 H          15.8988  -21.0923  -18.2214 H         1 LJG2501     0.0000 
     51 H          13.7168  -22.2798  -20.8860 H         1 LJG2501     0.0000 
     52 H          15.2163  -23.4358  -22.3993 H         1 LJG2501     0.0000 
     53 H          16.6628  -26.4203  -21.9762 H         1 LJG2501     0.0000 
     54 H          17.5174  -24.8672  -22.2643 H         1 LJG2501     0.0000 
     55 H          16.3323  -26.0407  -19.3043 H         1 LJG2501     0.0000 
     56 H          13.3460  -20.5884  -14.8223 H         1 LJG2501     0.0000 
     57 H          11.2961  -17.4075  -14.4979 H         1 LJG2501     0.0000 
     58 H           7.1811  -14.4093  -12.9937 H         1 LJG2501     0.0000 
     59 H           8.8074  -13.6724  -13.1878 H         1 LJG2501     0.0000 
     60 H           7.4344  -17.9319  -16.0573 H         1 LJG2501     0.0000 
     61 H          10.5506  -19.0505  -20.4256 H         1 LJG2501     0.0000 
     62 H           9.4048  -16.8669  -20.4334 H         1 LJG2501     0.0000 
     63 H           9.2276  -17.5469  -21.8800 H         1 LJG2501     0.0000 
     64 H           8.0037  -17.5455  -20.8367 H         1 LJG2501     0.0000 
     65 H          14.5159  -22.6485  -13.0056 H         1 LJG2501     0.0000 
     66 H          13.6251  -21.4074  -12.5034 H         1 LJG2501     0.0000 
     67 H          12.9582  -22.5665  -13.3966 H         1 LJG2501     0.0000 
     68 H          16.2172  -20.9506  -14.0787 H         1 LJG2501     0.0000 
     69 H          15.6854  -19.8482  -15.1217 H         1 LJG2501     0.0000 
     70 H          15.3012  -19.7329  -13.5644 H         1 LJG2501     0.0000 
     71 H           9.0872  -20.1197  -22.1074 H         1 LJG2501     0.0000 
     72 H           9.1658  -21.0600  -20.8052 H         1 LJG2501     0.0000 
     73 H           7.8570  -20.1646  -21.0726 H         1 LJG2501     0.0000 
@<TRIPOS>BOND
     1    2    1 1    
     2   12    1 1    
     3    3    2 1    
     4   36    2 1    
     5   37    2 1    
     6   26    3 1    
     7   38    3 1    
     8   39    3 1    
     9   26    4 1    
    10   34    4 1    
    11   40    4 1    
    12   41    4 1    
    13   34    5 1    
    14   62    5 1    
    15   63    5 1    
    16   64    5 1    
    17   27    6 1    
    18   30    6 ar   
    19   33    6 ar   
    20   31    7 ar   
    21   33    7 ar   
    22   42    7 1    
    23   30    8 ar   
    24   31    8 ar   
    25   43    8 1    
    26   14    9 1    
    27   24    9 1    
    28   44    9 1    
    29   45    9 1    
    30   24   10 1    
    31   65   10 1    
    32   66   10 1    
    33   67   10 1    
    34   18   11 ar   
    35   23   11 ar   
    36   46   11 1    
    37   13   12 1    
    38   47   12 1    
    39   48   12 1    
    40   14   13 1    
    41   49   13 1    
    42   50   13 1    
    43   15   14 1    
    44   16   15 2    
    45   17   15 2    
    46   18   15 1    
    47   19   18 ar   
    48   20   19 ar   
    49   51   19 1    
    50   21   20 ar   
    51   52   20 1    
    52   22   21 1    
    53   23   21 ar   
    54   53   22 1    
    55   54   22 1    
    56   55   23 1    
    57   25   24 1    
    58   56   24 1    
    59   68   25 1    
    60   69   25 1    
    61   70   25 1    
    62   27   26 1    
    63   28   27 2    
    64   29   27 2    
    65   57   30 1    
    66   32   31 1    
    67   58   32 1    
    68   59   32 1    
    69   60   33 1    
    70   35   34 1    
    71   61   34 1    
    72   71   35 1    
    73   72   35 1    
    74   73   35 1    
@<TRIPOS>SUBSTRUCTURE
     1 LJG2501     1 GROUP   
@<TRIPOS>SET

