#    Name: 1xcb_NAD_5_INTS_M
#    Modification time : Tue Mar 25 09:43:40 2014

@<TRIPOS>MOLECULE
1xcb_NAD_5_INTS_M
  108     0    12     0     0
SMALL
NO_CHARGES


@<TRIPOS>ATOM
      1 NZ         25.6545   66.3520   14.7795 N.4       3 LYC4        0.0000 
      2 NZ         27.1390   66.1940   15.5900 N.4      11 LYL4        0.0000 
      3 NZ         24.1700   66.5100   13.9690 N.4       7 LYP4        0.0000 
      4 N          27.4865   64.6840   15.7675 N.am      2 SEC2        0.0000 
      5 N          27.1390   66.1940   15.5900 N.am     10 SEL2        0.0000 
      6 N          27.8340   63.1740   15.9450 N.am      6 SEP2        0.0000 
      7 CA         33.4120   65.7750   16.5565 C.3       4 GLC5        0.0000 
      8 CA         31.6760   66.8940   16.8860 C.3      12 GLL5        0.0000 
      9 CA         35.1480   64.6560   16.2270 C.3       8 GLP5        0.0000 
     10 CA         30.4800   65.6120   17.8470 C.3       4 GLC5        0.0000 
     11 CA         31.2740   67.3060   18.3360 C.3      12 GLL5        0.0000 
     12 CA         29.6860   63.9180   17.3580 C.3       8 GLP5        0.0000 
     13 N          30.4520   66.0370   19.9905 N.am      2 SEC2        0.0000 
     14 N          31.1800   66.0860   19.1110 N.am     10 SEL2        0.0000 
     15 N          29.7240   65.9880   20.8700 N.am      6 SEP2        0.0000 
     16 O          32.4980   65.8060   19.5585 O.2       1 ALC1        0.0000 
     17 O          31.1800   66.0860   19.1110 O.2       9 ALL1        0.0000 
     18 O          33.8160   65.5260   20.0060 O.2       5 ALP1        0.0000 
     19 CA         32.2360   69.8670   20.1490 C.3       4 GLC5        0.0000 
     20 CA         32.3530   68.2460   18.8480 C.3      12 GLL5        0.0000 
     21 CA         32.1190   71.4880   21.4500 C.3       8 GLP5        0.0000 
     22 O          33.5350   67.5030   20.9585 O.2       1 ALC1        0.0000 
     23 O          32.6340   68.2470   20.2030 O.2       9 ALL1        0.0000 
     24 O          34.4360   66.7590   21.7140 O.2       5 ALP1        0.0000 
     25 O          33.2250   66.8865   20.1045 O.2       1 ALC1        0.0000 
     26 CA         34.3375   66.2715   17.0735 C.3       4 GLC5        0.0000 
     27 CA         33.5270   67.8870   17.9200 C.3      12 GLL5        0.0000 
     28 CA         34.8370   67.6415   16.3280 C.3       4 GLC5        0.0000 
     29 CA         36.1470   67.3960   14.7360 C.3       8 GLP5        0.0000 
     30 CA         33.0700   68.9430   15.9950 C.3       4 GLC5        0.0000 
     31 CA         32.6130   69.9990   14.0700 C.3       8 GLP5        0.0000 
     32 N          34.2325   72.2720   17.4160 N.am      2 SEC2        0.0000 
     33 N          35.2320   71.0460   17.0920 N.am     10 SEL2        0.0000 
     34 N          33.2330   73.4980   17.7400 N.am      6 SEP2        0.0000 
     35 CA         38.9120   66.7360   17.1335 C.3       4 GLC5        0.0000 
     36 CA         37.9380   68.1140   18.1260 C.3      12 GLL5        0.0000 
     37 CA         39.8860   65.3580   16.1410 C.3       8 GLP5        0.0000 
     38 CA         37.5125   66.7700   19.5550 C.3       4 GLC5        0.0000 
     39 CA         37.0870   65.4260   20.9840 C.3       8 GLP5        0.0000 
     40 CA         38.1770   69.1790   19.5080 C.3       4 GLC5        0.0000 
     41 CA         38.4160   70.2440   20.8900 C.3       8 GLP5        0.0000 
     42 CA         39.2580   67.6745   19.4540 C.3       4 GLC5        0.0000 
     43 CA         40.5780   67.2350   20.7820 C.3       8 GLP5        0.0000 
     44 CA         37.0425   67.7550   16.4310 C.3       4 GLC5        0.0000 
     45 CA         36.4250   69.5830   19.6560 C.3       4 GLC5        0.0000 
     46 CA         35.7650   68.9600   17.7440 C.3      12 GLL5        0.0000 
     47 CA         37.0850   70.2060   21.5680 C.3       8 GLP5        0.0000 
     48 N          26.6870   67.1890   13.4435 N.am      2 SEC2        0.0000 
     49 N          28.4060   67.1050   13.6500 N.am     10 SEL2        0.0000 
     50 N          24.9680   67.2730   13.2370 N.am      6 SEP2        0.0000 
     51 NZ         26.0730   66.7405   12.3580 N.4       3 LYC4        0.0000 
     52 NZ         27.1780   66.2080   11.4790 N.4      11 LYL4        0.0000 
     53 N          26.0730   66.7405   12.3580 N.am      2 SEC2        0.0000 
     54 N          27.1780   66.2080   11.4790 N.am     10 SEL2        0.0000 
     55 N          28.2340   63.2500   13.2170 N.am      2 SEC2        0.0000 
     56 N          28.2460   64.6180   13.1010 N.am     10 SEL2        0.0000 
     57 N          28.2220   61.8820   13.3330 N.am      6 SEP2        0.0000 
     58 CA         31.6720   68.3120   12.9930 C.3       4 GLC5        0.0000 
     59 CA         30.7310   66.6250   11.9160 C.3      12 GLL5        0.0000 
     60 CA         31.7590   69.5810   10.8345 C.3       4 GLC5        0.0000 
     61 CA         31.0420   68.1950    9.8060 C.3      12 GLL5        0.0000 
     62 CA         32.4760   70.9670   11.8630 C.3       8 GLP5        0.0000 
     63 O          33.2185   68.7370   10.0780 O.2       1 ALC1        0.0000 
     64 O          32.2940   68.5510    9.2070 O.2       9 ALL1        0.0000 
     65 O          34.1430   68.9230   10.9490 O.2       5 ALP1        0.0000 
     66 CA         30.5710   64.4480    8.7460 C.3       4 GLC5        0.0000 
     67 CA         30.3610   66.4630    8.3410 C.3      12 GLL5        0.0000 
     68 CA         30.7810   62.4330    9.1510 C.3       8 GLP5        0.0000 
     69 N          29.6190   62.0005    2.4675 N.am      2 SEC2        0.0000 
     70 N          29.4810   62.6720    3.7580 N.am     10 SEL2        0.0000 
     71 N          29.7570   61.3290    1.1770 N.am      6 SEP2        0.0000 
     72 O          32.0640   64.9800    4.8330 O.2       1 ALC1        0.0000 
     73 O          31.1030   64.2450    3.8260 O.2       9 ALL1        0.0000 
     74 O          33.0250   65.7150    5.8400 O.2       5 ALP1        0.0000 
     75 O          32.1935   63.7610    3.0330 O.2       1 ALC1        0.0000 
     76 O          33.2840   63.2770    2.2400 O.2       5 ALP1        0.0000 
     77 CA         26.6855   65.4605    5.7175 C.3       4 GLC5        0.0000 
     78 CA         27.9610   63.7100    5.9460 C.3      12 GLL5        0.0000 
     79 CA         25.4100   67.2110    5.4890 C.3       8 GLP5        0.0000 
     80 CA         26.6585   63.4880    9.3045 C.3       4 GLC5        0.0000 
     81 CA         27.8670   63.8070    7.4530 C.3      12 GLL5        0.0000 
     82 CA         25.4500   63.1690   11.1560 C.3       8 GLP5        0.0000 
     83 CA         26.8415   66.1320    6.7625 C.3       4 GLC5        0.0000 
     84 CA         28.2730   65.0530    8.0360 C.3      12 GLL5        0.0000 
     85 CA         30.4525   65.5433   16.8495 C.3       4 GLC5        0.0000 
     86 CA         30.7620   67.4430   15.7960 C.3      12 GLL5        0.0000 
     87 CA         31.9160   68.5838   15.2055 C.3       4 GLC5        0.0000 
     88 CA         37.7092   70.2918   19.1485 C.3       4 GLC5        0.0000 
     89 CA         36.2710   70.2430   17.4040 C.3      12 GLL5        0.0000 
     90 CA         36.8227   71.6442   15.7855 C.3       4 GLC5        0.0000 
     91 CA         36.6430   72.9490   14.1640 C.3       8 GLP5        0.0000 
     92 CA         36.2654   68.5229   16.1558 C.3       4 GLC5        0.0000 
     93 CA         37.7340   70.4360   17.4100 C.3      12 GLL5        0.0000 
     94 CA         32.7810   65.5470   11.3600 C.3       4 GLC5        0.0000 
     95 CA         34.5800   64.3870   11.4980 C.3       8 GLP5        0.0000 
     96 CA         32.6585   67.2715   12.1480 C.3       4 GLC5        0.0000 
     97 CA         31.2330   66.7890   10.5280 C.3      12 GLL5        0.0000 
     98 CA         34.3350   67.8360   13.0740 C.3       8 GLP5        0.0000 
     99 CA         28.9902   67.4472    6.6913 C.3       4 GLC5        0.0000 
    100 CA         30.0080   67.9200    8.6980 C.3      12 GLL5        0.0000 
    101 CA         27.7960   67.7030    4.8630 C.3       8 GLP5        0.0000 
    102 CA         31.2820   68.2961    7.2973 C.3       4 GLC5        0.0000 
    103 CA         32.1210   69.3320    5.7980 C.3       8 GLP5        0.0000 
    104 CA         30.2005   63.5895    7.5165 C.3       4 GLC5        0.0000 
    105 CA         29.9190   65.2360    6.2370 C.3      12 GLL5        0.0000 
    106 CA         26.3200   62.8788    5.9002 C.3       4 GLC5        0.0000 
    107 CA         24.7260   61.9990    5.1010 C.3       8 GLP5        0.0000 
    108 CA         29.4372   63.4194    8.2594 C.3       4 GLC5        0.0000 
@<TRIPOS>BOND
@<TRIPOS>SUBSTRUCTURE
     1 ALC1       16 GROUP        1 X    ALC  0     ROOT ALC X 1
     2 SEC2        4 GROUP        1 X    SEC  0     **** SEC X 2
     3 LYC4        1 GROUP        1 X    LYC  0     **** LYC X 4
     4 GLC5        7 GROUP        1 X    GLC  0     **** GLC X 6
     5 ALP1       18 GROUP        1 Y    ALP  0     ROOT ALP Y 8
     6 SEP2        6 GROUP        1 Y    SEP  0     **** SEP Y 9
     7 LYP4        3 GROUP        1 Y    LYP  0     **** LYP Y 11
     8 GLP5        9 GROUP        1 Y    GLP  0     **** GLP Y 13
     9 ALL1       17 GROUP        1 Z    ALL  0     ROOT ALL Z 15
    10 SEL2        5 GROUP        1 Z    SEL  0     **** SEL Z 16
    11 LYL4        2 GROUP        1 Z    LYL  0     **** LYL Z 18
    12 GLL5        8 GROUP        1 Z    GLL  0     **** GLL Z 20
@<TRIPOS>SET

