#    Name: 1xcb_NAD_5_ligand
#    Modification time : Tue Mar 25 09:43:40 2014

@<TRIPOS>MOLECULE
1xcb_NAD_5_ligand
   70    74     1     0     0
SMALL
NO_CHARGES


@<TRIPOS>ATOM
      1 PA         28.1320   67.2120   15.2140 P.3       1 NAD212      0.0000 
      2 O1A        27.1390   66.1940   15.5900 O.co2     1 NAD212      0.0000 
      3 O2A        27.8260   68.6580   15.4090 O.co2     1 NAD212      0.0000 
      4 O5B        29.4540   66.8270   16.0000 O.3       1 NAD212      0.0000 
      5 C5B        30.7620   67.4430   15.7960 C.3       1 NAD212      0.0000 
      6 C4B        31.6760   66.8940   16.8860 C.3       1 NAD212      0.0000 
      7 O4B        32.9810   67.5380   16.6490 O.3       1 NAD212      0.0000 
      8 C3B        31.2740   67.3060   18.3360 C.3       1 NAD212      0.0000 
      9 O3B        31.1800   66.0860   19.1110 O.3       1 NAD212      0.0000 
     10 C2B        32.3530   68.2460   18.8480 C.3       1 NAD212      0.0000 
     11 O2B        32.6340   68.2470   20.2030 O.3       1 NAD212      0.0000 
     12 C1B        33.5270   67.8870   17.9200 C.3       1 NAD212      0.0000 
     13 N9A        34.3770   69.0130   17.6540 N.pl3     1 NAD212      0.0000 
     14 C8A        34.1290   70.3280   17.2440 C.2       1 NAD212      0.0000 
     15 N7A        35.2320   71.0460   17.0920 N.2       1 NAD212      0.0000 
     16 C5A        36.2710   70.2430   17.4040 C.ar      1 NAD212      0.0000 
     17 C6A        37.7340   70.4360   17.4100 C.ar      1 NAD212      0.0000 
     18 N6A        38.3010   71.5850   17.0990 N.pl3     1 NAD212      0.0000 
     19 N1A        38.4640   69.3130   17.7960 N.ar      1 NAD212      0.0000 
     20 C2A        37.9380   68.1140   18.1260 C.ar      1 NAD212      0.0000 
     21 N3A        36.5590   67.8790   18.1300 N.ar      1 NAD212      0.0000 
     22 C4A        35.7650   68.9600   17.7440 C.ar      1 NAD212      0.0000 
     23 O3         28.4060   67.1050   13.6500 O.3       1 NAD212      0.0000 
     24 PN         28.2380   65.9700   12.4750 P.3       1 NAD212      0.0000 
     25 O1N        27.1780   66.2080   11.4790 O.co2     1 NAD212      0.0000 
     26 O2N        28.2460   64.6180   13.1010 O.co2     1 NAD212      0.0000 
     27 O5D        29.3870   66.4800   11.6130 O.3       1 NAD212      0.0000 
     28 C5D        30.7310   66.6250   11.9160 C.3       1 NAD212      0.0000 
     29 C4D        31.2330   66.7890   10.5280 C.3       1 NAD212      0.0000 
     30 O4D        30.4150   65.8790    9.6450 O.3       1 NAD212      0.0000 
     31 C3D        31.0420   68.1950    9.8060 C.3       1 NAD212      0.0000 
     32 O3D        32.2940   68.5510    9.2070 O.3       1 NAD212      0.0000 
     33 C2D        30.0080   67.9200    8.6980 C.3       1 NAD212      0.0000 
     34 O2D        30.0730   68.8070    7.6070 O.3       1 NAD212      0.0000 
     35 C1D        30.3610   66.4630    8.3410 C.3       1 NAD212      0.0000 
     36 N1N        29.3340   65.8490    7.4190 N.pl3     1 NAD212      0.0000 
     37 C2N        29.9190   65.2360    6.2370 C.ar      1 NAD212      0.0000 
     38 C3N        29.3210   64.2560    5.5270 C.ar      1 NAD212      0.0000 
     39 C7N        29.9900   63.6730    4.2970 C.2       1 NAD212      0.0000 
     40 O7N        29.4810   62.6720    3.7580 O.2       1 NAD212      0.0000 
     41 N7N        31.1030   64.2450    3.8260 N.am      1 NAD212      0.0000 
     42 C4N        27.9610   63.7100    5.9460 C.ar      1 NAD212      0.0000 
     43 C5N        27.8670   63.8070    7.4530 C.ar      1 NAD212      0.0000 
     44 C6N        28.2730   65.0530    8.0360 C.ar      1 NAD212      0.0000 
     45 H          30.7096   68.5164   15.8981 H         1 NAD212      0.0000 
     46 H          31.1741   67.1776   14.8342 H         1 NAD212      0.0000 
     47 H          31.7671   65.8553   16.8185 H         1 NAD212      0.0000 
     48 H          30.3469   67.8176   18.2713 H         1 NAD212      0.0000 
     49 H          32.0333   69.2622   18.4755 H         1 NAD212      0.0000 
     50 H          34.0639   67.0755   18.3358 H         1 NAD212      0.0000 
     51 H          33.2031   70.6534   17.0924 H         1 NAD212      0.0000 
     52 H          39.2989   71.6132   17.1572 H         1 NAD212      0.0000 
     53 H          37.6815   72.3237   16.8333 H         1 NAD212      0.0000 
     54 H          38.5681   67.3177   18.3917 H         1 NAD212      0.0000 
     55 H          31.1613   65.7524   12.3389 H         1 NAD212      0.0000 
     56 H          30.9431   67.5062   12.4672 H         1 NAD212      0.0000 
     57 H          32.2527   66.5033   10.4168 H         1 NAD212      0.0000 
     58 H          30.6700   68.8643   10.4903 H         1 NAD212      0.0000 
     59 H          29.0445   67.8818    9.1884 H         1 NAD212      0.0000 
     60 H          31.3285   66.4827    7.8912 H         1 NAD212      0.0000 
     61 H          30.8620   65.6065    5.9538 H         1 NAD212      0.0000 
     62 H          31.4528   65.0229    4.3481 H         1 NAD212      0.0000 
     63 H          31.4858   63.8436    2.9939 H         1 NAD212      0.0000 
     64 H          27.3332   63.3899    5.3934 H         1 NAD212      0.0000 
     65 H          27.5438   63.0445    7.9656 H         1 NAD212      0.0000 
     66 H          27.8302   65.3945    8.8797 H         1 NAD212      0.0000 
     67 H          32.1191   65.8824   19.3878 H         1 NAD212      0.0000 
     68 H          33.3650   67.5741   20.3161 H         1 NAD212      0.0000 
     69 H          32.7354   69.1555    9.8702 H         1 NAD212      0.0000 
     70 H          31.0147   69.1434    7.6028 H         1 NAD212      0.0000 
@<TRIPOS>BOND
     1    2    1 ar   
     2    3    1 ar   
     3    4    1 1    
     4   23    1 1    
     5    5    4 1    
     6    6    5 1    
     7   45    5 1    
     8   46    5 1    
     9    7    6 1    
    10    8    6 1    
    11   47    6 1    
    12   12    7 1    
    13    9    8 1    
    14   10    8 1    
    15   48    8 1    
    16   67    9 1    
    17   11   10 1    
    18   12   10 1    
    19   49   10 1    
    20   68   11 1    
    21   13   12 1    
    22   50   12 1    
    23   14   13 1    
    24   22   13 1    
    25   15   14 2    
    26   51   14 1    
    27   16   15 1    
    28   17   16 ar   
    29   22   16 ar   
    30   18   17 1    
    31   19   17 ar   
    32   52   18 1    
    33   53   18 1    
    34   20   19 ar   
    35   21   20 ar   
    36   54   20 1    
    37   22   21 ar   
    38   24   23 1    
    39   25   24 ar   
    40   26   24 ar   
    41   27   24 1    
    42   28   27 1    
    43   29   28 1    
    44   55   28 1    
    45   56   28 1    
    46   30   29 1    
    47   31   29 1    
    48   57   29 1    
    49   35   30 1    
    50   32   31 1    
    51   33   31 1    
    52   58   31 1    
    53   69   32 1    
    54   34   33 1    
    55   35   33 1    
    56   59   33 1    
    57   70   34 1    
    58   36   35 1    
    59   60   35 1    
    60   37   36 ar   
    61   44   36 ar   
    62   38   37 ar   
    63   61   37 1    
    64   39   38 1    
    65   42   38 ar   
    66   40   39 2    
    67   41   39 am   
    68   62   41 1    
    69   63   41 1    
    70   43   42 ar   
    71   64   42 1    
    72   44   43 ar   
    73   65   43 1    
    74   66   44 1    
@<TRIPOS>SUBSTRUCTURE
     1 NAD212      1 GROUP   
@<TRIPOS>SET

