#    Name: 3q0u_LL3_1_INTS_M
#    Modification time : Tue Mar 25 08:45:42 2014

@<TRIPOS>MOLECULE
3q0u_LL3_1_INTS_M
   61     0     6     0     0
SMALL
NO_CHARGES


@<TRIPOS>ATOM
      1 CA         31.4705   81.0615   10.0535 C.3       2 GLC5        0.0000 
      2 CA         30.7720   79.4480   10.4480 C.3       6 GLL5        0.0000 
      3 CA         32.1690   82.6750    9.6590 C.3       4 GLP5        0.0000 
      4 CA         30.1215   74.2965   10.2975 C.3       2 GLC5        0.0000 
      5 CA         30.9840   75.7100   11.2240 C.3       6 GLL5        0.0000 
      6 CA         29.2590   72.8830    9.3710 C.3       4 GLP5        0.0000 
      7 CA         29.5055   76.4420   12.3185 C.3       2 GLC5        0.0000 
      8 CA         28.0270   77.1740   13.4130 C.3       4 GLP5        0.0000 
      9 N          33.5175   75.2555    8.8175 N.am      1 SEC2        0.0000 
     10 N          32.2310   74.9070    9.3190 N.am      5 SEL2        0.0000 
     11 N          34.8040   75.6040    8.3160 N.am      3 SEP2        0.0000 
     12 CA         30.9850   74.3995   13.9640 C.3       2 GLC5        0.0000 
     13 CA         31.9470   73.4250   12.5790 C.3       6 GLL5        0.0000 
     14 CA         30.0230   75.3740   15.3490 C.3       4 GLP5        0.0000 
     15 CA         30.4015   71.1825   13.6665 C.3       2 GLC5        0.0000 
     16 CA         32.0970   71.9720   13.0410 C.3       6 GLL5        0.0000 
     17 CA         28.7060   70.3930   14.2920 C.3       4 GLP5        0.0000 
     18 CA         34.2020   72.2420    8.8425 C.3       2 GLC5        0.0000 
     19 CA         33.2680   72.6790   10.4020 C.3       6 GLL5        0.0000 
     20 CA         35.1360   71.8050    7.2830 C.3       4 GLP5        0.0000 
     21 CA         31.2635   72.7810    9.8865 C.3       2 GLC5        0.0000 
     22 CA         32.5110   69.6285    9.7745 C.3       2 GLC5        0.0000 
     23 CA         33.1230   71.2390   10.8700 C.3       6 GLL5        0.0000 
     24 CA         31.8990   68.0180    8.6790 C.3       4 GLP5        0.0000 
     25 CA         32.9210   71.2260    8.8165 C.3       2 GLC5        0.0000 
     26 CA         32.7190   71.2130    6.7630 C.3       4 GLP5        0.0000 
     27 CA         31.0700   71.8415   10.7715 C.3       2 GLC5        0.0000 
     28 CA         29.0170   72.4440   10.6730 C.3       4 GLP5        0.0000 
     29 CA         35.1375   70.1980   12.7350 C.3       2 GLC5        0.0000 
     30 CA         33.3010   71.2660   12.4010 C.3       6 GLL5        0.0000 
     31 CA         36.9740   69.1300   13.0690 C.3       4 GLP5        0.0000 
     32 CA         31.2035   67.4985   12.6750 C.3       2 GLC5        0.0000 
     33 CA         33.0160   66.3930   12.6880 C.3       6 GLL5        0.0000 
     34 CA         29.3910   68.6040   12.6620 C.3       4 GLP5        0.0000 
     35 CA         33.7885   65.8785   15.4375 C.3       2 GLC5        0.0000 
     36 CA         32.6760   65.1170   13.7660 C.3       6 GLL5        0.0000 
     37 CA         34.9010   66.6400   17.1090 C.3       4 GLP5        0.0000 
     38 CA         30.6483   77.5315    7.1258 C.3       2 GLC5        0.0000 
     39 CA         30.0580   77.0610    9.2460 C.3       6 GLL5        0.0000 
     40 CA         31.3730   77.3920    5.3220 C.3       4 GLP5        0.0000 
     41 CA         31.1285   80.4308    8.6140 C.3       2 GLC5        0.0000 
     42 CA         29.7890   78.2810    8.6130 C.3       6 GLL5        0.0000 
     43 CA         32.2990   81.9780    8.3130 C.3       4 GLP5        0.0000 
     44 CA         30.4476   79.7388   12.0034 C.3       2 GLC5        0.0000 
     45 CA         31.0410   78.2260   11.0710 C.3       6 GLL5        0.0000 
     46 CA         30.1500   80.6310   13.5550 C.3       4 GLP5        0.0000 
     47 CA         29.5401   75.8663    8.5616 C.3       2 GLC5        0.0000 
     48 CA         30.7010   77.0240   10.4810 C.3       6 GLL5        0.0000 
     49 CA         28.7680   74.3850    7.4180 C.3       4 GLP5        0.0000 
     50 CA         32.5859   77.9528    9.4111 C.3       2 GLC5        0.0000 
     51 CA         34.3680   77.9750    8.2020 C.3       4 GLP5        0.0000 
     52 CA         30.5195   72.5712   11.7415 C.3       2 GLC5        0.0000 
     53 CA         34.8321   72.6662   11.6747 C.3       2 GLC5        0.0000 
     54 CA         36.4160   73.7200   11.8310 C.3       4 GLP5        0.0000 
     55 CA         32.4635   67.0790   10.3735 C.3       2 GLC5        0.0000 
     56 CA         31.2742   65.2297   10.3692 C.3       2 GLC5        0.0000 
     57 CA         33.0400   65.8870   11.4480 C.3       6 GLL5        0.0000 
     58 CA         29.6150   65.2430    9.3120 C.3       4 GLP5        0.0000 
     59 CA         34.4429   63.8509   11.5849 C.3       2 GLC5        0.0000 
     60 CA         32.8270   64.5460   11.4050 C.3       6 GLL5        0.0000 
     61 CA         36.1180   63.1300   11.1680 C.3       4 GLP5        0.0000 
@<TRIPOS>BOND
@<TRIPOS>SUBSTRUCTURE
     1 SEC2        9 GROUP        1 X    SEC  0     ROOT SEC X 2
     2 GLC5        1 GROUP        1 X    GLC  0     **** GLC X 6
     3 SEP2       11 GROUP        1 Y    SEP  0     ROOT SEP Y 9
     4 GLP5        3 GROUP        1 Y    GLP  0     **** GLP Y 13
     5 SEL2       10 GROUP        1 Z    SEL  0     ROOT SEL Z 16
     6 GLL5        2 GROUP        1 Z    GLL  0     **** GLL Z 20
@<TRIPOS>SET

