#    Name: 3q0u_LL3_1_ligand
#    Modification time : Tue Mar 25 08:45:42 2014

@<TRIPOS>MOLECULE
3q0u_LL3_1_ligand
   44    47     1     0     0
SMALL
NO_CHARGES


@<TRIPOS>ATOM
      1 C34        30.0580   77.0610    9.2460 C.ar      1 LL3217      0.0000 
      2 C43        29.7890   78.2810    8.6130 C.ar      1 LL3217      0.0000 
      3 C41        30.1270   79.4860    9.2170 C.ar      1 LL3217      0.0000 
      4 C39        30.7720   79.4480   10.4480 C.ar      1 LL3217      0.0000 
      5 C37        31.0410   78.2260   11.0710 C.ar      1 LL3217      0.0000 
      6 C36        30.7010   77.0240   10.4810 C.ar      1 LL3217      0.0000 
      7 C01        30.9840   75.7100   11.2240 C.3       1 LL3217      0.0000 
      8 C04        31.8980   74.7120   10.4890 C.2       1 LL3217      0.0000 
      9 O06        32.2310   74.9070    9.3190 O.2       1 LL3217      0.0000 
     10 N05        32.3300   73.6080   11.1290 N.am      1 LL3217      0.0000 
     11 C18        31.9470   73.4250   12.5790 C.3       1 LL3217      0.0000 
     12 C15        32.0970   71.9720   13.0410 C.3       1 LL3217      0.0000 
     13 C07        33.2680   72.6790   10.4020 C.3       1 LL3217      0.0000 
     14 C10        33.1230   71.2390   10.8700 C.3       1 LL3217      0.0000 
     15 C13        33.3010   71.2660   12.4010 C.3       1 LL3217      0.0000 
     16 C21        33.3170   69.8540   12.9470 C.2       1 LL3217      0.0000 
     17 N25        33.1270   68.7500   12.2470 N.2       1 LL3217      0.0000 
     18 O22        33.5000   69.5730   14.2480 O.3       1 LL3217      0.0000 
     19 N23        33.4070   68.1570   14.3170 N.2       1 LL3217      0.0000 
     20 C24        33.1800   67.7140   13.0840 C.2       1 LL3217      0.0000 
     21 C26        33.0160   66.3930   12.6880 C.2       1 LL3217      0.0000 
     22 C27        33.0400   65.8870   11.4480 C.2       1 LL3217      0.0000 
     23 C29        32.8270   64.5460   11.4050 C.2       1 LL3217      0.0000 
     24 C31        32.6020   63.9270   12.5770 C.2       1 LL3217      0.0000 
     25 S33        32.6760   65.1170   13.7660 S.3       1 LL3217      0.0000 
     26 H          29.7749   76.1800    8.7888 H         1 LL3217      0.0000 
     27 H          29.3338   78.2801    7.6863 H         1 LL3217      0.0000 
     28 H          29.9084   80.3727    8.7704 H         1 LL3217      0.0000 
     29 H          31.0554   80.3260   10.9076 H         1 LL3217      0.0000 
     30 H          31.5079   78.2292   11.9996 H         1 LL3217      0.0000 
     31 H          30.0198   75.2102   11.4424 H         1 LL3217      0.0000 
     32 H          31.4388   75.9475   12.2058 H         1 LL3217      0.0000 
     33 H          30.9057   73.7356   12.7260 H         1 LL3217      0.0000 
     34 H          32.5790   74.0619   13.2092 H         1 LL3217      0.0000 
     35 H          31.1850   71.4197   12.7880 H         1 LL3217      0.0000 
     36 H          32.2112   71.9526   14.1307 H         1 LL3217      0.0000 
     37 H          34.3035   73.0037   10.5634 H         1 LL3217      0.0000 
     38 H          33.0676   72.7254    9.3243 H         1 LL3217      0.0000 
     39 H          33.8905   70.6341   10.4373 H         1 LL3217      0.0000 
     40 H          32.1461   70.8743   10.6359 H         1 LL3217      0.0000 
     41 H          34.1843   71.7710   12.6585 H         1 LL3217      0.0000 
     42 H          33.1984   66.4345   10.6276 H         1 LL3217      0.0000 
     43 H          32.8386   64.0378   10.5199 H         1 LL3217      0.0000 
     44 H          32.4326   63.0908   12.8686 H         1 LL3217      0.0000 
@<TRIPOS>BOND
     1    2    1 ar   
     2    6    1 ar   
     3   26    1 1    
     4    3    2 ar   
     5   27    2 1    
     6    4    3 ar   
     7   28    3 1    
     8    5    4 ar   
     9   29    4 1    
    10    6    5 ar   
    11   30    5 1    
    12    7    6 1    
    13    8    7 1    
    14   31    7 1    
    15   32    7 1    
    16    9    8 2    
    17   10    8 am   
    18   11   10 1    
    19   13   10 1    
    20   12   11 1    
    21   33   11 1    
    22   34   11 1    
    23   15   12 1    
    24   35   12 1    
    25   36   12 1    
    26   14   13 1    
    27   37   13 1    
    28   38   13 1    
    29   15   14 1    
    30   39   14 1    
    31   40   14 1    
    32   16   15 1    
    33   41   15 1    
    34   17   16 2    
    35   18   16 1    
    36   20   17 1    
    37   19   18 1    
    38   20   19 2    
    39   21   20 1    
    40   22   21 2    
    41   25   21 1    
    42   23   22 1    
    43   42   22 1    
    44   24   23 2    
    45   43   23 1    
    46   25   24 1    
    47   44   24 1    
@<TRIPOS>SUBSTRUCTURE
     1 LL3217      1 GROUP   
@<TRIPOS>SET

