#    Name: 1e1f_PSG_2_INTS_M
#    Modification time : Mon Mar 24 22:41:10 2014

@<TRIPOS>MOLECULE
1e1f_PSG_2_INTS_M
   48     0     9     0     0
SMALL
NO_CHARGES


@<TRIPOS>ATOM
      1 CA         22.2165  -35.9575  113.0630 C.3       3 GLC5        0.0000 
      2 CA         23.7550  -34.9790  114.3070 C.3       9 GLL5        0.0000 
      3 CA         20.6780  -36.9360  111.8190 C.3       6 GLP5        0.0000 
      4 CA         22.6270  -33.4240  117.1005 C.3       3 GLC5        0.0000 
      5 CA         22.6050  -35.1310  115.7030 C.3       9 GLL5        0.0000 
      6 CA         22.6490  -31.7170  118.4980 C.3       6 GLP5        0.0000 
      7 CA         23.4780  -34.0425  118.3200 C.3       3 GLC5        0.0000 
      8 CA         23.4440  -35.8640  117.1830 C.3       9 GLL5        0.0000 
      9 CA         23.5120  -32.2210  119.4570 C.3       6 GLP5        0.0000 
     10 CA         21.7095  -38.1220  116.4655 C.3       3 GLC5        0.0000 
     11 CA         22.5590  -36.9620  117.8400 C.3       9 GLL5        0.0000 
     12 CA         20.8600  -39.2820  115.0910 C.3       6 GLP5        0.0000 
     13 CA         27.2315  -35.7420  118.4185 C.3       3 GLC5        0.0000 
     14 CA         25.4910  -36.7950  118.0220 C.3       9 GLL5        0.0000 
     15 CA         28.9720  -34.6890  118.8150 C.3       6 GLP5        0.0000 
     16 CA         28.2750  -38.4405  118.4935 C.3       3 GLC5        0.0000 
     17 CA         26.9210  -37.0770  117.5590 C.3       9 GLL5        0.0000 
     18 CA         29.6290  -39.8040  119.4280 C.3       6 GLP5        0.0000 
     19 CA         28.2120  -36.4995  118.3580 C.3       3 GLC5        0.0000 
     20 CA         29.5030  -35.9220  119.1570 C.3       6 GLP5        0.0000 
     21 N          21.1820  -35.3680  119.2295 N.am      2 SEC2        0.0000 
     22 N          21.4410  -36.3660  118.4830 N.am      8 SEL2        0.0000 
     23 N          20.9230  -34.3700  119.9760 N.am      5 SEP2        0.0000 
     24 O          20.5315  -35.7270  117.7590 O.2       1 ALC1        0.0000 
     25 O          21.4410  -36.3660  118.4830 O.2       7 ALL1        0.0000 
     26 O          19.6220  -35.0880  117.0350 O.2       4 ALP1        0.0000 
     27 N          23.1340  -40.1945  118.0485 N.am      2 SEC2        0.0000 
     28 N          22.7100  -39.1780  118.8240 N.am      8 SEL2        0.0000 
     29 N          23.5580  -41.2110  117.2730 N.am      5 SEP2        0.0000 
     30 O          22.8020  -40.0780  119.8135 O.2       1 ALC1        0.0000 
     31 O          22.7100  -39.1780  118.8240 O.2       7 ALL1        0.0000 
     32 O          22.8940  -40.9780  120.8030 O.2       4 ALP1        0.0000 
     33 N          25.1905  -39.5445  119.9870 N.am      2 SEC2        0.0000 
     34 N          25.4060  -38.1370  120.0110 N.am      8 SEL2        0.0000 
     35 N          24.9750  -40.9520  119.9630 N.am      5 SEP2        0.0000 
     36 N          25.2255  -37.2615  120.9500 N.am      2 SEC2        0.0000 
     37 N          25.0450  -36.3860  121.8890 N.am      5 SEP2        0.0000 
     38 O          26.4230  -38.5605  119.4565 O.2       1 ALC1        0.0000 
     39 O          25.4060  -38.1370  120.0110 O.2       7 ALL1        0.0000 
     40 O          27.4400  -38.9840  118.9020 O.2       4 ALP1        0.0000 
     41 O          26.7640  -38.4770  120.4965 O.2       1 ALC1        0.0000 
     42 O          28.1220  -38.8170  120.9820 O.2       4 ALP1        0.0000 
     43 CA         23.7027  -38.0775  120.4733 C.3       3 GLC5        0.0000 
     44 CA         24.8270  -37.9920  118.7250 C.3       9 GLL5        0.0000 
     45 CA         23.3510  -38.2230  122.1490 C.3       6 GLP5        0.0000 
     46 CA         24.3337  -39.5070  117.5927 C.3       3 GLC5        0.0000 
     47 CA         23.2820  -37.8720  118.8700 C.3       9 GLL5        0.0000 
     48 CA         24.6130  -41.0820  116.3880 C.3       6 GLP5        0.0000 
@<TRIPOS>BOND
@<TRIPOS>SUBSTRUCTURE
     1 ALC1       24 GROUP        1 X    ALC  0     ROOT ALC X 1
     2 SEC2       21 GROUP        1 X    SEC  0     **** SEC X 2
     3 GLC5        1 GROUP        1 X    GLC  0     **** GLC X 6
     4 ALP1       26 GROUP        1 Y    ALP  0     ROOT ALP Y 8
     5 SEP2       23 GROUP        1 Y    SEP  0     **** SEP Y 9
     6 GLP5        3 GROUP        1 Y    GLP  0     **** GLP Y 13
     7 ALL1       25 GROUP        1 Z    ALL  0     ROOT ALL Z 15
     8 SEL2       22 GROUP        1 Z    SEL  0     **** SEL Z 16
     9 GLL5        2 GROUP        1 Z    GLL  0     **** GLL Z 20
@<TRIPOS>SET

