#    Name: 1e1f_PSG_2_ligand
#    Modification time : Mon Mar 24 22:41:10 2014

@<TRIPOS>MOLECULE
1e1f_PSG_2_ligand
   36    37     1     0     0
SMALL
NO_CHARGES


@<TRIPOS>ATOM
      1 C7         24.6260  -36.0590  113.9170 C.ar      1 PSG513      0.0000 
      2 C8         25.6020  -35.8640  112.9360 C.ar      1 PSG513      0.0000 
      3 C9         25.6510  -34.6390  112.2240 C.ar      1 PSG513      0.0000 
      4 C10        24.7280  -33.6060  112.5240 C.ar      1 PSG513      0.0000 
      5 C11        23.7810  -33.7860  113.5540 C.ar      1 PSG513      0.0000 
      6 C12        23.7550  -34.9790  114.3070 C.ar      1 PSG513      0.0000 
      7 N1         26.6820  -34.4270  111.1500 N.pl3     1 PSG513      0.0000 
      8 O11        26.5580  -33.5320  110.3410 O.2       1 PSG513      0.0000 
      9 O12        27.6520  -35.1450  111.0830 O.2       1 PSG513      0.0000 
     10 S1         22.6050  -35.1310  115.7030 S.3       1 PSG513      0.0000 
     11 C1         23.4440  -35.8640  117.1830 C.3       1 PSG513      0.0000 
     12 C2         22.5590  -36.9620  117.8400 C.3       1 PSG513      0.0000 
     13 C3         23.2820  -37.8720  118.8700 C.3       1 PSG513      0.0000 
     14 C4         24.8270  -37.9920  118.7250 C.3       1 PSG513      0.0000 
     15 C5         25.4910  -36.7950  118.0220 C.3       1 PSG513      0.0000 
     16 C6         26.9210  -37.0770  117.5590 C.3       1 PSG513      0.0000 
     17 O2         21.4410  -36.3660  118.4830 O.3       1 PSG513      0.0000 
     18 O3         22.7100  -39.1780  118.8240 O.3       1 PSG513      0.0000 
     19 O4         25.4060  -38.1370  120.0110 O.3       1 PSG513      0.0000 
     20 O5         24.7320  -36.4150  116.8590 O.3       1 PSG513      0.0000 
     21 O6         26.9770  -37.6430  116.2570 O.3       1 PSG513      0.0000 
     22 H          24.5137  -36.9673  114.3728 H         1 PSG513      0.0000 
     23 H          26.2822  -36.5964  112.7259 H         1 PSG513      0.0000 
     24 H          24.7509  -32.7349  111.9942 H         1 PSG513      0.0000 
     25 H          23.1042  -33.0420  113.7578 H         1 PSG513      0.0000 
     26 H          23.4975  -35.0107  117.8419 H         1 PSG513      0.0000 
     27 H          22.2032  -37.6203  117.0294 H         1 PSG513      0.0000 
     28 H          23.0894  -37.4382  119.8725 H         1 PSG513      0.0000 
     29 H          25.0280  -38.8826  118.1229 H         1 PSG513      0.0000 
     30 H          25.5267  -35.9643  118.7234 H         1 PSG513      0.0000 
     31 H          27.3865  -37.7437  118.3144 H         1 PSG513      0.0000 
     32 H          27.4794  -36.1194  117.6123 H         1 PSG513      0.0000 
     33 H          20.9216  -35.9304  117.7478 H         1 PSG513      0.0000 
     34 H          22.9845  -39.6110  119.6826 H         1 PSG513      0.0000 
     35 H          26.3832  -37.9737  119.8747 H         1 PSG513      0.0000 
     36 H          26.2986  -37.1361  115.7252 H         1 PSG513      0.0000 
@<TRIPOS>BOND
     1    2    1 ar   
     2    6    1 ar   
     3   22    1 1    
     4    3    2 ar   
     5   23    2 1    
     6    4    3 ar   
     7    7    3 1    
     8    5    4 ar   
     9   24    4 1    
    10    6    5 ar   
    11   25    5 1    
    12   10    6 1    
    13    8    7 2    
    14    9    7 2    
    15   11   10 1    
    16   12   11 1    
    17   20   11 1    
    18   26   11 1    
    19   13   12 1    
    20   17   12 1    
    21   27   12 1    
    22   14   13 1    
    23   18   13 1    
    24   28   13 1    
    25   15   14 1    
    26   19   14 1    
    27   29   14 1    
    28   16   15 1    
    29   20   15 1    
    30   30   15 1    
    31   21   16 1    
    32   31   16 1    
    33   32   16 1    
    34   33   17 1    
    35   34   18 1    
    36   35   19 1    
    37   36   21 1    
@<TRIPOS>SUBSTRUCTURE
     1 PSG513      1 GROUP   
@<TRIPOS>SET

