#    Name: 3fqh_057_2_INTS_M
#    Modification time : Tue Mar 25 06:15:39 2014

@<TRIPOS>MOLECULE
3fqh_057_2_INTS_M
   68     0     9     0     0
SMALL
NO_CHARGES


@<TRIPOS>ATOM
      1 N          -0.0705   19.3185   50.1115 N.am      2 SEC2        0.0000 
      2 N          -1.3710   19.5740   50.4960 N.am      8 SEL2        0.0000 
      3 N           1.2300   19.0630   49.7270 N.am      5 SEP2        0.0000 
      4 CA         -3.4920   23.9260   49.3690 C.3       3 GLC5        0.0000 
      5 CA         -3.0740   21.7500   49.1330 C.3       9 GLL5        0.0000 
      6 CA         -3.9100   26.1020   49.6050 C.3       6 GLP5        0.0000 
      7 CA         -6.9620   21.5675   50.3410 C.3       3 GLC5        0.0000 
      8 CA         -5.3850   20.7250   49.2070 C.3       9 GLL5        0.0000 
      9 CA         -8.5390   22.4100   51.4750 C.3       6 GLP5        0.0000 
     10 CA         -3.3495   18.3230   56.1280 C.3       3 GLC5        0.0000 
     11 CA         -2.8340   17.0450   54.6190 C.3       9 GLL5        0.0000 
     12 CA         -3.8650   19.6010   57.6370 C.3       6 GLP5        0.0000 
     13 CA         -3.0940   17.7135   57.1965 C.3       3 GLC5        0.0000 
     14 CA         -2.3230   15.8260   56.7560 C.3       9 GLL5        0.0000 
     15 CA         -2.8170   14.6330   55.1700 C.3       3 GLC5        0.0000 
     16 CA         -3.3110   13.4400   53.5840 C.3       6 GLP5        0.0000 
     17 CA         -4.2175   17.8530   56.6410 C.3       3 GLC5        0.0000 
     18 CA         -4.5700   16.1050   55.6450 C.3       9 GLL5        0.0000 
     19 CA         -5.1875   14.3760   56.9115 C.3       3 GLC5        0.0000 
     20 CA         -5.8050   12.6470   58.1780 C.3       6 GLP5        0.0000 
     21 O          -6.9705   14.5510   55.0635 O.2       1 ALC1        0.0000 
     22 O          -7.2130   15.7650   54.5010 O.2       7 ALL1        0.0000 
     23 O          -6.7280   13.3370   55.6260 O.2       4 ALP1        0.0000 
     24 CA         -8.5650   14.0015   54.8815 C.3       3 GLC5        0.0000 
     25 CA         -8.4120   16.0150   53.9480 C.3       9 GLL5        0.0000 
     26 CA         -8.7180   11.9880   55.8150 C.3       6 GLP5        0.0000 
     27 N          -9.6480   14.2315   55.0215 N.am      2 SEC2        0.0000 
     28 N          -9.6190   15.3870   53.9970 N.am      8 SEL2        0.0000 
     29 N          -9.6770   13.0760   56.0460 N.am      5 SEP2        0.0000 
     30 CA        -12.3170   15.0110   52.5505 C.3       3 GLC5        0.0000 
     31 CA        -10.6820   15.8740   53.3190 C.3       9 GLL5        0.0000 
     32 CA        -13.9520   14.1480   51.7820 C.3       6 GLP5        0.0000 
     33 CA        -12.7715   16.6070   53.4855 C.3       3 GLC5        0.0000 
     34 CA        -14.8610   17.3400   53.6520 C.3       6 GLP5        0.0000 
     35 CA        -10.7930   15.2465   55.3900 C.3       3 GLC5        0.0000 
     36 CA        -10.9040   14.6190   57.4610 C.3       6 GLP5        0.0000 
     37 CA         -3.1055   22.3092   50.6658 C.3       3 GLC5        0.0000 
     38 CA         -3.8760   20.4490   49.2060 C.3       9 GLL5        0.0000 
     39 CA         -2.7360   23.5190   52.1620 C.3       6 GLP5        0.0000 
     40 CA         -2.0810   16.6825   52.0343 C.3       3 GLC5        0.0000 
     41 CA         -2.5860   18.5320   52.2600 C.3       9 GLL5        0.0000 
     42 CA         -2.1440   14.9730   51.4190 C.3       6 GLP5        0.0000 
     43 CA         -2.1750   16.1245   52.9170 C.3       3 GLC5        0.0000 
     44 CA         -4.0522   14.9315   54.3285 C.3       3 GLC5        0.0000 
     45 CA         -5.0170   16.7410   54.5010 C.3       9 GLL5        0.0000 
     46 CA         -4.0553   19.4075   54.4417 C.3       3 GLC5        0.0000 
     47 CA         -3.9540   17.3290   53.8320 C.3       9 GLL5        0.0000 
     48 CA         -4.2100   21.1170   55.6390 C.3       6 GLP5        0.0000 
     49 CA         -3.0223   16.3355   52.3317 C.3       3 GLC5        0.0000 
     50 CA         -3.1955   15.3712   53.8537 C.3       3 GLC5        0.0000 
     51 CA         -7.5267   15.8425   52.2775 C.3       3 GLC5        0.0000 
     52 CA         -6.3640   16.7330   54.0910 C.3       9 GLL5        0.0000 
     53 CA         -8.4150   14.4770   50.8870 C.3       6 GLP5        0.0000 
     54 CA         -6.2159   18.5225   55.1863 C.3       3 GLC5        0.0000 
     55 CA         -6.9130   17.6830   53.2450 C.3       9 GLL5        0.0000 
     56 CA         -6.1300   19.8350   56.6020 C.3       6 GLP5        0.0000 
     57 CA         -8.2772   19.4548   53.2639 C.3       3 GLC5        0.0000 
     58 CA         -9.3400   17.6930   52.4690 C.3       9 GLL5        0.0000 
     59 CA         -8.0940   21.3500   53.6860 C.3       6 GLP5        0.0000 
     60 CA        -11.5980   18.5242   52.1675 C.3       3 GLC5        0.0000 
     61 CA        -13.2430   19.6850   51.8300 C.3       6 GLP5        0.0000 
     62 CA         -9.5195   15.4655   51.9085 C.3       3 GLC5        0.0000 
     63 CA        -10.5660   17.0340   52.5410 C.3       9 GLL5        0.0000 
     64 CA         -9.2073   17.6598   54.7181 C.3       3 GLC5        0.0000 
     65 CA        -10.4180   18.5990   55.8550 C.3       6 GLP5        0.0000 
     66 CA         -8.5091   15.6000   52.1371 C.3       3 GLC5        0.0000 
     67 CA         -8.2490   17.1690   53.1840 C.3       9 GLL5        0.0000 
     68 CA        -10.3678   17.6089   54.3835 C.3       3 GLC5        0.0000 
@<TRIPOS>BOND
@<TRIPOS>SUBSTRUCTURE
     1 ALC1       21 GROUP        1 X    ALC  0     ROOT ALC X 1
     2 SEC2        1 GROUP        1 X    SEC  0     **** SEC X 2
     3 GLC5        4 GROUP        1 X    GLC  0     **** GLC X 6
     4 ALP1       23 GROUP        1 Y    ALP  0     ROOT ALP Y 8
     5 SEP2        3 GROUP        1 Y    SEP  0     **** SEP Y 9
     6 GLP5        6 GROUP        1 Y    GLP  0     **** GLP Y 13
     7 ALL1       22 GROUP        1 Z    ALL  0     ROOT ALL Z 15
     8 SEL2        2 GROUP        1 Z    SEL  0     **** SEL Z 16
     9 GLL5        5 GROUP        1 Z    GLL  0     **** GLL Z 20
@<TRIPOS>SET

