#    Name: 3fqh_057_2_ligand
#    Modification time : Tue Mar 25 06:15:39 2014

@<TRIPOS>MOLECULE
3fqh_057_2_ligand
   49    52     1     0     0
SMALL
NO_CHARGES


@<TRIPOS>ATOM
      1 O21        -1.3710   19.5740   50.4960 O.2       1 0572        0.0000 
      2 C20        -2.4740   19.3230   50.9790 C.2       1 0572        0.0000 
      3 N22        -3.6330   19.6970   50.4280 N.am      1 0572        0.0000 
      4 C23        -3.8760   20.4490   49.2060 C.3       1 0572        0.0000 
      5 C26        -3.0740   21.7500   49.1330 C.3       1 0572        0.0000 
      6 C27        -3.5100   19.5860   47.9930 C.3       1 0572        0.0000 
      7 C24        -5.3850   20.7250   49.2070 C.3       1 0572        0.0000 
      8 O25        -5.7490   21.9100   48.4770 O.3       1 0572        0.0000 
      9 C15        -2.5860   18.5320   52.2600 C.ar      1 0572        0.0000 
     10 C16        -1.4500   18.2520   53.0390 C.ar      1 0572        0.0000 
     11 C18        -1.5780   17.5070   54.2110 C.ar      1 0572        0.0000 
     12 C13        -2.8340   17.0450   54.6190 C.ar      1 0572        0.0000 
     13 N11        -3.2340   16.3200   55.6890 N.pl3     1 0572        0.0000 
     14 C19        -2.3230   15.8260   56.7560 C.3       1 0572        0.0000 
     15 C12        -4.5700   16.1050   55.6450 C.2       1 0572        0.0000 
     16 C17        -3.8470   18.0670   52.6570 C.ar      1 0572        0.0000 
     17 C14        -3.9540   17.3290   53.8320 C.ar      1 0572        0.0000 
     18 C10        -5.0170   16.7410   54.5010 C.2       1 0572        0.0000 
     19 C9         -6.3640   16.7330   54.0910 C.2       1 0572        0.0000 
     20 N5         -7.2130   15.7650   54.5010 N.pl3     1 0572        0.0000 
     21 C8         -6.9130   17.6830   53.2450 C.2       1 0572        0.0000 
     22 C7         -8.2490   17.1690   53.1840 C.ar      1 0572        0.0000 
     23 C3         -9.3400   17.6930   52.4690 C.ar      1 0572        0.0000 
     24 C2        -10.5660   17.0340   52.5410 C.ar      1 0572        0.0000 
     25 C6         -8.4120   16.0150   53.9480 C.ar      1 0572        0.0000 
     26 N4         -9.6190   15.3870   53.9970 N.ar      1 0572        0.0000 
     27 C1        -10.6820   15.8740   53.3190 C.ar      1 0572        0.0000 
     28 H          -4.5601   19.4162   50.9399 H         1 0572        0.0000 
     29 H          -5.7092   20.7914   50.2661 H         1 0572        0.0000 
     30 H          -5.8865   19.8275   48.7898 H         1 0572        0.0000 
     31 H          -0.5323   18.5966   52.7424 H         1 0572        0.0000 
     32 H          -0.7475   17.2954   54.7787 H         1 0572        0.0000 
     33 H          -5.1010   15.6249   56.2570 H         1 0572        0.0000 
     34 H          -4.6701   18.2685   52.0910 H         1 0572        0.0000 
     35 H          -6.9945   15.0319   55.0831 H         1 0572        0.0000 
     36 H          -6.5746   18.3927   52.8508 H         1 0572        0.0000 
     37 H          -9.2313   18.5359   51.9122 H         1 0572        0.0000 
     38 H         -11.3772   17.3915   52.0312 H         1 0572        0.0000 
     39 H         -11.6047   15.3992   53.3608 H         1 0572        0.0000 
     40 H          -2.0890   21.5817   49.1711 H         1 0572        0.0000 
     41 H          -3.2534   22.2498   48.2857 H         1 0572        0.0000 
     42 H          -3.2956   22.3658   49.8891 H         1 0572        0.0000 
     43 H          -2.5476   19.3149   48.0069 H         1 0572        0.0000 
     44 H          -4.0508   18.7456   47.9584 H         1 0572        0.0000 
     45 H          -3.6656   20.0703   47.1321 H         1 0572        0.0000 
     46 H          -1.6171   15.2194   56.3902 H         1 0572        0.0000 
     47 H          -1.8527   16.5768   57.2198 H         1 0572        0.0000 
     48 H          -2.8168   15.3117   57.4572 H         1 0572        0.0000 
     49 H          -5.1716   22.4874   49.0544 H         1 0572        0.0000 
@<TRIPOS>BOND
     1    2    1 2    
     2    3    2 am   
     3    9    2 1    
     4    4    3 1    
     5   28    3 1    
     6    5    4 1    
     7    6    4 1    
     8    7    4 1    
     9   40    5 1    
    10   41    5 1    
    11   42    5 1    
    12   43    6 1    
    13   44    6 1    
    14   45    6 1    
    15    8    7 1    
    16   29    7 1    
    17   30    7 1    
    18   49    8 1    
    19   10    9 ar   
    20   16    9 ar   
    21   11   10 ar   
    22   31   10 1    
    23   12   11 ar   
    24   32   11 1    
    25   13   12 1    
    26   17   12 ar   
    27   14   13 1    
    28   15   13 1    
    29   46   14 1    
    30   47   14 1    
    31   48   14 1    
    32   18   15 2    
    33   33   15 1    
    34   17   16 ar   
    35   34   16 1    
    36   18   17 1    
    37   19   18 1    
    38   20   19 1    
    39   21   19 2    
    40   25   20 1    
    41   35   20 1    
    42   22   21 1    
    43   36   21 1    
    44   23   22 ar   
    45   25   22 ar   
    46   24   23 ar   
    47   37   23 1    
    48   27   24 ar   
    49   38   24 1    
    50   26   25 ar   
    51   27   26 ar   
    52   39   27 1    
@<TRIPOS>SUBSTRUCTURE
     1 0572        1 GROUP   
@<TRIPOS>SET

