#    Name: 4eb3_0O3_2_INTS_M
#    Modification time : Tue Mar 25 10:51:18 2014

@<TRIPOS>MOLECULE
4eb3_0O3_2_INTS_M
   46     0     6     0     0
SMALL
NO_CHARGES


@<TRIPOS>ATOM
      1 N         -39.1805    0.3820   19.5980 N.am      1 SEC2        0.0000 
      2 N         -39.7830    1.1330   18.6100 N.am      5 SEL2        0.0000 
      3 N         -38.5780   -0.3690   20.5860 N.am      3 SEP2        0.0000 
      4 N         -38.9800    2.2780   18.9780 N.am      1 SEC2        0.0000 
      5 N         -38.1770    3.4230   19.3460 N.am      3 SEP2        0.0000 
      6 N         -41.0950    1.4695   18.8335 N.am      1 SEC2        0.0000 
      7 N         -42.4070    1.8060   19.0570 N.am      3 SEP2        0.0000 
      8 N         -42.0235    1.5685   16.3040 N.am      1 SEC2        0.0000 
      9 N         -40.8180    1.0620   16.3190 N.am      5 SEL2        0.0000 
     10 N         -43.2290    2.0750   16.2890 N.am      3 SEP2        0.0000 
     11 N         -41.4940    0.1170   15.6015 N.am      1 SEC2        0.0000 
     12 N         -42.1700   -0.8280   14.8840 N.am      3 SEP2        0.0000 
     13 N         -37.3645   -0.8390   17.7075 N.am      1 SEC2        0.0000 
     14 N         -38.6900   -0.3510   16.9930 N.am      5 SEL2        0.0000 
     15 N         -36.0390   -1.3270   18.4220 N.am      3 SEP2        0.0000 
     16 N         -38.1840   -3.5465   18.5415 N.am      1 SEC2        0.0000 
     17 N         -38.0860   -2.8060   17.4820 N.am      5 SEL2        0.0000 
     18 N         -38.2820   -4.2870   19.6010 N.am      3 SEP2        0.0000 
     19 N         -37.0625   -2.0665   17.9520 N.am      1 SEC2        0.0000 
     20 N         -41.0830   -3.6165   17.1070 N.am      1 SEC2        0.0000 
     21 N         -40.6240   -2.3060   17.2370 N.am      5 SEL2        0.0000 
     22 N         -41.5420   -4.9270   16.9770 N.am      3 SEP2        0.0000 
     23 N         -41.9590   -1.8390   17.4915 N.am      1 SEC2        0.0000 
     24 N         -43.2940   -1.3720   17.7460 N.am      3 SEP2        0.0000 
     25 CA        -38.2765   -3.6155   13.6245 C.3       2 GLC5        0.0000 
     26 CA        -38.6630   -1.8460   14.1230 C.3       6 GLL5        0.0000 
     27 CA        -37.8900   -5.3850   13.1260 C.3       4 GLP5        0.0000 
     28 CA        -40.1810   -2.5040   12.8720 C.3       2 GLC5        0.0000 
     29 CA        -41.6990   -3.1620   11.6210 C.3       4 GLP5        0.0000 
     30 CA        -38.7525    1.0675   13.9155 C.3       2 GLC5        0.0000 
     31 CA        -37.8310   -0.5940   14.3370 C.3       6 GLL5        0.0000 
     32 CA        -39.6740    2.7290   13.4940 C.3       4 GLP5        0.0000 
     33 CA        -37.0270   -3.8085   14.1080 C.3       2 GLC5        0.0000 
     34 CA        -36.1640   -2.2320   15.0900 C.3       6 GLL5        0.0000 
     35 CA        -36.0630   -4.3770   15.7050 C.3       2 GLC5        0.0000 
     36 CA        -35.9620   -6.5220   16.3200 C.3       4 GLP5        0.0000 
     37 CA        -34.2270   -1.8085   14.5725 C.3       2 GLC5        0.0000 
     38 CA        -35.3990    0.0210   14.0770 C.3       6 GLL5        0.0000 
     39 CA        -33.0550   -3.6380   15.0680 C.3       4 GLP5        0.0000 
     40 CA        -35.4245   -0.0835   16.0095 C.3       2 GLC5        0.0000 
     41 CA        -35.4500   -0.1880   17.9420 C.3       4 GLP5        0.0000 
     42 CA        -33.9485    1.2835   13.1930 C.3       2 GLC5        0.0000 
     43 CA        -32.4980    2.5460   12.3090 C.3       4 GLP5        0.0000 
     44 CA        -34.6713   -2.6285   14.9462 C.3       2 GLC5        0.0000 
     45 CA        -36.4110   -1.0060   14.5590 C.3       6 GLL5        0.0000 
     46 CA        -36.0463   -0.8520   16.3555 C.3       2 GLC5        0.0000 
@<TRIPOS>BOND
@<TRIPOS>SUBSTRUCTURE
     1 SEC2        1 GROUP        1 X    SEC  0     ROOT SEC X 2
     2 GLC5       25 GROUP        1 X    GLC  0     **** GLC X 6
     3 SEP2        3 GROUP        1 Y    SEP  0     ROOT SEP Y 9
     4 GLP5       27 GROUP        1 Y    GLP  0     **** GLP Y 13
     5 SEL2        2 GROUP        1 Z    SEL  0     ROOT SEL Z 16
     6 GLL5       26 GROUP        1 Z    GLL  0     **** GLL Z 20
@<TRIPOS>SET

