#    Name: 4eb3_0O3_2_ligand
#    Modification time : Tue Mar 25 10:51:18 2014

@<TRIPOS>MOLECULE
4eb3_0O3_2_ligand
   22    21     1     0     0
SMALL
NO_CHARGES


@<TRIPOS>ATOM
      1 O20       -39.7830    1.1330   18.6100 O.co2     1 0O3402      0.0000 
      2 P17       -39.5350    0.9610   17.1200 P.3       1 0O3402      0.0000 
      3 O19       -40.8180    1.0620   16.3190 O.co2     1 0O3402      0.0000 
      4 O18       -38.4050    2.0190   16.7610 O.co2     1 0O3402      0.0000 
      5 O16       -38.6900   -0.3510   16.9930 O.3       1 0O3402      0.0000 
      6 P13       -39.1440   -1.9270   16.8940 P.3       1 0O3402      0.0000 
      7 O15       -38.0860   -2.8060   17.4820 O.co2     1 0O3402      0.0000 
      8 O14       -40.6240   -2.3060   17.2370 O.co2     1 0O3402      0.0000 
      9 O29       -39.1370   -2.3670   15.3310 O.3       1 0O3402      0.0000 
     10 C28       -38.6630   -1.8460   14.1230 C.3       1 0O3402      0.0000 
     11 C27       -37.8310   -0.5940   14.3370 C.3       1 0O3402      0.0000 
     12 C30       -36.4110   -1.0060   14.5590 C.2       1 0O3402      0.0000 
     13 C1        -36.1640   -2.2320   15.0900 C.2       1 0O3402      0.0000 
     14 C13       -35.3990    0.0210   14.0770 C.3       1 0O3402      0.0000 
     15 O3        -36.1570    1.0240   13.2440 O.3       1 0O3402      0.0000 
     16 H         -39.4885   -1.5788   13.4316 H         1 0O3402      0.0000 
     17 H         -38.0289   -2.5733   13.5754 H         1 0O3402      0.0000 
     18 H         -38.2046   -0.0616   15.2029 H         1 0O3402      0.0000 
     19 H         -37.9036    0.0364   13.4594 H         1 0O3402      0.0000 
     20 H         -34.6520   -0.4660   13.4761 H         1 0O3402      0.0000 
     21 H         -34.9524    0.5097   14.9244 H         1 0O3402      0.0000 
     22 H         -35.9618    1.9099   13.6648 H         1 0O3402      0.0000 
@<TRIPOS>BOND
     1    2    1 ar   
     2    3    2 ar   
     3    4    2 ar   
     4    5    2 1    
     5    6    5 1    
     6    7    6 ar   
     7    8    6 ar   
     8    9    6 1    
     9   10    9 1    
    10   11   10 1    
    11   16   10 1    
    12   17   10 1    
    13   12   11 1    
    14   18   11 1    
    15   19   11 1    
    16   13   12 2    
    17   14   12 1    
    18   15   14 1    
    19   20   14 1    
    20   21   14 1    
    21   22   15 1    
@<TRIPOS>SUBSTRUCTURE
     1 0O3402      1 GROUP   
@<TRIPOS>SET

