#    Name: 3ow3_SMY_1_INTS_M
#    Modification time : Tue Mar 25 05:21:09 2014

@<TRIPOS>MOLECULE
3ow3_SMY_1_INTS_M
   86     0    12     0     0
SMALL
NO_CHARGES


@<TRIPOS>ATOM
      1 CA         11.8160   35.3180   38.7215 C.3       4 GLC5        0.0000 
      2 CA         12.5280   34.7370   37.0060 C.3      12 GLL5        0.0000 
      3 CA         11.1040   35.8990   40.4370 C.3       8 GLP5        0.0000 
      4 CA         12.5205   33.4090   38.5670 C.3       4 GLC5        0.0000 
      5 CA         12.5130   32.0810   40.1280 C.3       8 GLP5        0.0000 
      6 CA         14.5385   34.8005   36.2765 C.3       4 GLC5        0.0000 
      7 CA         16.5490   34.8640   35.5470 C.3       8 GLP5        0.0000 
      8 CA         12.6010   33.6610   35.3360 C.3       4 GLC5        0.0000 
      9 CA         12.6740   32.5850   33.6660 C.3       8 GLP5        0.0000 
     10 N          14.7180   33.9775   36.9215 N.am      2 SEC2        0.0000 
     11 N          13.3080   33.6550   36.9970 N.am     10 SEL2        0.0000 
     12 N          16.1280   34.3000   36.8460 N.am      6 SEP2        0.0000 
     13 CA         14.3940   33.2235   35.5345 C.3       4 GLC5        0.0000 
     14 CA         12.6840   32.4930   36.7520 C.3      12 GLL5        0.0000 
     15 CA         16.1040   33.9540   34.3170 C.3       8 GLP5        0.0000 
     16 CA         10.8205   34.7525   38.5395 C.3       4 GLC5        0.0000 
     17 CA         10.5370   33.6060   36.6420 C.3      12 GLL5        0.0000 
     18 CA         14.9340   32.3450   37.9105 C.3       4 GLC5        0.0000 
     19 CA         13.4410   31.2100   36.6910 C.3      12 GLL5        0.0000 
     20 CA         16.4270   33.4800   39.1300 C.3       8 GLP5        0.0000 
     21 CA         15.0095   31.8610   35.6015 C.3       4 GLC5        0.0000 
     22 CA         16.5780   32.5120   34.5120 C.3       8 GLP5        0.0000 
     23 CA         11.6350   31.8250   34.9945 C.3       4 GLC5        0.0000 
     24 CA         10.5960   31.0650   36.3230 C.3      12 GLL5        0.0000 
     25 CA          8.1425   30.6780   38.2885 C.3       4 GLC5        0.0000 
     26 CA          9.5300   30.4410   37.3110 C.3      12 GLL5        0.0000 
     27 CA          6.7550   30.9150   39.2660 C.3       8 GLP5        0.0000 
     28 CA         10.4215   28.8480   38.2125 C.3       4 GLC5        0.0000 
     29 CA         11.3130   27.2550   39.1140 C.3       8 GLP5        0.0000 
     30 CA          8.4230   33.1480   38.7505 C.3       4 GLC5        0.0000 
     31 CA          8.2040   33.9320   37.4140 C.3      12 GLL5        0.0000 
     32 CA          8.6420   32.3640   40.0870 C.3       8 GLP5        0.0000 
     33 CA          7.0725   33.4200   38.4160 C.3       4 GLC5        0.0000 
     34 CA          7.0290   34.5900   36.7170 C.3      12 GLL5        0.0000 
     35 CA          7.1160   32.2500   40.1150 C.3       8 GLP5        0.0000 
     36 CA          9.9100   33.4410   33.8590 C.3       4 GLC5        0.0000 
     37 CA          8.6780   32.8090   35.2940 C.3      12 GLL5        0.0000 
     38 CA         11.1420   34.0730   32.4240 C.3       8 GLP5        0.0000 
     39 CA          9.2680   31.3500   33.9210 C.3       4 GLC5        0.0000 
     40 CA          9.8580   29.8910   32.5480 C.3       8 GLP5        0.0000 
     41 N           3.5125   34.7180   37.1100 N.am      2 SEC2        0.0000 
     42 N           4.3660   34.8540   36.0780 N.am     10 SEL2        0.0000 
     43 N           2.6590   34.5820   38.1420 N.am      6 SEP2        0.0000 
     44 CA          2.2750   33.2260   36.8220 C.3       4 GLC5        0.0000 
     45 CA          3.0950   32.4720   34.9260 C.3      12 GLL5        0.0000 
     46 CA          1.4550   33.9800   38.7180 C.3       8 GLP5        0.0000 
     47 CA          0.8750   30.7485   37.0485 C.3       4 GLC5        0.0000 
     48 CA          2.7250   30.3540   36.3700 C.3      12 GLL5        0.0000 
     49 CA         -0.9750   31.1430   37.7270 C.3       8 GLP5        0.0000 
     50 CA          8.4285   29.6870   33.6995 C.3       4 GLC5        0.0000 
     51 CA          6.9990   29.4830   34.8510 C.3      12 GLL5        0.0000 
     52 OD1         4.5750   35.7425   32.3460 O.co2     3 ASC3        0.0000 
     53 OD1         3.5340   34.6350   33.5480 O.co2    11 ASL3        0.0000 
     54 OD1         5.6160   36.8500   31.1440 O.co2     7 ASP3        0.0000 
     55 OD1         4.7590   35.2350   33.2985 O.co2     3 ASC3        0.0000 
     56 OD1         5.9840   35.8350   33.0490 O.co2     7 ASP3        0.0000 
     57 O           4.7590   35.2350   33.2985 O.2       1 ALC1        0.0000 
     58 O           3.5340   34.6350   33.5480 O.2       9 ALL1        0.0000 
     59 O           5.9840   35.8350   33.0490 O.2       5 ALP1        0.0000 
     60 CA         11.8855   32.5544   38.3950 C.3       4 GLC5        0.0000 
     61 CA         11.9660   32.8064   35.1640 C.3       4 GLC5        0.0000 
     62 CA         12.6278   31.3465   38.3642 C.3       4 GLC5        0.0000 
     63 CA         14.1903   29.5140   35.9607 C.3       4 GLC5        0.0000 
     64 CA         15.6380   28.4160   35.3210 C.3       8 GLP5        0.0000 
     65 CA         13.4392   29.3130   37.7893 C.3       4 GLC5        0.0000 
     66 CA         14.1360   28.0140   38.9780 C.3       8 GLP5        0.0000 
     67 CA         12.7082   31.5985   35.1332 C.3       4 GLC5        0.0000 
     68 CA         12.0440   30.0140   36.5100 C.3      12 GLL5        0.0000 
     69 CA         11.0880   29.7052   34.7018 C.3       4 GLC5        0.0000 
     70 CA         10.8560   28.8710   32.9870 C.3       8 GLP5        0.0000 
     71 CA          9.6964   32.1998   38.2810 C.3       4 GLC5        0.0000 
     72 CA         11.2880   31.4170   38.4725 C.3       4 GLC5        0.0000 
     73 CA          8.2568   35.4785   38.3687 C.3       4 GLC5        0.0000 
     74 CA          8.8970   36.6960   39.6720 C.3       8 GLP5        0.0000 
     75 CA          6.1738   35.0270   37.6457 C.3       4 GLC5        0.0000 
     76 CA          4.7310   35.7930   38.2260 C.3       8 GLP5        0.0000 
     77 CA          5.6922   30.3085   37.5517 C.3       4 GLC5        0.0000 
     78 CA          4.7210   30.2770   35.4630 C.3      12 GLL5        0.0000 
     79 CA          6.4748   29.5775   37.6080 C.3       4 GLC5        0.0000 
     80 CA          5.5740   28.1660   36.2820 C.3      12 GLL5        0.0000 
     81 CA          6.3573   27.6160   34.2645 C.3       4 GLC5        0.0000 
     82 CA          6.5200   26.9920   32.5790 C.3       8 GLP5        0.0000 
     83 CA          5.5883   27.3371   37.0367 C.3       4 GLC5        0.0000 
     84 CA          6.8150   28.3140   35.6180 C.3      12 GLL5        0.0000 
     85 CA          5.2410   26.1940   38.1410 C.3       8 GLP5        0.0000 
     86 CA          6.4980   28.4772   33.6973 C.3       4 GLC5        0.0000 
@<TRIPOS>BOND
@<TRIPOS>SUBSTRUCTURE
     1 ALC1       57 GROUP        1 X    ALC  0     ROOT ALC X 1
     2 SEC2       10 GROUP        1 X    SEC  0     **** SEC X 2
     3 ASC3       52 GROUP        1 X    ASC  0     **** ASC X 3
     4 GLC5        1 GROUP        1 X    GLC  0     **** GLC X 6
     5 ALP1       59 GROUP        1 Y    ALP  0     ROOT ALP Y 8
     6 SEP2       12 GROUP        1 Y    SEP  0     **** SEP Y 9
     7 ASP3       54 GROUP        1 Y    ASP  0     **** ASP Y 10
     8 GLP5        3 GROUP        1 Y    GLP  0     **** GLP Y 13
     9 ALL1       58 GROUP        1 Z    ALL  0     ROOT ALL Z 15
    10 SEL2       11 GROUP        1 Z    SEL  0     **** SEL Z 16
    11 ASL3       53 GROUP        1 Z    ASL  0     **** ASL Z 17
    12 GLL5        2 GROUP        1 Z    GLL  0     **** GLL Z 20
@<TRIPOS>SET

