#    Name: 3ow3_SMY_1_ligand
#    Modification time : Tue Mar 25 05:21:09 2014

@<TRIPOS>MOLECULE
3ow3_SMY_1_ligand
   57    61     1     0     0
SMALL
NO_CHARGES


@<TRIPOS>ATOM
      1 N1         11.1820   34.7530   36.8670 N.ar      1 SMY351      0.0000 
      2 C2         12.5280   34.7370   37.0060 C.ar      1 SMY351      0.0000 
      3 N3         13.3080   33.6550   36.9970 N.ar      1 SMY351      0.0000 
      4 C4         12.6840   32.4930   36.7520 C.ar      1 SMY351      0.0000 
      5 C5         11.2740   32.4060   36.6120 C.ar      1 SMY351      0.0000 
      6 C6         10.5370   33.6060   36.6420 C.ar      1 SMY351      0.0000 
      7 C7         13.4410   31.2100   36.6910 C.3       1 SMY351      0.0000 
      8 S8         12.0440   30.0140   36.5100 S.3       1 SMY351      0.0000 
      9 C9         10.5960   31.0650   36.3230 C.3       1 SMY351      0.0000 
     10 C10         9.5300   30.4410   37.3110 C.3       1 SMY351      0.0000 
     11 N11         9.1770   33.6140   36.4220 N.3       1 SMY351      0.0000 
     12 C12         8.2040   33.9320   37.4140 C.3       1 SMY351      0.0000 
     13 C13         7.0290   34.5900   36.7170 C.3       1 SMY351      0.0000 
     14 N14         6.3570   33.8360   35.6400 N.am      1 SMY351      0.0000 
     15 C15         7.2220   32.9550   34.8370 C.3       1 SMY351      0.0000 
     16 C16         8.6780   32.8090   35.2940 C.3       1 SMY351      0.0000 
     17 C17         5.0120   34.0590   35.3900 C.2       1 SMY351      0.0000 
     18 O18         4.3660   34.8540   36.0780 O.2       1 SMY351      0.0000 
     19 C19         4.1210   33.4490   34.2950 C.3       1 SMY351      0.0000 
     20 C20         3.0950   32.4720   34.9260 C.3       1 SMY351      0.0000 
     21 C21         3.5140   31.1160   35.5470 C.2       1 SMY351      0.0000 
     22 C22         2.7250   30.3540   36.3700 C.2       1 SMY351      0.0000 
     23 N23         3.3040   29.1480   36.7880 N.pl3     1 SMY351      0.0000 
     24 C24         4.5380   29.1270   36.2120 C.ar      1 SMY351      0.0000 
     25 C25         4.7210   30.2770   35.4630 C.ar      1 SMY351      0.0000 
     26 C26         5.5740   28.1660   36.2820 C.ar      1 SMY351      0.0000 
     27 C27         6.8150   28.3140   35.6180 C.ar      1 SMY351      0.0000 
     28 C28         6.9990   29.4830   34.8510 C.ar      1 SMY351      0.0000 
     29 C29         5.9530   30.4420   34.7800 C.ar      1 SMY351      0.0000 
     30 N30         3.5340   34.6350   33.5480 N.4       1 SMY351      0.0000 
     31 H          13.0123   35.7008   37.1369 H         1 SMY351      0.0000 
     32 H          13.8511   30.8994   37.5802 H         1 SMY351      0.0000 
     33 H          13.9552   31.0446   35.8172 H         1 SMY351      0.0000 
     34 H          10.3843   30.9168   35.3249 H         1 SMY351      0.0000 
     35 H           8.5932   34.6291   38.1556 H         1 SMY351      0.0000 
     36 H           7.8403   33.0415   37.9261 H         1 SMY351      0.0000 
     37 H           7.3779   35.5833   36.3162 H         1 SMY351      0.0000 
     38 H           6.2737   34.8702   37.5045 H         1 SMY351      0.0000 
     39 H           7.2360   33.3031   33.7713 H         1 SMY351      0.0000 
     40 H           6.7785   31.9264   34.7890 H         1 SMY351      0.0000 
     41 H           8.8506   31.7084   35.5110 H         1 SMY351      0.0000 
     42 H           9.3326   32.9884   34.3843 H         1 SMY351      0.0000 
     43 H           4.7742   32.9016   33.6281 H         1 SMY351      0.0000 
     44 H           2.2970   32.2604   34.1439 H         1 SMY351      0.0000 
     45 H           2.5144   33.0478   35.7164 H         1 SMY351      0.0000 
     46 H           1.8119   30.6225   36.6564 H         1 SMY351      0.0000 
     47 H           2.9085   28.5117   37.3427 H         1 SMY351      0.0000 
     48 H           5.4155   27.3060   36.8510 H         1 SMY351      0.0000 
     49 H           7.5299   27.6175   35.6911 H         1 SMY351      0.0000 
     50 H           7.8692   29.6424   34.3523 H         1 SMY351      0.0000 
     51 H           6.0968   31.2937   34.2073 H         1 SMY351      0.0000 
     52 H           9.9169   30.2747   38.2180 H         1 SMY351      0.0000 
     53 H           8.7412   31.0431   37.4347 H         1 SMY351      0.0000 
     54 H           9.1810   29.5657   36.9762 H         1 SMY351      0.0000 
     55 H           4.2463   35.2087   33.1436 H         1 SMY351      0.0000 
     56 H           2.9336   34.3444   32.8030 H         1 SMY351      0.0000 
     57 H           2.9917   35.2214   34.1497 H         1 SMY351      0.0000 
@<TRIPOS>BOND
     1    2    1 ar   
     2    6    1 ar   
     3    3    2 ar   
     4   31    2 1    
     5    4    3 ar   
     6    5    4 ar   
     7    7    4 1    
     8    6    5 ar   
     9    9    5 1    
    10   11    6 1    
    11    8    7 1    
    12   32    7 1    
    13   33    7 1    
    14    9    8 1    
    15   10    9 1    
    16   34    9 1    
    17   52   10 1    
    18   53   10 1    
    19   54   10 1    
    20   12   11 1    
    21   16   11 1    
    22   13   12 1    
    23   35   12 1    
    24   36   12 1    
    25   14   13 1    
    26   37   13 1    
    27   38   13 1    
    28   15   14 1    
    29   17   14 am   
    30   16   15 1    
    31   39   15 1    
    32   40   15 1    
    33   41   16 1    
    34   42   16 1    
    35   18   17 2    
    36   19   17 1    
    37   20   19 1    
    38   30   19 1    
    39   43   19 1    
    40   21   20 1    
    41   44   20 1    
    42   45   20 1    
    43   22   21 2    
    44   25   21 1    
    45   23   22 1    
    46   46   22 1    
    47   24   23 1    
    48   47   23 1    
    49   25   24 ar   
    50   26   24 ar   
    51   29   25 ar   
    52   27   26 ar   
    53   48   26 1    
    54   28   27 ar   
    55   49   27 1    
    56   29   28 ar   
    57   50   28 1    
    58   51   29 1    
    59   55   30 1    
    60   56   30 1    
    61   57   30 1    
@<TRIPOS>SUBSTRUCTURE
     1 SMY351      1 GROUP   
@<TRIPOS>SET

