#    Name: 3tvc_E3P_1_INTS_M
#    Modification time : Mon Mar 24 21:00:49 2014

@<TRIPOS>MOLECULE
3tvc_E3P_1_INTS_M
   76     0     9     0     0
SMALL
NO_CHARGES


@<TRIPOS>ATOM
      1 CA         -9.1225  -32.3060   -0.4125 C.3       3 GLC5        0.0000 
      2 CA        -10.6610  -31.2060    0.5970 C.3       9 GLL5        0.0000 
      3 CA         -7.5840  -33.4060   -1.4220 C.3       6 GLP5        0.0000 
      4 N         -11.2660  -28.3400   -3.5320 N.am      1 SEC2        0.0000 
      5 N         -11.4330  -28.5160   -2.1770 N.am      7 SEL2        0.0000 
      6 N         -11.0990  -28.1640   -4.8870 N.am      4 SEP2        0.0000 
      7 N          -9.9860  -28.6750   -3.1285 N.am      1 SEC2        0.0000 
      8 N          -8.5390  -28.8340   -4.0800 N.am      4 SEP2        0.0000 
      9 CA        -13.4985  -31.4365   -2.4080 C.3       3 GLC5        0.0000 
     10 CA        -12.6630  -30.5120   -0.7160 C.3       9 GLL5        0.0000 
     11 CA        -14.3340  -32.3610   -4.1000 C.3       6 GLP5        0.0000 
     12 Zn         -9.7330  -29.2095    2.8825 Zn        2 ZIC7        0.0000 
     13 Zn         -9.2500  -29.6560    1.7680 Zn        8 ZIL7        0.0000 
     14 Zn        -10.2160  -28.7630    3.9970 Zn        5 ZIP7        0.0000 
     15 N          -8.3650  -28.8800    1.1000 N.am      1 SEC2        0.0000 
     16 N          -9.2500  -29.6560    1.7680 N.am      7 SEL2        0.0000 
     17 N          -7.4800  -28.1040    0.4320 N.am      4 SEP2        0.0000 
     18 CA        -11.5805  -25.9380   -2.7515 C.3       3 GLC5        0.0000 
     19 CA        -11.8760  -26.6930   -0.7210 C.3       9 GLL5        0.0000 
     20 CA        -11.2850  -25.1830   -4.7820 C.3       6 GLP5        0.0000 
     21 Zn        -10.7730  -29.2585    3.1900 Zn        2 ZIC7        0.0000 
     22 Zn        -11.3300  -29.7540    2.3830 Zn        8 ZIL7        0.0000 
     23 CA         -8.6555  -23.5000   -1.1965 C.3       3 GLC5        0.0000 
     24 CA         -9.5620  -24.3290    0.2750 C.3       9 GLL5        0.0000 
     25 CA         -7.7490  -22.6710   -2.6680 C.3       6 GLP5        0.0000 
     26 CA         -7.7390  -22.8890    0.0450 C.3       3 GLC5        0.0000 
     27 CA         -9.4520  -22.9970    0.9440 C.3       9 GLL5        0.0000 
     28 CA         -6.0260  -22.7810   -0.8540 C.3       6 GLP5        0.0000 
     29 CA         -8.3050  -23.5050    2.2125 C.3       3 GLC5        0.0000 
     30 CA         -7.1580  -24.0130    3.4810 C.3       6 GLP5        0.0000 
     31 CA         -9.9155  -25.5940    2.5625 C.3       3 GLC5        0.0000 
     32 CA        -11.3980  -24.9210    1.8160 C.3       9 GLL5        0.0000 
     33 CA         -8.4330  -26.2670    3.3090 C.3       6 GLP5        0.0000 
     34 CA        -12.9755  -25.4140    3.3250 C.3       3 GLC5        0.0000 
     35 CA        -14.5530  -25.9070    4.8340 C.3       6 GLP5        0.0000 
     36 CA         -9.8775  -20.2885    6.1170 C.3       3 GLC5        0.0000 
     37 CA        -10.8530  -19.8840    4.4860 C.3       9 GLL5        0.0000 
     38 CA         -8.9020  -20.6930    7.7480 C.3       6 GLP5        0.0000 
     39 CA        -11.2900  -18.3215    2.7700 C.3       3 GLC5        0.0000 
     40 CA         -9.2570  -19.0440    2.7850 C.3       9 GLL5        0.0000 
     41 CA        -13.3230  -17.5990    2.7550 C.3       6 GLP5        0.0000 
     42 CA         -8.3850  -19.0275    5.0325 C.3       3 GLC5        0.0000 
     43 CA         -9.8910  -17.5350    4.6580 C.3       9 GLL5        0.0000 
     44 CA         -6.8790  -20.5200    5.4070 C.3       6 GLP5        0.0000 
     45 CA         -7.8125  -16.3810    2.8435 C.3       3 GLC5        0.0000 
     46 CA         -9.6200  -16.2550    3.9410 C.3       9 GLL5        0.0000 
     47 CA         -6.0050  -16.5070    1.7460 C.3       6 GLP5        0.0000 
     48 CA         -8.6815  -14.4885    3.2725 C.3       3 GLC5        0.0000 
     49 CA         -7.7430  -12.7220    2.6040 C.3       6 GLP5        0.0000 
     50 CA         -9.3220  -13.5930    3.7090 C.3       3 GLC5        0.0000 
     51 CA         -9.5220  -15.1040    4.6660 C.3       9 GLL5        0.0000 
     52 CA         -9.1220  -12.0820    2.7520 C.3       6 GLP5        0.0000 
     53 CA         -9.1510  -16.5715    8.6240 C.3       3 GLC5        0.0000 
     54 CA         -9.9010  -16.3170    6.8060 C.3       9 GLL5        0.0000 
     55 CA         -8.4010  -16.8260   10.4420 C.3       6 GLP5        0.0000 
     56 CA         -9.4585  -19.1350    6.8825 C.3       3 GLC5        0.0000 
     57 CA        -10.0150  -17.5770    6.0170 C.3       9 GLL5        0.0000 
     58 CA         -9.2357  -25.6934    1.8084 C.3       3 GLC5        0.0000 
     59 CA        -10.4830  -25.2440    0.6920 C.3       9 GLL5        0.0000 
     60 CA        -11.5540  -22.1145    0.8403 C.3       3 GLC5        0.0000 
     61 CA        -13.2360  -21.3820    0.2330 C.3       6 GLP5        0.0000 
     62 CA         -9.4947  -24.1135    3.0010 C.3       3 GLC5        0.0000 
     63 CA        -10.2920  -22.6970    1.9510 C.3       9 GLL5        0.0000 
     64 CA         -8.1950  -25.0340    3.8170 C.3       6 GLP5        0.0000 
     65 CA        -12.2918  -22.8435    1.1753 C.3       3 GLC5        0.0000 
     66 CA        -11.2970  -23.6890    2.4190 C.3       9 GLL5        0.0000 
     67 CA        -12.0033  -18.9136    3.3929 C.3       3 GLC5        0.0000 
     68 CA        -10.9480  -21.1010    3.8580 C.3       9 GLL5        0.0000 
     69 CA         -8.4653  -22.4368    2.9173 C.3       3 GLC5        0.0000 
     70 CA        -10.1750  -21.3460    2.6150 C.3       9 GLL5        0.0000 
     71 CA         -7.9072  -19.0508    1.2982 C.3       3 GLC5        0.0000 
     72 CA         -9.3700  -20.3750    2.0920 C.3       9 GLL5        0.0000 
     73 CA         -6.5010  -18.3920    0.1580 C.3       6 GLP5        0.0000 
     74 CA        -11.6009  -21.0906    1.4486 C.3       3 GLC5        0.0000 
     75 CA        -11.5392  -17.2470    3.5272 C.3       3 GLC5        0.0000 
     76 CA         -8.4537  -20.4797    4.1932 C.3       3 GLC5        0.0000 
@<TRIPOS>BOND
@<TRIPOS>SUBSTRUCTURE
     1 SEC2        4 GROUP        1 X    SEC  0     ROOT SEC X 2
     2 ZIC7       12 GROUP        1 X    ZIC  0     **** ZIC X 5
     3 GLC5        1 GROUP        1 X    GLC  0     **** GLC X 6
     4 SEP2        6 GROUP        1 Y    SEP  0     ROOT SEP Y 9
     5 ZIP7       14 GROUP        1 Y    ZIP  0     **** ZIP Y 12
     6 GLP5        3 GROUP        1 Y    GLP  0     **** GLP Y 13
     7 SEL2        5 GROUP        1 Z    SEL  0     ROOT SEL Z 16
     8 ZIL7       13 GROUP        1 Z    ZIL  0     **** ZIL Z 19
     9 GLL5        2 GROUP        1 Z    GLL  0     **** GLL Z 20
@<TRIPOS>SET

