#    Name: 3tvc_E3P_1_ligand
#    Modification time : Mon Mar 24 21:00:49 2014

@<TRIPOS>MOLECULE
3tvc_E3P_1_ligand
   57    59     1     0     0
SMALL
NO_CHARGES


@<TRIPOS>ATOM
      1 C1        -10.3980  -30.1510    1.6300 C.2       1 E3P1        0.0000 
      2 N1        -12.6170  -29.1180   -0.3150 N.am      1 E3P1        0.0000 
      3 C2        -10.6610  -31.2060    0.5970 C.3       1 E3P1        0.0000 
      4 O2        -11.4330  -28.5160   -2.1770 O.2       1 E3P1        0.0000 
      5 C3        -12.1340  -31.3940    0.4020 C.3       1 E3P1        0.0000 
      6 N3        -14.8690  -30.0020   -1.5950 N.am      1 E3P1        0.0000 
      7 C4        -12.6630  -30.5120   -0.7160 C.3       1 E3P1        0.0000 
      8 C5        -14.0710  -30.8830   -1.0560 C.2       1 E3P1        0.0000 
      9 O5        -14.4880  -32.0180   -0.8360 O.2       1 E3P1        0.0000 
     10 C6        -11.9550  -28.1470   -1.1450 C.2       1 E3P1        0.0000 
     11 O6         -9.2500  -29.6560    1.7680 O.co2     1 E3P1        0.0000 
     12 C7        -11.8760  -26.6930   -0.7210 C.3       1 E3P1        0.0000 
     13 O7        -11.3300  -29.7540    2.3830 O.co2     1 E3P1        0.0000 
     14 C8        -10.5470  -26.5770   -0.0110 C.3       1 E3P1        0.0000 
     15 C9        -10.4830  -25.2440    0.6920 C.ar      1 E3P1        0.0000 
     16 C10        -9.5620  -24.3290    0.2750 C.ar      1 E3P1        0.0000 
     17 C11        -9.4520  -22.9970    0.9440 C.ar      1 E3P1        0.0000 
     18 C12       -10.2920  -22.6970    1.9510 C.ar      1 E3P1        0.0000 
     19 C13       -11.2970  -23.6890    2.4190 C.ar      1 E3P1        0.0000 
     20 C14       -11.3980  -24.9210    1.8160 C.ar      1 E3P1        0.0000 
     21 C15        -9.9850  -18.8270    3.9210 C.ar      1 E3P1        0.0000 
     22 C16       -10.8530  -19.8840    4.4860 C.ar      1 E3P1        0.0000 
     23 C17       -10.9480  -21.1010    3.8580 C.ar      1 E3P1        0.0000 
     24 C19       -10.1750  -21.3460    2.6150 C.ar      1 E3P1        0.0000 
     25 C35        -9.3700  -20.3750    2.0920 C.ar      1 E3P1        0.0000 
     26 C36        -9.2570  -19.0440    2.7850 C.ar      1 E3P1        0.0000 
     27 C37        -9.8910  -17.5350    4.6580 C.ar      1 E3P1        0.0000 
     28 C38        -9.6200  -16.2550    3.9410 C.ar      1 E3P1        0.0000 
     29 C39        -9.5220  -15.1040    4.6660 C.ar      1 E3P1        0.0000 
     30 C40        -9.6690  -15.1420    6.1540 C.ar      1 E3P1        0.0000 
     31 C41        -9.9010  -16.3170    6.8060 C.ar      1 E3P1        0.0000 
     32 C42       -10.0150  -17.5770    6.0170 C.ar      1 E3P1        0.0000 
     33 H         -13.0536  -28.8335    0.5523 H         1 E3P1        0.0000 
     34 H         -10.2104  -32.1501    0.9167 H         1 E3P1        0.0000 
     35 H         -10.2007  -30.9116   -0.3506 H         1 E3P1        0.0000 
     36 H         -12.6648  -31.1496    1.3288 H         1 E3P1        0.0000 
     37 H         -12.3451  -32.4412    0.1585 H         1 E3P1        0.0000 
     38 H         -14.4637  -29.1128   -1.8071 H         1 E3P1        0.0000 
     39 H         -15.8124  -30.2972   -1.7463 H         1 E3P1        0.0000 
     40 H         -12.0417  -30.6664   -1.5909 H         1 E3P1        0.0000 
     41 H         -12.6709  -26.4699   -0.0463 H         1 E3P1        0.0000 
     42 H         -11.8857  -26.0646   -1.5823 H         1 E3P1        0.0000 
     43 H          -9.7419  -26.6469   -0.7345 H         1 E3P1        0.0000 
     44 H         -10.4525  -27.3773    0.7151 H         1 E3P1        0.0000 
     45 H          -8.9147  -24.5012   -0.4973 H         1 E3P1        0.0000 
     46 H          -8.7311  -22.3742    0.5939 H         1 E3P1        0.0000 
     47 H         -11.8934  -23.4065    3.1969 H         1 E3P1        0.0000 
     48 H         -12.0630  -25.6247    2.0947 H         1 E3P1        0.0000 
     49 H         -11.3591  -19.6627    5.3400 H         1 E3P1        0.0000 
     50 H         -11.5278  -21.8586    4.2010 H         1 E3P1        0.0000 
     51 H          -8.8260  -20.4894    1.2442 H         1 E3P1        0.0000 
     52 H          -8.6387  -18.3662    2.3694 H         1 E3P1        0.0000 
     53 H          -9.5204  -16.3012    2.9382 H         1 E3P1        0.0000 
     54 H          -9.3502  -14.1919    4.2501 H         1 E3P1        0.0000 
     55 H          -9.5850  -14.2436    6.6377 H         1 E3P1        0.0000 
     56 H         -10.0031  -16.3931    7.8100 H         1 E3P1        0.0000 
     57 H         -10.1838  -18.4305    6.5385 H         1 E3P1        0.0000 
@<TRIPOS>BOND
     1    3    1 1    
     2   11    1 ar   
     3   13    1 ar   
     4    7    2 1    
     5   10    2 am   
     6   33    2 1    
     7    5    3 1    
     8   34    3 1    
     9   35    3 1    
    10   10    4 2    
    11    7    5 1    
    12   36    5 1    
    13   37    5 1    
    14    8    6 am   
    15   38    6 1    
    16   39    6 1    
    17    8    7 1    
    18   40    7 1    
    19    9    8 2    
    20   12   10 1    
    21   14   12 1    
    22   41   12 1    
    23   42   12 1    
    24   15   14 1    
    25   43   14 1    
    26   44   14 1    
    27   16   15 ar   
    28   20   15 ar   
    29   17   16 ar   
    30   45   16 1    
    31   18   17 ar   
    32   46   17 1    
    33   19   18 ar   
    34   24   18 1    
    35   20   19 ar   
    36   47   19 1    
    37   48   20 1    
    38   22   21 ar   
    39   26   21 ar   
    40   27   21 1    
    41   23   22 ar   
    42   49   22 1    
    43   24   23 ar   
    44   50   23 1    
    45   25   24 ar   
    46   26   25 ar   
    47   51   25 1    
    48   52   26 1    
    49   28   27 ar   
    50   32   27 ar   
    51   29   28 ar   
    52   53   28 1    
    53   30   29 ar   
    54   54   29 1    
    55   31   30 ar   
    56   55   30 1    
    57   32   31 ar   
    58   56   31 1    
    59   57   32 1    
@<TRIPOS>SUBSTRUCTURE
     1 E3P1        1 GROUP   
@<TRIPOS>SET

