#    Name: 2ZMF_2_CAVITY_N1_6.mol2
#    Modification time : Tue Mar 11 06:04:41 2014

@<TRIPOS>MOLECULE
2ZMF_2_CAVITY_N1_6.mol2
   44     0     6     0     0
SMALL
NO_CHARGES


@<TRIPOS>ATOM
      1 CA        -19.4680   16.7949   89.5877 C.3       5 GLY6        0.0000 
      2 CA        -18.1669   16.0832   89.3625 C.3       5 GLY6        0.0000 
      3 CA        -20.1442   15.8627   88.6267 C.3       5 GLY6        0.0000 
      4 CZ        -18.8432   15.1510   88.4014 C.ar      4 PHE5        0.0000 
      5 CA        -17.5421   14.4393   88.1762 C.3       5 GLY6        0.0000 
      6 CA        -20.8205   14.9305   87.6656 C.3       5 GLY6        0.0000 
      7 DU        -19.5194   14.2188   87.4404 H         6 CUB7        0.0000 
      8 CZ        -18.2184   13.5071   87.2152 C.ar      4 PHE5        0.0000 
      9 OG        -20.1957   13.2866   86.4793 O.2       1 SER1        0.0000 
     10 OG        -20.8720   12.3544   85.5182 O.2       1 SER1        0.0000 
     11 NZ        -21.5483   11.4222   84.5572 N.2       3 LYS4        0.0000 
     12 CZ        -20.2472   10.7105   84.3319 C.ar      4 PHE5        0.0000 
     13 CA        -19.1519   17.7301   88.4583 C.3       5 GLY6        0.0000 
     14 O         -17.8509   17.0184   88.2331 O.2       2 ALA2        0.0000 
     15 CZ        -21.1293   17.5096   87.7224 C.ar      4 PHE5        0.0000 
     16 N         -19.8282   16.7979   87.4972 N.2       2 ALA2        0.0000 
     17 N         -18.5271   16.0862   87.2720 N.2       2 ALA2        0.0000 
     18 CA        -17.2261   15.3745   87.0468 C.3       5 GLY6        0.0000 
     19 CZ        -21.8055   16.5774   86.7614 C.ar      4 PHE5        0.0000 
     20 CZ        -20.5045   15.8657   86.5361 C.ar      4 PHE5        0.0000 
     21 N         -19.2034   15.1540   86.3109 N.2       2 ALA2        0.0000 
     22 N         -17.9023   14.4423   86.0857 N.2       2 ALA2        0.0000 
     23 CA        -21.1807   14.9335   85.5751 C.3       5 GLY6        0.0000 
     24 N         -19.8797   14.2218   85.3499 N.2       2 ALA2        0.0000 
     25 CA        -18.5786   13.5101   85.1247 C.3       5 GLY6        0.0000 
     26 CZ        -21.8570   14.0013   84.6140 C.ar      4 PHE5        0.0000 
     27 CZ        -20.5560   13.2896   84.3888 C.ar      4 PHE5        0.0000 
     28 OG        -19.2549   12.5779   84.1636 O.2       1 SER1        0.0000 
     29 CZ        -21.2322   12.3574   83.4277 C.ar      4 PHE5        0.0000 
     30 CA        -19.9312   11.6457   83.2025 C.3       5 GLY6        0.0000 
     31 CZ        -21.9085   11.4252   82.4666 C.ar      4 PHE5        0.0000 
     32 CZ        -20.6074   10.7135   82.2414 C.ar      4 PHE5        0.0000 
     33 CZ        -20.8647   15.8686   84.4456 C.ar      4 PHE5        0.0000 
     34 N         -19.5636   15.1569   84.2204 N.2       2 ALA2        0.0000 
     35 N         -18.2626   14.4452   83.9952 N.2       2 ALA2        0.0000 
     36 CZ        -20.2399   14.2247   83.2594 C.ar      4 PHE5        0.0000 
     37 CA        -18.9389   13.5130   83.0341 C.3       5 GLY6        0.0000 
     38 CZ        -20.9162   13.2925   82.2983 C.ar      4 PHE5        0.0000 
     39 CA        -19.6151   12.5808   82.0731 C.3       5 GLY6        0.0000 
     40 CZ        -21.5925   12.3603   81.3372 C.ar      4 PHE5        0.0000 
     41 CA        -20.2914   11.6486   81.1120 C.3       5 GLY6        0.0000 
     42 CA        -19.9239   15.1599   82.1299 C.3       5 GLY6        0.0000 
     43 CA        -18.6228   14.4482   81.9047 C.3       5 GLY6        0.0000 
     44 N         -20.6002   14.2277   81.1689 N.2       2 ALA2        0.0000 
@<TRIPOS>BOND
@<TRIPOS>SUBSTRUCTURE
     1 SER1        9 GROUP   
     2 ALA2       14 GROUP   
     3 LYS4       11 GROUP   
     4 PHE5        4 GROUP   
     5 GLY6        1 GROUP   
     6 CUB7        7 GROUP   
@<TRIPOS>SET

