#    Name: 2zmf_CMP_2_INTS_M
#    Modification time : Tue Mar 25 10:50:30 2014

@<TRIPOS>MOLECULE
2zmf_CMP_2_INTS_M
   54     0     9     0     0
SMALL
NO_CHARGES


@<TRIPOS>ATOM
      1 N         -16.6600   18.6395   88.5115 N.am      2 SEC2        0.0000 
      2 N         -17.2040   17.3250   88.1940 N.am      8 SEL2        0.0000 
      3 N         -16.1160   19.9540   88.8290 N.am      5 SEP2        0.0000 
      4 N         -16.7145   17.7265   86.9925 N.am      2 SEC2        0.0000 
      5 N         -16.2250   18.1280   85.7910 N.am      5 SEP2        0.0000 
      6 N         -16.4755   17.2220   90.7275 N.am      2 SEC2        0.0000 
      7 N         -17.2790   16.0970   90.4310 N.am      8 SEL2        0.0000 
      8 N         -15.6720   18.3470   91.0240 N.am      5 SEP2        0.0000 
      9 N         -17.6525   15.5595   91.6685 N.am      2 SEC2        0.0000 
     10 N         -18.0260   15.0220   92.9060 N.am      5 SEP2        0.0000 
     11 CA        -20.8645   17.6125   86.1895 C.3       3 GLC5        0.0000 
     12 CA        -20.2200   16.6580   87.9810 C.3       9 GLL5        0.0000 
     13 CA        -21.5090   18.5670   84.3980 C.3       6 GLP5        0.0000 
     14 CA        -20.9530   18.3170   88.4035 C.3       3 GLC5        0.0000 
     15 CA        -21.6860   19.9760   88.8260 C.3       6 GLP5        0.0000 
     16 CA        -21.8890   15.9970   88.5190 C.3       3 GLC5        0.0000 
     17 CA        -23.5580   15.3360   89.0570 C.3       6 GLP5        0.0000 
     18 CA        -21.7515   14.5905   87.9485 C.3       3 GLC5        0.0000 
     19 CA        -20.0630   15.2950   87.3890 C.3       9 GLL5        0.0000 
     20 CA        -23.4400   13.8860   88.5080 C.3       6 GLP5        0.0000 
     21 CA        -17.4640   12.0640   86.5090 C.3       3 GLC5        0.0000 
     22 CA        -18.8470   13.5410   86.3850 C.3       9 GLL5        0.0000 
     23 CA        -16.0810   10.5870   86.6330 C.3       6 GLP5        0.0000 
     24 O         -19.8645   10.9740   87.4515 O.2       1 ALC1        0.0000 
     25 O         -18.9770   12.4600   87.3300 O.2       7 ALL1        0.0000 
     26 O         -20.7520    9.4880   87.5730 O.2       4 ALP1        0.0000 
     27 O         -18.7220   11.3220   86.8650 O.2       1 ALC1        0.0000 
     28 O         -18.4670   10.1840   86.4000 O.2       4 ALP1        0.0000 
     29 CA        -22.0755   13.7560   86.4145 C.3       3 GLC5        0.0000 
     30 CA        -20.2370   13.7040   85.7390 C.3       9 GLL5        0.0000 
     31 CA        -23.9140   13.8080   87.0900 C.3       6 GLP5        0.0000 
     32 CA        -20.7320   15.4495   81.3465 C.3       3 GLC5        0.0000 
     33 CA        -20.7390   13.4320   82.1650 C.3       9 GLL5        0.0000 
     34 CA        -20.7250   17.4670   80.5280 C.3       6 GLP5        0.0000 
     35 CA        -18.5245   13.4405   82.3455 C.3       3 GLC5        0.0000 
     36 CA        -16.3100   13.4490   82.5260 C.3       6 GLP5        0.0000 
     37 CA        -20.1480   11.7495   79.9910 C.3       3 GLC5        0.0000 
     38 CA        -21.3560   12.7000   81.1470 C.3       9 GLL5        0.0000 
     39 CA        -18.9400   10.7990   78.8350 C.3       6 GLP5        0.0000 
     40 O         -20.8855   14.2400   79.0375 O.2       1 ALC1        0.0000 
     41 O         -21.3240   13.1650   79.8670 O.2       7 ALL1        0.0000 
     42 O         -20.4470   15.3150   78.2080 O.2       4 ALP1        0.0000 
     43 O         -22.2860   12.5720   79.0140 O.2       1 ALC1        0.0000 
     44 O         -23.2480   11.9790   78.1610 O.2       4 ALP1        0.0000 
     45 N         -22.6710   10.4260   80.8285 N.am      2 SEC2        0.0000 
     46 N         -21.9790   11.5140   81.4750 N.am      8 SEL2        0.0000 
     47 N         -23.3630    9.3380   80.1820 N.am      5 SEP2        0.0000 
     48 CA        -22.3545    9.2325   83.3930 C.3       3 GLC5        0.0000 
     49 CA        -22.0370   11.0800   82.7390 C.3       9 GLL5        0.0000 
     50 CA        -22.6720    7.3850   84.0470 C.3       6 GLP5        0.0000 
     51 CA        -17.9825   13.2335   88.4007 C.3       3 GLC5        0.0000 
     52 CA        -17.2250   12.2530   90.0850 C.3       6 GLP5        0.0000 
     53 CA        -16.7515   14.0645   87.1068 C.3       3 GLC5        0.0000 
     54 CA        -14.7630   13.9150   87.4970 C.3       6 GLP5        0.0000 
@<TRIPOS>BOND
@<TRIPOS>SUBSTRUCTURE
     1 ALC1       24 GROUP        1 X    ALC  0     ROOT ALC X 1
     2 SEC2        1 GROUP        1 X    SEC  0     **** SEC X 2
     3 GLC5       11 GROUP        1 X    GLC  0     **** GLC X 6
     4 ALP1       26 GROUP        1 Y    ALP  0     ROOT ALP Y 8
     5 SEP2        3 GROUP        1 Y    SEP  0     **** SEP Y 9
     6 GLP5       13 GROUP        1 Y    GLP  0     **** GLP Y 13
     7 ALL1       25 GROUP        1 Z    ALL  0     ROOT ALL Z 15
     8 SEL2        2 GROUP        1 Z    SEL  0     **** SEL Z 16
     9 GLL5       12 GROUP        1 Z    GLL  0     **** GLL Z 20
@<TRIPOS>SET

