#    Name: 2zmf_CMP_2_ligand
#    Modification time : Tue Mar 25 10:50:30 2014

@<TRIPOS>MOLECULE
2zmf_CMP_2_ligand
   33    36     1     0     0
SMALL
NO_CHARGES


@<TRIPOS>ATOM
      1 P         -17.8820   16.2770   89.0100 P.3       1 CMP2001     0.0000 
      2 O1P       -17.2040   17.3250   88.1940 O.co2     1 CMP2001     0.0000 
      3 O2P       -17.2790   16.0970   90.4310 O.co2     1 CMP2001     0.0000 
      4 O5'       -19.4100   16.8030   89.1560 O.3       1 CMP2001     0.0000 
      5 C5'       -20.2200   16.6580   87.9810 C.3       1 CMP2001     0.0000 
      6 C4'       -20.0630   15.2950   87.3890 C.3       1 CMP2001     0.0000 
      7 O4'       -20.7590   14.9990   86.1460 O.3       1 CMP2001     0.0000 
      8 C3'       -18.6330   14.8870   87.0480 C.3       1 CMP2001     0.0000 
      9 O3'       -17.8880   14.8660   88.2660 O.3       1 CMP2001     0.0000 
     10 C2'       -18.8470   13.5410   86.3850 C.3       1 CMP2001     0.0000 
     11 O2'       -18.9770   12.4600   87.3300 O.3       1 CMP2001     0.0000 
     12 C1'       -20.2370   13.7040   85.7390 C.3       1 CMP2001     0.0000 
     13 N9        -20.2910   13.8540   84.2720 N.pl3     1 CMP2001     0.0000 
     14 C8        -19.7970   14.8660   83.4980 C.2       1 CMP2001     0.0000 
     15 N7        -20.0710   14.6040   82.2070 N.2       1 CMP2001     0.0000 
     16 C5        -20.7390   13.4320   82.1650 C.ar      1 CMP2001     0.0000 
     17 C6        -21.3560   12.7000   81.1470 C.ar      1 CMP2001     0.0000 
     18 N6        -21.3240   13.1650   79.8670 N.pl3     1 CMP2001     0.0000 
     19 N1        -21.9790   11.5140   81.4750 N.ar      1 CMP2001     0.0000 
     20 C2        -22.0370   11.0800   82.7390 C.ar      1 CMP2001     0.0000 
     21 N3        -21.4990   11.7930   83.7630 N.ar      1 CMP2001     0.0000 
     22 C4        -20.8610   12.9590   83.4890 C.ar      1 CMP2001     0.0000 
     23 H         -19.9450   17.4060   87.2175 H         1 CMP2001     0.0000 
     24 H         -21.2866   16.8183   88.2149 H         1 CMP2001     0.0000 
     25 H         -20.3968   14.5257   88.1365 H         1 CMP2001     0.0000 
     26 H         -18.2763   15.5791   86.3310 H         1 CMP2001     0.0000 
     27 H         -18.1559   13.3818   85.6327 H         1 CMP2001     0.0000 
     28 H         -20.8971   12.9479   86.0681 H         1 CMP2001     0.0000 
     29 H         -19.3275   15.6410   83.8355 H         1 CMP2001     0.0000 
     30 H         -20.8833   14.0524   79.7321 H         1 CMP2001     0.0000 
     31 H         -21.7441   12.5780   79.1750 H         1 CMP2001     0.0000 
     32 H         -22.5097   10.1635   82.9555 H         1 CMP2001     0.0000 
     33 H         -19.1808   11.6539   86.7745 H         1 CMP2001     0.0000 
@<TRIPOS>BOND
     1    2    1 ar   
     2    3    1 ar   
     3    4    1 1    
     4    9    1 1    
     5    5    4 1    
     6    6    5 1    
     7   23    5 1    
     8   24    5 1    
     9    7    6 1    
    10    8    6 1    
    11   25    6 1    
    12   12    7 1    
    13    9    8 1    
    14   10    8 1    
    15   26    8 1    
    16   11   10 1    
    17   12   10 1    
    18   27   10 1    
    19   33   11 1    
    20   13   12 1    
    21   28   12 1    
    22   14   13 1    
    23   22   13 1    
    24   15   14 2    
    25   29   14 1    
    26   16   15 1    
    27   17   16 ar   
    28   22   16 ar   
    29   18   17 1    
    30   19   17 ar   
    31   30   18 1    
    32   31   18 1    
    33   20   19 ar   
    34   21   20 ar   
    35   32   20 1    
    36   22   21 ar   
@<TRIPOS>SUBSTRUCTURE
     1 CMP2001     1 GROUP   
@<TRIPOS>SET

