#    Name: 3stx_BKA_1_INTS_M
#    Modification time : Mon Mar 24 18:35:58 2014

@<TRIPOS>MOLECULE
3stx_BKA_1_INTS_M
   22     0     6     0     0
SMALL
NO_CHARGES


@<TRIPOS>ATOM
      1 CA         17.6405   -4.0380   -0.6345 C.3       2 GLC5        0.0000 
      2 CA         17.0920   -5.4480    0.2300 C.3       6 GLL5        0.0000 
      3 CA         18.1890   -2.6280   -1.4990 C.3       4 GLP5        0.0000 
      4 N          16.2080   -7.9490    2.3615 N.am      1 SEC2        0.0000 
      5 N          15.8350   -7.1600    1.3660 N.am      5 SEL2        0.0000 
      6 N          16.5810   -8.7380    3.3570 N.am      3 SEP2        0.0000 
      7 CA         20.5930   -6.6440   -1.5485 C.3       2 GLC5        0.0000 
      8 CA         19.6630   -5.9280   -0.0880 C.3       6 GLL5        0.0000 
      9 CA         21.5230   -7.3600   -3.0090 C.3       4 GLP5        0.0000 
     10 CA         19.3990   -5.2810    2.9475 C.3       2 GLC5        0.0000 
     11 CA         20.1740   -5.2820    1.1990 C.3       6 GLL5        0.0000 
     12 CA         18.6240   -5.2800    4.6960 C.3       4 GLP5        0.0000 
     13 CA         21.0288   -6.9745    1.5128 C.3       2 GLC5        0.0000 
     14 CA         22.1390   -8.3440    2.4700 C.3       4 GLP5        0.0000 
     15 CA         22.0485   -6.4320    1.7515 C.3       2 GLC5        0.0000 
     16 CA         21.2610   -4.2470    0.9140 C.3       6 GLL5        0.0000 
     17 CA         22.2835   -3.7775   -0.8060 C.3       2 GLC5        0.0000 
     18 CA         22.6550   -4.7930    1.1520 C.3       6 GLL5        0.0000 
     19 CA         22.6090   -3.0350   -2.6450 C.3       4 GLP5        0.0000 
     20 CA         19.3894   -3.7770   -0.3821 C.3       2 GLC5        0.0000 
     21 CA         21.9250   -4.0370    3.0915 C.3       2 GLC5        0.0000 
     22 CA         21.8920   -3.5540    5.1500 C.3       4 GLP5        0.0000 
@<TRIPOS>BOND
@<TRIPOS>SUBSTRUCTURE
     1 SEC2        4 GROUP        1 X    SEC  0     ROOT SEC X 2
     2 GLC5        1 GROUP        1 X    GLC  0     **** GLC X 6
     3 SEP2        6 GROUP        1 Y    SEP  0     ROOT SEP Y 9
     4 GLP5        3 GROUP        1 Y    GLP  0     **** GLP Y 13
     5 SEL2        5 GROUP        1 Z    SEL  0     ROOT SEL Z 16
     6 GLL5        2 GROUP        1 Z    GLL  0     **** GLL Z 20
@<TRIPOS>SET

