#    Name: 3stx_BKA_1_ligand
#    Modification time : Mon Mar 24 18:35:58 2014

@<TRIPOS>MOLECULE
3stx_BKA_1_ligand
   21    20     1     0     0
SMALL
NO_CHARGES


@<TRIPOS>ATOM
      1 O3         18.0050   -7.6180   -0.1750 O.2       1 BKA266      0.0000 
      2 C3         18.2290   -6.4280   -0.0060 C.2       1 BKA266      0.0000 
      3 C2         17.0920   -5.4480    0.2300 C.3       1 BKA266      0.0000 
      4 C1         15.9380   -5.9450    1.0800 C.2       1 BKA266      0.0000 
      5 O1         15.8350   -7.1600    1.3660 O.co2     1 BKA266      0.0000 
      6 O2         15.1090   -5.0870    1.4690 O.co2     1 BKA266      0.0000 
      7 C4         19.6630   -5.9280   -0.0880 C.3       1 BKA266      0.0000 
      8 C5         20.1740   -5.2820    1.1990 C.3       1 BKA266      0.0000 
      9 C6         21.2610   -4.2470    0.9140 C.3       1 BKA266      0.0000 
     10 C7         22.6550   -4.7930    1.1520 C.3       1 BKA266      0.0000 
     11 H          16.6931   -5.1205   -0.7589 H         1 BKA266      0.0000 
     12 H          17.5088   -4.5247    0.6970 H         1 BKA266      0.0000 
     13 H          19.7428   -5.1950   -0.9095 H         1 BKA266      0.0000 
     14 H          20.3247   -6.7721   -0.3490 H         1 BKA266      0.0000 
     15 H          20.5788   -6.0568    1.8531 H         1 BKA266      0.0000 
     16 H          19.3414   -4.7962    1.7117 H         1 BKA266      0.0000 
     17 H          21.0976   -3.3736    1.5570 H         1 BKA266      0.0000 
     18 H          21.1726   -3.9165   -0.1281 H         1 BKA266      0.0000 
     19 H          23.3592   -4.1083    0.9639 H         1 BKA266      0.0000 
     20 H          22.7808   -5.0905    2.0984 H         1 BKA266      0.0000 
     21 H          22.8496   -5.5815    0.5686 H         1 BKA266      0.0000 
@<TRIPOS>BOND
     1    2    1 2    
     2    3    2 1    
     3    7    2 1    
     4    4    3 1    
     5   11    3 1    
     6   12    3 1    
     7    5    4 ar   
     8    6    4 ar   
     9    8    7 1    
    10   13    7 1    
    11   14    7 1    
    12    9    8 1    
    13   15    8 1    
    14   16    8 1    
    15   10    9 1    
    16   17    9 1    
    17   18    9 1    
    18   19   10 1    
    19   20   10 1    
    20   21   10 1    
@<TRIPOS>SUBSTRUCTURE
     1 BKA266      1 GROUP   
@<TRIPOS>SET

