#    Name: 1IMB_1_CAVITY_N1_6.mol2
#    Modification time : Tue Mar 11 08:24:17 2014

@<TRIPOS>MOLECULE
1IMB_1_CAVITY_N1_6.mol2
  134     0     5     0     0
SMALL
NO_CHARGES


@<TRIPOS>ATOM
      1 OG         -0.9895   49.5090   12.7897 O.2       1 SER1        0.0000 
      2 N          -0.9147   48.4057   13.8032 N.2       2 ALA2        0.0000 
      3 OG          0.0059   49.9414   10.9670 O.2       1 SER1        0.0000 
      4 N           0.0807   48.8381   11.9805 N.2       2 ALA2        0.0000 
      5 N           1.0760   49.2705   10.1578 N.2       2 ALA2        0.0000 
      6 CA          1.1508   48.1673   11.1713 C.3       4 GLY6        0.0000 
      7 CA         -1.0859   52.0465   13.3390 C.3       4 GLY6        0.0000 
      8 DU         -1.0112   50.9432   14.3525 H         5 CUB7        0.0000 
      9 NZ         -0.9364   49.8399   15.3660 N.2       3 LYS4        0.0000 
     10 NZ         -0.8617   48.7367   16.3795 N.2       3 LYS4        0.0000 
     11 OG         -0.0158   51.3756   12.5298 O.2       1 SER1        0.0000 
     12 DU          0.0590   50.2723   13.5433 H         5 CUB7        0.0000 
     13 N           0.1337   49.1691   14.5568 N.2       2 ALA2        0.0000 
     14 N           0.2085   48.0658   15.5703 N.2       2 ALA2        0.0000 
     15 OG          1.0544   50.7048   11.7206 O.2       1 SER1        0.0000 
     16 N           1.1291   49.6015   12.7341 N.2       2 ALA2        0.0000 
     17 N           1.2038   48.4982   13.7477 N.2       2 ALA2        0.0000 
     18 N           1.9003   53.3437    7.8709 N.2       2 ALA2        0.0000 
     19 OG          1.9750   52.2404    8.8844 O.2       1 SER1        0.0000 
     20 OG          2.0497   51.1372    9.8979 O.2       1 SER1        0.0000 
     21 CA          2.1245   50.0339   10.9114 C.3       4 GLY6        0.0000 
     22 CA          2.1992   48.9306   11.9250 C.3       4 GLY6        0.0000 
     23 N           2.9704   52.6729    7.0617 N.2       2 ALA2        0.0000 
     24 NZ          3.0451   51.5696    8.0752 N.2       3 LYS4        0.0000 
     25 NZ          3.1199   50.4663    9.0887 N.2       3 LYS4        0.0000 
     26 CA          3.1946   49.3631   10.1023 C.3       4 GLY6        0.0000 
     27 NZ          4.1900   49.7955    8.2796 N.2       3 LYS4        0.0000 
     28 NZ          6.3303   48.4538    6.6612 N.2       3 LYS4        0.0000 
     29 OG          6.4050   47.3505    7.6747 O.2       1 SER1        0.0000 
     30 N          -1.0425   49.1780   10.2133 N.2       2 ALA2        0.0000 
     31 O          -0.9678   48.0747   11.2268 O.2       2 ALA2        0.0000 
     32 NZ         -0.9581   51.2742   16.9289 N.2       3 LYS4        0.0000 
     33 CA         -0.1122   53.9131   13.0791 C.3       4 GLY6        0.0000 
     34 N          -0.0375   52.8099   14.0926 N.2       2 ALA2        0.0000 
     35 N           0.0373   51.7066   15.1062 N.2       2 ALA2        0.0000 
     36 NZ          0.1120   50.6033   16.1197 N.2       3 LYS4        0.0000 
     37 CA          0.9579   53.2423   12.2700 C.3       4 GLY6        0.0000 
     38 N           1.0327   52.1390   13.2835 N.2       2 ALA2        0.0000 
     39 N           1.1074   51.0357   14.2970 N.2       2 ALA2        0.0000 
     40 NZ          1.1822   49.9325   15.3105 N.2       3 LYS4        0.0000 
     41 NZ          1.2569   48.8292   16.3240 N.2       3 LYS4        0.0000 
     42 O           1.9533   53.6747   10.4473 O.2       2 ALA2        0.0000 
     43 OG          2.0281   52.5714   11.4608 O.2       1 SER1        0.0000 
     44 DU          2.1028   51.4681   12.4743 H         5 CUB7        0.0000 
     45 DU          2.1775   50.3649   13.4878 H         5 CUB7        0.0000 
     46 CA          2.2523   49.2616   14.5013 C.3       4 GLY6        0.0000 
     47 CA          2.9487   54.1071    8.6246 C.3       4 GLY6        0.0000 
     48 CA          3.0234   53.0038    9.6381 C.3       4 GLY6        0.0000 
     49 DU          3.0982   51.9006   10.6516 H         5 CUB7        0.0000 
     50 DU          3.1729   50.7973   11.6651 H         5 CUB7        0.0000 
     51 CA          3.2477   49.6940   12.6786 C.3       4 GLY6        0.0000 
     52 CA          3.3224   48.5908   13.6921 C.3       4 GLY6        0.0000 
     53 N           3.9441   54.5395    6.8019 N.2       2 ALA2        0.0000 
     54 N           4.0188   53.4362    7.8154 N.2       2 ALA2        0.0000 
     55 NZ          4.0936   52.3330    8.8289 N.2       3 LYS4        0.0000 
     56 DU          4.1683   51.2297    9.8424 H         5 CUB7        0.0000 
     57 NZ          5.0890   52.7654    7.0062 N.2       3 LYS4        0.0000 
     58 NZ          5.1637   51.6621    8.0197 N.2       3 LYS4        0.0000 
     59 NZ          5.2384   50.5589    9.0332 N.2       3 LYS4        0.0000 
     60 OG          5.3132   49.4556   10.0467 O.2       1 SER1        0.0000 
     61 NZ          6.2338   50.9913    7.2105 N.2       3 LYS4        0.0000 
     62 NZ          6.3086   49.8880    8.2240 N.2       3 LYS4        0.0000 
     63 OG          6.3833   48.7847    9.2376 O.2       1 SER1        0.0000 
     64 NZ          7.2292   51.4237    5.3878 N.2       3 LYS4        0.0000 
     65 NZ          7.3040   50.3204    6.4014 N.2       3 LYS4        0.0000 
     66 N           7.3787   49.2171    7.4149 N.2       2 ALA2        0.0000 
     67 N           7.4535   48.1139    8.4284 N.2       2 ALA2        0.0000 
     68 OG          7.5282   47.0106    9.4419 O.2       1 SER1        0.0000 
     69 CA          2.0064   54.0057   13.0236 C.3       4 GLY6        0.0000 
     70 N           2.0811   52.9024   14.0371 N.2       2 ALA2        0.0000 
     71 N           2.1559   51.7991   15.0506 N.2       2 ALA2        0.0000 
     72 NZ          2.2306   50.6959   16.0642 N.2       3 LYS4        0.0000 
     73 O           3.0017   54.4381   11.2009 O.2       2 ALA2        0.0000 
     74 O           3.0765   53.3348   12.2144 O.2       2 ALA2        0.0000 
     75 N           3.1512   52.2315   13.2280 N.2       2 ALA2        0.0000 
     76 DU          3.2260   51.1283   14.2415 H         5 CUB7        0.0000 
     77 CA          3.3007   50.0250   15.2550 C.3       4 GLY6        0.0000 
     78 OG          3.9971   54.8705    9.3782 O.2       1 SER1        0.0000 
     79 O           4.0719   53.7672   10.3917 O.2       2 ALA2        0.0000 
     80 DU          4.1466   52.6639   11.4053 H         5 CUB7        0.0000 
     81 DU          4.2961   50.4574   13.4323 H         5 CUB7        0.0000 
     82 NZ          4.3709   49.3541   14.4458 N.2       3 LYS4        0.0000 
     83 NZ          4.9925   55.3029    7.5555 N.2       3 LYS4        0.0000 
     84 NZ          5.0673   54.1996    8.5690 N.2       3 LYS4        0.0000 
     85 NZ          5.1420   53.0964    9.5826 N.2       3 LYS4        0.0000 
     86 DU          5.2168   51.9931   10.5961 H         5 CUB7        0.0000 
     87 DU          5.2915   50.8898   11.6096 H         5 CUB7        0.0000 
     88 DU          5.3662   49.7866   12.6231 H         5 CUB7        0.0000 
     89 NZ          5.4410   48.6833   13.6366 N.2       3 LYS4        0.0000 
     90 NZ          6.2121   52.4255    8.7734 N.2       3 LYS4        0.0000 
     91 DU          6.2869   51.3222    9.7869 H         5 CUB7        0.0000 
     92 DU          6.3616   50.2190   10.8004 H         5 CUB7        0.0000 
     93 OG          6.4364   49.1157   11.8139 O.2       1 SER1        0.0000 
     94 OG          6.5111   48.0124   12.8274 O.2       1 SER1        0.0000 
     95 NZ          7.2823   51.7547    7.9642 N.2       3 LYS4        0.0000 
     96 CA          7.3570   50.6514    8.9777 C.3       4 GLY6        0.0000 
     97 CA          7.4318   49.5481    9.9912 C.3       4 GLY6        0.0000 
     98 N           7.5065   48.4448   11.0047 N.2       2 ALA2        0.0000 
     99 NZ          8.3524   51.0838    7.1550 N.2       3 LYS4        0.0000 
    100 N           8.4272   49.9805    8.1685 N.2       2 ALA2        0.0000 
    101 CA          3.2790   51.4592   16.8178 C.3       4 GLY6        0.0000 
    102 O           4.1249   54.0982   12.9681 O.2       2 ALA2        0.0000 
    103 N           4.1997   52.9949   13.9816 N.2       2 ALA2        0.0000 
    104 N           4.2744   51.8916   14.9951 N.2       2 ALA2        0.0000 
    105 CA          4.3492   50.7884   16.0086 C.3       4 GLY6        0.0000 
    106 N           5.0456   55.6339   10.1319 N.2       2 ALA2        0.0000 
    107 O           5.1203   54.5306   11.1454 O.2       2 ALA2        0.0000 
    108 NZ          5.1951   53.4273   12.1589 N.2       3 LYS4        0.0000 
    109 DU          5.2698   52.3241   13.1724 H         5 CUB7        0.0000 
    110 DU          5.3446   51.2208   14.1860 H         5 CUB7        0.0000 
    111 NZ          5.4193   50.1175   15.1995 N.2       3 LYS4        0.0000 
    112 NZ          6.1157   54.9630    9.3227 N.2       3 LYS4        0.0000 
    113 NZ          6.1905   53.8597   10.3362 N.2       3 LYS4        0.0000 
    114 NZ          6.2652   52.7565   11.3497 N.2       3 LYS4        0.0000 
    115 NZ          6.3399   51.6532   12.3633 N.2       3 LYS4        0.0000 
    116 CA          6.4147   50.5499   13.3768 C.3       4 GLY6        0.0000 
    117 NZ          6.4894   49.4467   14.3903 N.2       3 LYS4        0.0000 
    118 NZ          7.2606   53.1889    9.5270 N.2       3 LYS4        0.0000 
    119 NZ          7.3353   52.0856   10.5406 N.2       3 LYS4        0.0000 
    120 NZ          7.4101   50.9824   11.5541 N.2       3 LYS4        0.0000 
    121 NZ          7.4848   49.8791   12.5676 N.2       3 LYS4        0.0000 
    122 CA          7.5596   48.7758   13.5811 C.3       4 GLY6        0.0000 
    123 O           8.3307   52.5180    8.7179 O.2       2 ALA2        0.0000 
    124 CA          8.4055   51.4148    9.7314 C.3       4 GLY6        0.0000 
    125 CA          8.4802   50.3115   10.7449 C.3       4 GLY6        0.0000 
    126 NZ          5.2481   53.7583   14.7353 N.2       3 LYS4        0.0000 
    127 O           5.3229   52.6550   15.7488 O.2       2 ALA2        0.0000 
    128 NZ          5.3976   51.5518   16.7623 N.2       3 LYS4        0.0000 
    129 NZ          6.3183   53.0874   13.9261 N.2       3 LYS4        0.0000 
    130 CA          6.3930   51.9842   14.9396 C.3       4 GLY6        0.0000 
    131 CA          6.4677   50.8809   15.9531 C.3       4 GLY6        0.0000 
    132 NZ          7.3884   52.4166   13.1169 N.2       3 LYS4        0.0000 
    133 CA          7.4631   51.3133   14.1304 C.3       4 GLY6        0.0000 
    134 CA          7.4414   52.7476   15.6933 C.3       4 GLY6        0.0000 
@<TRIPOS>BOND
@<TRIPOS>SUBSTRUCTURE
     1 SER1        1 GROUP   
     2 ALA2        2 GROUP   
     3 LYS4        9 GROUP   
     4 GLY6        6 GROUP   
     5 CUB7        8 GROUP   
@<TRIPOS>SET

