#    Name: 1imb_LIP_1_INTS_M
#    Modification time : Tue Mar 25 07:15:16 2014

@<TRIPOS>MOLECULE
1imb_LIP_1_INTS_M
   32     0     9     0     0
SMALL
NO_CHARGES


@<TRIPOS>ATOM
      1 CA          4.3625   51.0800   17.3315 C.3       3 GLC5        0.0000 
      2 CA          5.2050   51.8040   15.4280 C.3       9 GLL5        0.0000 
      3 CA          3.5200   50.3560   19.2350 C.3       6 GLP5        0.0000 
      4 N           6.0225   54.4155   16.4885 N.am      2 SEC2        0.0000 
      5 N           5.9070   54.0840   15.0880 N.am      8 SEL2        0.0000 
      6 N           6.1380   54.7470   17.8890 N.am      5 SEP2        0.0000 
      7 O           6.4700   55.0920   14.4305 O.2       1 ALC1        0.0000 
      8 O           5.9070   54.0840   15.0880 O.2       7 ALL1        0.0000 
      9 O           7.0330   56.1000   13.7730 O.2       4 ALP1        0.0000 
     10 O           6.4180   50.5840   17.5540 O.2       1 ALC1        0.0000 
     11 O           5.9780   51.7320   16.6350 O.2       7 ALL1        0.0000 
     12 O           6.8580   49.4360   18.4730 O.2       4 ALP1        0.0000 
     13 O           5.3145   48.7380   16.3545 O.2       1 ALC1        0.0000 
     14 O           4.4390   49.5310   15.6830 O.2       7 ALL1        0.0000 
     15 O           6.1900   47.9450   17.0260 O.2       4 ALP1        0.0000 
     16 N           3.7355   56.0580   12.0280 N.am      2 SEC2        0.0000 
     17 N           3.9410   54.9830   11.1610 N.am      8 SEL2        0.0000 
     18 N           3.5300   57.1330   12.8950 N.am      5 SEP2        0.0000 
     19 N           2.7860   55.8815   11.0100 N.am      2 SEC2        0.0000 
     20 N           1.6310   56.7800   10.8590 N.am      5 SEP2        0.0000 
     21 N           7.4195   56.2810   10.7425 N.am      2 SEC2        0.0000 
     22 N           6.2430   55.3780   10.3400 N.am      8 SEL2        0.0000 
     23 N           8.5960   57.1840   11.1450 N.am      5 SEP2        0.0000 
     24 N           7.1880   54.2635   10.0015 N.am      2 SEC2        0.0000 
     25 N           8.1330   53.1490    9.6630 N.am      5 SEP2        0.0000 
     26 CA          4.7015   53.8935   16.1875 C.3       3 GLC5        0.0000 
     27 CA          5.8670   52.8100   14.4680 C.3       9 GLL5        0.0000 
     28 CA          3.8670   55.4800   17.4270 C.3       6 GLP5        0.0000 
     29 CA          6.9710   53.0600   16.3650 C.3       3 GLC5        0.0000 
     30 CA          8.4060   53.8130   17.7820 C.3       6 GLP5        0.0000 
     31 CA          7.2155   50.6005   15.4395 C.3       3 GLC5        0.0000 
     32 CA          9.2720   50.0880   15.7650 C.3       6 GLP5        0.0000 
@<TRIPOS>BOND
@<TRIPOS>SUBSTRUCTURE
     1 ALC1        7 GROUP        1 X    ALC  0     ROOT ALC X 1
     2 SEC2        4 GROUP        1 X    SEC  0     **** SEC X 2
     3 GLC5        1 GROUP        1 X    GLC  0     **** GLC X 6
     4 ALP1        9 GROUP        1 Y    ALP  0     ROOT ALP Y 8
     5 SEP2        6 GROUP        1 Y    SEP  0     **** SEP Y 9
     6 GLP5        3 GROUP        1 Y    GLP  0     **** GLP Y 13
     7 ALL1        8 GROUP        1 Z    ALL  0     ROOT ALL Z 15
     8 SEL2        5 GROUP        1 Z    SEL  0     **** SEL Z 16
     9 GLL5        2 GROUP        1 Z    GLL  0     **** GLL Z 20
@<TRIPOS>SET

