#    Name: 1imb_LIP_1_ligand
#    Modification time : Tue Mar 25 07:15:16 2014

@<TRIPOS>MOLECULE
1imb_LIP_1_ligand
   27    27     1     0     0
SMALL
NO_CHARGES


@<TRIPOS>ATOM
      1 C1          5.1470   52.8980   13.0920 C.3       1 LIP279      0.0000 
      2 C2          5.8670   52.8100   14.4680 C.3       1 LIP279      0.0000 
      3 C3          5.2050   51.8040   15.4280 C.3       1 LIP279      0.0000 
      4 C4          5.1130   50.4220   14.8000 C.3       1 LIP279      0.0000 
      5 C5          4.3680   50.4830   13.4640 C.3       1 LIP279      0.0000 
      6 C6          5.0910   51.4540   12.4840 C.3       1 LIP279      0.0000 
      7 P1          5.2330   54.3830   10.9070 P.3       1 LIP279      0.0000 
      8 O1          5.8910   53.7990   12.2140 O.3       1 LIP279      0.0000 
      9 O2          5.9070   54.0840   15.0880 O.3       1 LIP279      0.0000 
     10 O3          5.9780   51.7320   16.6350 O.3       1 LIP279      0.0000 
     11 O4          4.4390   49.5310   15.6830 O.3       1 LIP279      0.0000 
     12 O5          4.3020   49.1680   12.8990 O.3       1 LIP279      0.0000 
     13 O6          6.4270   50.9850   12.2420 O.3       1 LIP279      0.0000 
     14 O7          3.9410   54.9830   11.1610 O.co2     1 LIP279      0.0000 
     15 O8          6.2430   55.3780   10.3400 O.co2     1 LIP279      0.0000 
     16 O9          5.1650   53.2710    9.8540 O.co2     1 LIP279      0.0000 
     17 H           4.1514   53.2291   13.2569 H         1 LIP279      0.0000 
     18 H           6.8848   52.4506   14.2752 H         1 LIP279      0.0000 
     19 H           4.2043   52.1547   15.6360 H         1 LIP279      0.0000 
     20 H           6.1221   50.0762   14.5987 H         1 LIP279      0.0000 
     21 H           3.3812   50.8800   13.6472 H         1 LIP279      0.0000 
     22 H           4.5169   51.5024   11.5795 H         1 LIP279      0.0000 
     23 H           6.3270   54.6882   14.4108 H         1 LIP279      0.0000 
     24 H           5.9691   50.7653   16.8906 H         1 LIP279      0.0000 
     25 H           5.1653   48.9971   16.1159 H         1 LIP279      0.0000 
     26 H           4.4209   48.5473   13.6740 H         1 LIP279      0.0000 
     27 H           6.3141   50.1440   11.7129 H         1 LIP279      0.0000 
@<TRIPOS>BOND
     1    2    1 1    
     2    6    1 1    
     3    8    1 1    
     4   17    1 1    
     5    3    2 1    
     6    9    2 1    
     7   18    2 1    
     8    4    3 1    
     9   10    3 1    
    10   19    3 1    
    11    5    4 1    
    12   11    4 1    
    13   20    4 1    
    14    6    5 1    
    15   12    5 1    
    16   21    5 1    
    17   13    6 1    
    18   22    6 1    
    19    8    7 1    
    20   14    7 ar   
    21   15    7 ar   
    22   16    7 ar   
    23   23    9 1    
    24   24   10 1    
    25   25   11 1    
    26   26   12 1    
    27   27   13 1    
@<TRIPOS>SUBSTRUCTURE
     1 LIP279      1 GROUP   
@<TRIPOS>SET

