#    Name: 3jya_LWG_1_INTS_M
#    Modification time : Tue Mar 25 18:02:25 2014

@<TRIPOS>MOLECULE
3jya_LWG_1_INTS_M
   44     0     3     0     0
SMALL
NO_CHARGES


@<TRIPOS>ATOM
      1 CA          5.7145   81.0195   -3.6510 C.3       1 GLC5        0.0000 
      2 CA          6.4060   81.9310   -1.7400 C.3       3 GLL5        0.0000 
      3 CA          5.0230   80.1080   -5.5620 C.3       2 GLP5        0.0000 
      4 CA          7.4560   82.5985   -3.4845 C.3       1 GLC5        0.0000 
      5 CA          8.5060   83.2660   -5.2290 C.3       2 GLP5        0.0000 
      6 CA          6.5090   79.9595   -1.8535 C.3       1 GLC5        0.0000 
      7 CA          6.6120   77.9880   -1.9670 C.3       2 GLP5        0.0000 
      8 CA          2.9545   80.8900   -3.1460 C.3       1 GLC5        0.0000 
      9 CA          3.3440   82.6020   -2.0740 C.3       3 GLL5        0.0000 
     10 CA          2.5650   79.1780   -4.2180 C.3       2 GLP5        0.0000 
     11 CA          1.8470   83.0855   -2.9925 C.3       1 GLC5        0.0000 
     12 CA          0.3500   83.5690   -3.9110 C.3       2 GLP5        0.0000 
     13 CA          1.5430   81.7320   -2.5920 C.3       1 GLC5        0.0000 
     14 CA         -0.2580   80.8620   -3.1100 C.3       2 GLP5        0.0000 
     15 CA          8.8700   83.3770   -0.2915 C.3       1 GLC5        0.0000 
     16 CA          7.7730   81.7580   -0.7340 C.3       3 GLL5        0.0000 
     17 CA          9.9670   84.9960    0.1510 C.3       2 GLP5        0.0000 
     18 CA          1.8525   84.0510   -0.5765 C.3       1 GLC5        0.0000 
     19 CA          3.4340   83.0620    0.6360 C.3       3 GLL5        0.0000 
     20 CA          0.2710   85.0400   -1.7890 C.3       2 GLP5        0.0000 
     21 CA          1.5710   82.4740    1.3085 C.3       1 GLC5        0.0000 
     22 CA         -0.2920   81.8860    1.9810 C.3       2 GLP5        0.0000 
     23 CA          6.7702   83.9948   -0.5783 C.3       1 GLC5        0.0000 
     24 CA          5.4250   82.3980   -0.4130 C.3       3 GLL5        0.0000 
     25 CA          7.6250   85.8250   -0.0800 C.3       2 GLP5        0.0000 
     26 CA          5.4603   83.8498   -1.9783 C.3       1 GLC5        0.0000 
     27 CA          5.0050   85.5350   -2.8800 C.3       2 GLP5        0.0000 
     28 CA          4.7647   80.7163   -0.5897 C.3       1 GLC5        0.0000 
     29 CA          3.6140   79.2680   -0.1030 C.3       2 GLP5        0.0000 
     30 CA          4.3615   84.0935   -2.0877 C.3       1 GLC5        0.0000 
     31 CA          4.0920   82.7020   -0.5170 C.3       3 GLL5        0.0000 
     32 CA          3.6660   80.9600   -0.6993 C.3       1 GLC5        0.0000 
     33 CA          5.5125   84.7620    3.0750 C.3       1 GLC5        0.0000 
     34 CA          5.4450   82.8000    1.9380 C.3       3 GLL5        0.0000 
     35 CA          5.1280   86.7000    3.4680 C.3       2 GLP5        0.0000 
     36 CA          7.7760   80.0547    0.4585 C.3       1 GLC5        0.0000 
     37 CA          7.4770   82.0590    0.5700 C.3       3 GLL5        0.0000 
     38 CA          7.9270   78.2010    0.9990 C.3       2 GLP5        0.0000 
     39 CA          3.6923   81.1778    0.5677 C.3       1 GLC5        0.0000 
     40 CA          3.7425   84.8042    1.2386 C.3       1 GLC5        0.0000 
     41 CA          3.5500   86.6110    1.5270 C.3       2 GLP5        0.0000 
     42 CA          6.8741   84.1737    0.6144 C.3       1 GLC5        0.0000 
     43 CA          4.6997   80.9417    0.6302 C.3       1 GLC5        0.0000 
     44 CA          6.1260   82.4310    0.7890 C.3       3 GLL5        0.0000 
@<TRIPOS>BOND
@<TRIPOS>SUBSTRUCTURE
     1 GLC5        1 GROUP        1 X    GLC  0     ROOT GLC X 6
     2 GLP5        3 GROUP        1 Y    GLP  0     ROOT GLP Y 13
     3 GLL5        2 GROUP        1 Z    GLL  0     ROOT GLL Z 20
@<TRIPOS>SET

