#    Name: 3jya_LWG_1_ligand
#    Modification time : Tue Mar 25 18:02:25 2014

@<TRIPOS>MOLECULE
3jya_LWG_1_ligand
   20    22     1     0     0
SMALL
NO_CHARGES


@<TRIPOS>ATOM
      1 C1          9.0290   81.3600   -1.2340 C.2       1 LWG1000     0.0000 
      2 N1          9.9220   81.3140   -0.2000 N.am      1 LWG1000     0.0000 
      3 O1          9.2720   81.1030   -2.4030 O.2       1 LWG1000     0.0000 
      4 S1          6.4060   81.9310   -1.7400 S.3       1 LWG1000     0.0000 
      5 CL1         3.3440   82.6020   -2.0740 Cl        1 LWG1000     0.0000 
      6 C2          9.6000   81.6150    1.1010 C.2       1 LWG1000     0.0000 
      7 N2          8.4500   81.9850    1.5720 N.2       1 LWG1000     0.0000 
      8 CL2         6.3490   82.8480    3.4260 Cl        1 LWG1000     0.0000 
      9 C3          7.4770   82.0590    0.5700 C.2       1 LWG1000     0.0000 
     10 C4          7.7730   81.7580   -0.7340 C.2       1 LWG1000     0.0000 
     11 C5          5.4250   82.3980   -0.4130 C.ar      1 LWG1000     0.0000 
     12 C6          4.0920   82.7020   -0.5170 C.ar      1 LWG1000     0.0000 
     13 C7          3.4340   83.0620    0.6360 C.ar      1 LWG1000     0.0000 
     14 C8          4.1070   83.1130    1.8410 C.ar      1 LWG1000     0.0000 
     15 C9          5.4450   82.8000    1.9380 C.ar      1 LWG1000     0.0000 
     16 C10         6.1260   82.4310    0.7890 C.ar      1 LWG1000     0.0000 
     17 H          10.9223   81.0297   -0.4118 H         1 LWG1000     0.0000 
     18 H          10.4398   81.5222    1.8078 H         1 LWG1000     0.0000 
     19 H           2.4256   83.2972    0.6029 H         1 LWG1000     0.0000 
     20 H           3.5863   83.3966    2.7006 H         1 LWG1000     0.0000 
@<TRIPOS>BOND
     1    2    1 am   
     2    3    1 2    
     3   10    1 1    
     4    6    2 1    
     5   17    2 1    
     6   10    4 1    
     7   11    4 1    
     8   12    5 1    
     9    7    6 2    
    10   18    6 1    
    11    9    7 1    
    12   15    8 1    
    13   10    9 2    
    14   16    9 1    
    15   12   11 ar   
    16   16   11 ar   
    17   13   12 ar   
    18   14   13 ar   
    19   19   13 1    
    20   15   14 ar   
    21   20   14 1    
    22   16   15 ar   
@<TRIPOS>SUBSTRUCTURE
     1 LWG1000     1 GROUP   
@<TRIPOS>SET

