#    Name: 2ojg_19A_1_INTS_M
#    Modification time : Tue Mar 25 22:47:45 2014

@<TRIPOS>MOLECULE
2ojg_19A_1_INTS_M
   63     0     9     0     0
SMALL
NO_CHARGES


@<TRIPOS>ATOM
      1 CA         -8.9115   15.0250   40.1520 C.3       3 GLC5        0.0000 
      2 CA         -9.1600   13.4150   41.2390 C.3       9 GLL5        0.0000 
      3 CA         -8.6630   16.6350   39.0650 C.3       6 GLP5        0.0000 
      4 CA         -9.9200   11.9555   42.5335 C.3       3 GLC5        0.0000 
      5 CA        -10.6800   10.4960   43.8280 C.3       6 GLP5        0.0000 
      6 CA         -7.8730   12.2760   41.8300 C.3       3 GLC5        0.0000 
      7 CA         -6.5860   11.1370   42.4210 C.3       6 GLP5        0.0000 
      8 CA        -11.1125   15.9920   41.1975 C.3       3 GLC5        0.0000 
      9 CA        -11.4360   14.2250   41.9340 C.3       9 GLL5        0.0000 
     10 CA        -10.7890   17.7590   40.4610 C.3       6 GLP5        0.0000 
     11 CA        -11.0580   12.3605   42.8810 C.3       3 GLC5        0.0000 
     12 N          -9.6985   11.6630   38.3740 N.am      2 SEC2        0.0000 
     13 N         -10.4080   11.4850   39.8100 N.am      8 SEL2        0.0000 
     14 N          -8.9890   11.8410   36.9380 N.am      5 SEP2        0.0000 
     15 CA        -11.4400   12.2755   38.4435 C.3       3 GLC5        0.0000 
     16 CA        -12.6640   11.9330   40.2690 C.3       9 GLL5        0.0000 
     17 CA        -10.2160   12.6180   36.6180 C.3       6 GLP5        0.0000 
     18 CA        -13.1185    9.8590   40.2035 C.3       3 GLC5        0.0000 
     19 CA        -13.5730    7.7850   40.1380 C.3       6 GLP5        0.0000 
     20 CA        -16.5500   11.1235   38.6195 C.3       3 GLC5        0.0000 
     21 CA        -14.5920   11.1230   39.4520 C.3       9 GLL5        0.0000 
     22 CA        -18.5080   11.1240   37.7870 C.3       6 GLP5        0.0000 
     23 CA        -14.7640    9.4305   38.1775 C.3       3 GLC5        0.0000 
     24 CA        -14.9360    7.7380   36.9030 C.3       6 GLP5        0.0000 
     25 O         -12.9280   10.4475   38.2015 O.2       1 ALC1        0.0000 
     26 O         -13.2440   11.1880   39.2590 O.2       7 ALL1        0.0000 
     27 O         -12.6120    9.7070   37.1440 O.2       4 ALP1        0.0000 
     28 CA        -19.7360   12.2860   40.8875 C.3       3 GLC5        0.0000 
     29 CA        -18.1310   12.7850   42.2610 C.3       9 GLL5        0.0000 
     30 CA        -21.3410   11.7870   39.5140 C.3       6 GLP5        0.0000 
     31 CA        -19.2795   11.2775   43.1235 C.3       3 GLC5        0.0000 
     32 CA        -20.4280    9.7700   43.9860 C.3       6 GLP5        0.0000 
     33 CA        -15.2320   13.2540   44.4830 C.3       3 GLC5        0.0000 
     34 CA        -16.2800   14.8590   43.6720 C.3       9 GLL5        0.0000 
     35 CA        -14.1840   11.6490   45.2940 C.3       6 GLP5        0.0000 
     36 CA        -13.5830   13.7320   39.3413 C.3       3 GLC5        0.0000 
     37 CA        -13.7000   12.3210   41.0960 C.3       9 GLL5        0.0000 
     38 CA        -13.9840   15.3370   38.0000 C.3       6 GLP5        0.0000 
     39 CA        -11.9310   11.3115   42.2553 C.3       3 GLC5        0.0000 
     40 CA        -15.5727   13.0765   38.9675 C.3       3 GLC5        0.0000 
     41 CA        -14.9110   11.8230   40.5940 C.3       9 GLL5        0.0000 
     42 CA        -16.3940   14.6800   37.9120 C.3       6 GLP5        0.0000 
     43 CA        -14.1623    9.6290   40.0805 C.3       3 GLC5        0.0000 
     44 CA        -18.2420   14.8457   41.8905 C.3       3 GLC5        0.0000 
     45 CA        -16.8370   13.1240   41.9330 C.3       9 GLL5        0.0000 
     46 CA        -19.0000   16.7370   41.6840 C.3       6 GLP5        0.0000 
     47 CA        -16.4520   14.2280   40.0170 C.3       3 GLC5        0.0000 
     48 CA        -16.1830   14.4280   42.3110 C.3       9 GLL5        0.0000 
     49 CA        -17.4175   15.7870   41.7617 C.3       3 GLC5        0.0000 
     50 CA        -15.4870   15.2460   41.3680 C.3       9 GLL5        0.0000 
     51 CA        -15.3038   15.8487   39.7653 C.3       3 GLC5        0.0000 
     52 CA        -15.4160   15.8440   37.9570 C.3       6 GLP5        0.0000 
     53 CA        -16.9753   16.7010   42.0685 C.3       3 GLC5        0.0000 
     54 CA        -14.8960   16.4610   41.7790 C.3       9 GLL5        0.0000 
     55 CA        -15.3978   18.3255   41.7220 C.3       3 GLC5        0.0000 
     56 CA        -15.8450   19.9860   40.9910 C.3       6 GLP5        0.0000 
     57 CA        -16.0423   17.4840   45.2477 C.3       3 GLC5        0.0000 
     58 CA        -15.0050   16.8690   43.1270 C.3       9 GLL5        0.0000 
     59 CA        -16.7340   18.5020   46.8950 C.3       6 GLP5        0.0000 
     60 CA        -17.4940   16.0990   42.7785 C.3       3 GLC5        0.0000 
     61 CA        -15.6960   16.0630   44.0740 C.3       9 GLL5        0.0000 
     62 CA        -14.1599   10.7790   41.9974 C.3       3 GLC5        0.0000 
     63 CA        -14.3530    9.7580   43.6420 C.3       6 GLP5        0.0000 
@<TRIPOS>BOND
@<TRIPOS>SUBSTRUCTURE
     1 ALC1       25 GROUP        1 X    ALC  0     ROOT ALC X 1
     2 SEC2       12 GROUP        1 X    SEC  0     **** SEC X 2
     3 GLC5        1 GROUP        1 X    GLC  0     **** GLC X 6
     4 ALP1       27 GROUP        1 Y    ALP  0     ROOT ALP Y 8
     5 SEP2       14 GROUP        1 Y    SEP  0     **** SEP Y 9
     6 GLP5        3 GROUP        1 Y    GLP  0     **** GLP Y 13
     7 ALL1       26 GROUP        1 Z    ALL  0     ROOT ALL Z 15
     8 SEL2       13 GROUP        1 Z    SEL  0     **** SEL Z 16
     9 GLL5        2 GROUP        1 Z    GLL  0     **** GLL Z 20
@<TRIPOS>SET

