#    Name: 2ojg_19A_1_ligand
#    Modification time : Tue Mar 25 22:47:45 2014

@<TRIPOS>MOLECULE
2ojg_19A_1_ligand
   37    39     1     0     0
SMALL
NO_CHARGES


@<TRIPOS>ATOM
      1 C1         -9.1600   13.4150   41.2390 C.3       1 19A360      0.0000 
      2 N2        -10.6260   13.2630   41.1770 N.am      1 19A360      0.0000 
      3 C3        -11.4360   14.2250   41.9340 C.3       1 19A360      0.0000 
      4 C4        -11.1760   12.2240   40.4120 C.2       1 19A360      0.0000 
      5 O5        -10.4080   11.4850   39.8100 O.2       1 19A360      0.0000 
      6 C6        -12.6640   11.9330   40.2690 C.2       1 19A360      0.0000 
      7 C7        -13.7000   12.3210   41.0960 C.2       1 19A360      0.0000 
      8 C8        -14.9110   11.8230   40.5940 C.2       1 19A360      0.0000 
      9 C9        -14.5920   11.1230   39.4520 C.2       1 19A360      0.0000 
     10 N10       -13.2440   11.1880   39.2590 N.pl3     1 19A360      0.0000 
     11 C12       -16.2930   12.0050   41.1940 C.2       1 19A360      0.0000 
     12 N13       -17.2510   11.0900   41.1270 N.2       1 19A360      0.0000 
     13 N14       -18.3840   11.5640   41.7800 N.pl3     1 19A360      0.0000 
     14 C16       -18.1310   12.7850   42.2610 C.2       1 19A360      0.0000 
     15 C17       -16.8370   13.1240   41.9330 C.2       1 19A360      0.0000 
     16 C18       -16.1830   14.4280   42.3110 C.ar      1 19A360      0.0000 
     17 C19       -15.4870   15.2460   41.3680 C.ar      1 19A360      0.0000 
     18 C20       -14.8960   16.4610   41.7790 C.ar      1 19A360      0.0000 
     19 C21       -15.0050   16.8690   43.1270 C.ar      1 19A360      0.0000 
     20 C22       -15.6960   16.0630   44.0740 C.ar      1 19A360      0.0000 
     21 C23       -16.2800   14.8590   43.6720 C.ar      1 19A360      0.0000 
     22 H         -13.6167   12.8473   41.8901 H         1 19A360      0.0000 
     23 H         -15.2216   10.6665   38.8890 H         1 19A360      0.0000 
     24 H         -12.7584   10.7800   38.5318 H         1 19A360      0.0000 
     25 H         -19.2066   11.0665   41.8565 H         1 19A360      0.0000 
     26 H         -18.7343   13.3504   42.7554 H         1 19A360      0.0000 
     27 H         -15.4210   14.9444   40.3956 H         1 19A360      0.0000 
     28 H         -14.3944   17.0395   41.1079 H         1 19A360      0.0000 
     29 H         -14.5845   17.7518   43.4295 H         1 19A360      0.0000 
     30 H         -15.7589   16.3743   45.0451 H         1 19A360      0.0000 
     31 H         -16.7824   14.2724   44.3426 H         1 19A360      0.0000 
     32 H          -8.6910   12.7173   40.6974 H         1 19A360      0.0000 
     33 H          -8.8638   14.3044   40.8909 H         1 19A360      0.0000 
     34 H          -8.8179   13.3381   42.1755 H         1 19A360      0.0000 
     35 H         -11.2296   14.1958   42.9120 H         1 19A360      0.0000 
     36 H         -11.2784   15.1643   41.6291 H         1 19A360      0.0000 
     37 H         -12.4147   14.0451   41.8355 H         1 19A360      0.0000 
@<TRIPOS>BOND
     1    2    1 1    
     2   32    1 1    
     3   33    1 1    
     4   34    1 1    
     5    3    2 1    
     6    4    2 am   
     7   35    3 1    
     8   36    3 1    
     9   37    3 1    
    10    5    4 2    
    11    6    4 1    
    12    7    6 2    
    13   10    6 1    
    14    8    7 1    
    15   22    7 1    
    16    9    8 2    
    17   11    8 1    
    18   10    9 1    
    19   23    9 1    
    20   24   10 1    
    21   12   11 2    
    22   15   11 1    
    23   13   12 1    
    24   14   13 1    
    25   25   13 1    
    26   15   14 2    
    27   26   14 1    
    28   16   15 1    
    29   17   16 ar   
    30   21   16 ar   
    31   18   17 ar   
    32   27   17 1    
    33   19   18 ar   
    34   28   18 1    
    35   20   19 ar   
    36   29   19 1    
    37   21   20 ar   
    38   30   20 1    
    39   31   21 1    
@<TRIPOS>SUBSTRUCTURE
     1 19A360      1 GROUP   
@<TRIPOS>SET

