#    Name: 1cbr_REA_1_INTS_M
#    Modification time : Mon Mar 24 20:29:00 2014

@<TRIPOS>MOLECULE
1cbr_REA_1_INTS_M
   73     0     9     0     0
SMALL
NO_CHARGES


@<TRIPOS>ATOM
      1 CA          5.0995    0.1495  -12.3935 C.3       3 GLC5        0.0000 
      2 CA          6.0790    1.2390  -10.8790 C.3       9 GLL5        0.0000 
      3 CA          4.1200   -0.9400  -13.9080 C.3       6 GLP5        0.0000 
      4 CA          9.4655    3.3390  -12.0605 C.3       3 GLC5        0.0000 
      5 CA          8.1090    2.6160  -10.4790 C.3       9 GLL5        0.0000 
      6 CA         10.8220    4.0620  -13.6420 C.3       6 GLP5        0.0000 
      7 CA          2.8205    4.3745  -10.5245 C.3       3 GLC5        0.0000 
      8 CA          4.8670    4.7410   -9.7870 C.3       9 GLL5        0.0000 
      9 CA          0.7740    4.0080  -11.2620 C.3       6 GLP5        0.0000 
     10 CA          1.2880    8.6880   -7.0605 C.3       3 GLC5        0.0000 
     11 CA          3.5130    8.6700   -7.1050 C.3       9 GLL5        0.0000 
     12 CA         -0.9370    8.7060   -7.0160 C.3       6 GLP5        0.0000 
     13 CA          5.4320   12.3045   -4.1275 C.3       3 GLC5        0.0000 
     14 CA          3.7030   11.3990   -4.6890 C.3       9 GLL5        0.0000 
     15 CA          7.1610   13.2100   -3.5660 C.3       6 GLP5        0.0000 
     16 CA          2.3405    3.0040  -10.5905 C.3       3 GLC5        0.0000 
     17 CA          3.9070    2.0000   -9.9190 C.3       9 GLL5        0.0000 
     18 CA          2.6425    2.5880   -8.3865 C.3       3 GLC5        0.0000 
     19 CA          1.3780    3.1760   -6.8540 C.3       6 GLP5        0.0000 
     20 CA          3.9750    3.4325  -14.1545 C.3       3 GLC5        0.0000 
     21 CA          4.5820    2.7980  -12.2130 C.3       9 GLL5        0.0000 
     22 CA          3.3680    4.0670  -16.0960 C.3       6 GLP5        0.0000 
     23 CA          4.4750    4.8750  -12.6875 C.3       3 GLC5        0.0000 
     24 CA          4.3680    6.9520  -13.1620 C.3       6 GLP5        0.0000 
     25 CA          2.6780    3.4030  -11.7375 C.3       3 GLC5        0.0000 
     26 CA          4.3510    0.9290  -13.0605 C.3       3 GLC5        0.0000 
     27 CA          8.8755    6.7305   -9.6580 C.3       3 GLC5        0.0000 
     28 CA          7.9800    4.9390   -9.5360 C.3       9 GLL5        0.0000 
     29 CA          9.7710    8.5220   -9.7800 C.3       6 GLP5        0.0000 
     30 CA          9.9360    4.8735  -10.5355 C.3       3 GLC5        0.0000 
     31 CA         11.8920    4.8080  -11.5350 C.3       6 GLP5        0.0000 
     32 CA          6.8975    5.9125  -11.1065 C.3       3 GLC5        0.0000 
     33 CA          5.8150    6.8860  -12.6770 C.3       6 GLP5        0.0000 
     34 CA          9.1495    4.6345   -8.1230 C.3       3 GLC5        0.0000 
     35 CA         10.3190    4.3300   -6.7100 C.3       6 GLP5        0.0000 
     36 CA          3.5420    6.8765  -11.2140 C.3       3 GLC5        0.0000 
     37 CA          2.7160    6.8010   -9.2660 C.3       9 GLL5        0.0000 
     38 CA          2.7655    8.7090   -9.8350 C.3       3 GLC5        0.0000 
     39 CA          2.8150   10.6170  -10.4040 C.3       6 GLP5        0.0000 
     40 CA          1.7450    5.4045  -10.2640 C.3       3 GLC5        0.0000 
     41 CA          1.5245   10.7865   -8.3345 C.3       3 GLC5        0.0000 
     42 CA          1.7300   10.7780   -6.1620 C.3       9 GLL5        0.0000 
     43 CA          1.3190   10.7950  -10.5070 C.3       6 GLP5        0.0000 
     44 CA          0.1330   11.6035   -6.2120 C.3       3 GLC5        0.0000 
     45 CA         -1.4640   12.4290   -6.2620 C.3       6 GLP5        0.0000 
     46 CA          0.3965    9.7420   -6.5890 C.3       3 GLC5        0.0000 
     47 NZ          2.4565   13.8820   -6.2730 N.4       2 LYC4        0.0000 
     48 NZ          2.5240   13.4330   -4.7040 N.4       8 LYL4        0.0000 
     49 NZ          3.5680   14.9390   -7.7760 N.4       5 LYP4        0.0000 
     50 N           3.3680   14.2200   -5.6600 N.am      1 SEC2        0.0000 
     51 N           2.5240   13.4330   -4.7040 N.am      7 SEL2        0.0000 
     52 N           4.2120   15.0070   -6.6160 N.am      4 SEP2        0.0000 
     53 N           2.4565   13.8820   -6.2730 N.am      1 SEC2        0.0000 
     54 N           2.3890   14.3310   -7.8420 N.am      4 SEP2        0.0000 
     55 CA          7.0765    0.8433  -13.0757 C.3       3 GLC5        0.0000 
     56 CA          7.3850    0.2730  -15.0420 C.3       6 GLP5        0.0000 
     57 CA          7.1490   -0.5697  -11.6337 C.3       3 GLC5        0.0000 
     58 CA          7.4570    1.5880  -11.3400 C.3       9 GLL5        0.0000 
     59 CA          7.5300   -2.5530  -12.1580 C.3       6 GLP5        0.0000 
     60 CA          6.1525    5.3015  -11.4042 C.3       3 GLC5        0.0000 
     61 CA          7.1710    3.7700  -10.1040 C.3       9 GLL5        0.0000 
     62 CA          5.3765    6.0495  -10.9975 C.3       3 GLC5        0.0000 
     63 CA          4.2160    4.4990   -7.4985 C.3       3 GLC5        0.0000 
     64 CA          3.4940    3.7850   -5.6790 C.3       6 GLP5        0.0000 
     65 CA          3.8550    5.4710   -6.8563 C.3       3 GLC5        0.0000 
     66 CA          4.0490    6.7120   -8.5120 C.3       9 GLL5        0.0000 
     67 CA          3.3815    9.3765   -8.8670 C.3       3 GLC5        0.0000 
     68 CA          4.3830    7.6020   -7.5550 C.3       9 GLL5        0.0000 
     69 CA          5.2605    9.7183   -7.8288 C.3       3 GLC5        0.0000 
     70 CA          6.5660   10.6140   -8.9090 C.3       6 GLP5        0.0000 
     71 CA          1.4279   10.3914   -4.2088 C.3       3 GLC5        0.0000 
     72 CA          3.1640   10.5920   -5.6370 C.3       9 GLL5        0.0000 
     73 CA          0.2740    9.8960   -2.7550 C.3       6 GLP5        0.0000 
@<TRIPOS>BOND
@<TRIPOS>SUBSTRUCTURE
     1 SEC2       50 GROUP        1 X    SEC  0     ROOT SEC X 2
     2 LYC4       47 GROUP        1 X    LYC  0     **** LYC X 4
     3 GLC5        1 GROUP        1 X    GLC  0     **** GLC X 6
     4 SEP2       52 GROUP        1 Y    SEP  0     ROOT SEP Y 9
     5 LYP4       49 GROUP        1 Y    LYP  0     **** LYP Y 11
     6 GLP5        3 GROUP        1 Y    GLP  0     **** GLP Y 13
     7 SEL2       51 GROUP        1 Z    SEL  0     ROOT SEL Z 16
     8 LYL4       48 GROUP        1 Z    LYL  0     **** LYL Z 18
     9 GLL5        2 GROUP        1 Z    GLL  0     **** GLL Z 20
@<TRIPOS>SET

