#    Name: 1cbr_REA_1_ligand
#    Modification time : Mon Mar 24 20:29:00 2014

@<TRIPOS>MOLECULE
1cbr_REA_1_ligand
   49    49     1     0     0
SMALL
NO_CHARGES


@<TRIPOS>ATOM
      1 C1          5.0920    2.4270  -10.7940 C.3       1 REA200      0.0000 
      2 C2          6.0790    1.2390  -10.8790 C.3       1 REA200      0.0000 
      3 C3          7.4570    1.5880  -11.3400 C.3       1 REA200      0.0000 
      4 C4          8.1090    2.6160  -10.4790 C.3       1 REA200      0.0000 
      5 C5          7.1710    3.7700  -10.1040 C.2       1 REA200      0.0000 
      6 C6          5.8090    3.6640  -10.1590 C.2       1 REA200      0.0000 
      7 C7          4.8670    4.7410   -9.7870 C.2       1 REA200      0.0000 
      8 C8          5.0090    5.6850   -8.8490 C.2       1 REA200      0.0000 
      9 C9          4.0490    6.7120   -8.5120 C.2       1 REA200      0.0000 
     10 C10         4.3830    7.6020   -7.5550 C.2       1 REA200      0.0000 
     11 C11         3.5130    8.6700   -7.1050 C.2       1 REA200      0.0000 
     12 C12         3.9620    9.5090   -6.1670 C.2       1 REA200      0.0000 
     13 C13         3.1640   10.5920   -5.6370 C.2       1 REA200      0.0000 
     14 C14         3.7030   11.3990   -4.6890 C.2       1 REA200      0.0000 
     15 C15         3.0710   12.5430   -4.0160 C.2       1 REA200      0.0000 
     16 C16         3.9070    2.0000   -9.9190 C.3       1 REA200      0.0000 
     17 C17         4.5820    2.7980  -12.2130 C.3       1 REA200      0.0000 
     18 C18         7.9800    4.9390   -9.5360 C.3       1 REA200      0.0000 
     19 C19         2.7160    6.8010   -9.2660 C.3       1 REA200      0.0000 
     20 C20         1.7300   10.7780   -6.1620 C.3       1 REA200      0.0000 
     21 O1          2.5240   13.4330   -4.7040 O.co2     1 REA200      0.0000 
     22 O2          3.0900   12.6020   -2.7660 O.co2     1 REA200      0.0000 
     23 H           5.6368    0.4787  -11.5556 H         1 REA200      0.0000 
     24 H           6.1259    0.7650   -9.8767 H         1 REA200      0.0000 
     25 H           7.4106    1.9568  -12.3801 H         1 REA200      0.0000 
     26 H           8.0782    0.6748  -11.3550 H         1 REA200      0.0000 
     27 H           8.9867    3.0377  -10.9952 H         1 REA200      0.0000 
     28 H           8.4744    2.1513   -9.5489 H         1 REA200      0.0000 
     29 H           3.9580    4.7207  -10.3800 H         1 REA200      0.0000 
     30 H           5.9115    5.7173   -8.2664 H         1 REA200      0.0000 
     31 H           5.3236    7.5520   -7.0816 H         1 REA200      0.0000 
     32 H           2.5877    8.7358   -7.5272 H         1 REA200      0.0000 
     33 H           4.9282    9.4163   -5.7686 H         1 REA200      0.0000 
     34 H           4.7132   11.2133   -4.3621 H         1 REA200      0.0000 
     35 H           4.1978    1.7533   -8.9946 H         1 REA200      0.0000 
     36 H           3.2301    2.7305   -9.8282 H         1 REA200      0.0000 
     37 H           3.4322    1.2060  -10.2986 H         1 REA200      0.0000 
     38 H           5.3316    3.0627  -12.8196 H         1 REA200      0.0000 
     39 H           4.1082    2.0330  -12.6492 H         1 REA200      0.0000 
     40 H           3.9403    3.5645  -12.1884 H         1 REA200      0.0000 
     41 H           8.4905    4.6745   -8.7178 H         1 REA200      0.0000 
     42 H           8.6452    5.2862  -10.1970 H         1 REA200      0.0000 
     43 H           7.3931    5.7071   -9.2798 H         1 REA200      0.0000 
     44 H           2.8526    6.9455  -10.2460 H         1 REA200      0.0000 
     45 H           2.1759    5.9654   -9.1654 H         1 REA200      0.0000 
     46 H           2.1514    7.5567   -8.9342 H         1 REA200      0.0000 
     47 H           1.7140   10.9422   -7.1483 H         1 REA200      0.0000 
     48 H           1.1640    9.9718   -5.9898 H         1 REA200      0.0000 
     49 H           1.2735   11.5547   -5.7281 H         1 REA200      0.0000 
@<TRIPOS>BOND
     1    2    1 1    
     2    6    1 1    
     3   16    1 1    
     4   17    1 1    
     5    3    2 1    
     6   23    2 1    
     7   24    2 1    
     8    4    3 1    
     9   25    3 1    
    10   26    3 1    
    11    5    4 1    
    12   27    4 1    
    13   28    4 1    
    14    6    5 2    
    15   18    5 1    
    16    7    6 1    
    17    8    7 2    
    18   29    7 1    
    19    9    8 1    
    20   30    8 1    
    21   10    9 2    
    22   19    9 1    
    23   11   10 1    
    24   31   10 1    
    25   12   11 2    
    26   32   11 1    
    27   13   12 1    
    28   33   12 1    
    29   14   13 2    
    30   20   13 1    
    31   15   14 1    
    32   34   14 1    
    33   21   15 ar   
    34   22   15 ar   
    35   35   16 1    
    36   36   16 1    
    37   37   16 1    
    38   38   17 1    
    39   39   17 1    
    40   40   17 1    
    41   41   18 1    
    42   42   18 1    
    43   43   18 1    
    44   44   19 1    
    45   45   19 1    
    46   46   19 1    
    47   47   20 1    
    48   48   20 1    
    49   49   20 1    
@<TRIPOS>SUBSTRUCTURE
     1 REA200      1 GROUP   
@<TRIPOS>SET

