#    Name: 2r9v_ATP_1_INTS_M
#    Modification time : Mon Mar 24 23:29:26 2014

@<TRIPOS>MOLECULE
2r9v_ATP_1_INTS_M
   61     0    15     0     0
SMALL
NO_CHARGES


@<TRIPOS>ATOM
      1 N          63.1880    6.2715   83.6190 N.am      2 SEC2        0.0000 
      2 N          62.1670    5.8160   82.5340 N.am     12 SEL2        0.0000 
      3 N          64.2090    6.7270   84.7040 N.am      7 SEP2        0.0000 
      4 Zn         58.7145    6.4285   82.8920 Zn        4 ZIC7        0.0000 
      5 Zn         59.6290    5.9090   82.7190 Zn       14 ZIL7        0.0000 
      6 Zn         57.8000    6.9480   83.0650 Zn        9 ZIP7        0.0000 
      7 N          61.4375    3.7790   84.8610 N.am      2 SEC2        0.0000 
      8 N          60.8760    3.9540   83.7650 N.am     12 SEL2        0.0000 
      9 N          61.9990    3.6040   85.9570 N.am      7 SEP2        0.0000 
     10 NZ         61.8905    9.4005   83.5620 N.4       3 LYC4        0.0000 
     11 NZ         61.5040    8.8440   84.7890 N.4      13 LYL4        0.0000 
     12 NZ         62.2770    9.9570   82.3350 N.4       8 LYP4        0.0000 
     13 N          62.8395    8.8025   85.6935 N.am      2 SEC2        0.0000 
     14 N          61.5040    8.8440   84.7890 N.am     12 SEL2        0.0000 
     15 N          64.1750    8.7610   86.5980 N.am      7 SEP2        0.0000 
     16 N          61.7445    9.2510   86.3405 N.am      2 SEC2        0.0000 
     17 N          61.9850    9.6580   87.8920 N.am      7 SEP2        0.0000 
     18 N          60.6525    9.7985   85.6125 N.am      2 SEC2        0.0000 
     19 N          59.8010   10.7530   86.4360 N.am      7 SEP2        0.0000 
     20 N          61.8905    9.4005   83.5620 N.am      2 SEC2        0.0000 
     21 N          62.2770    9.9570   82.3350 N.am      7 SEP2        0.0000 
     22 Zn         58.4655    7.3720   83.8665 Zn        4 ZIC7        0.0000 
     23 Zn         59.1310    7.7960   84.6680 Zn       14 ZIL7        0.0000 
     24 N          58.1210    8.8135   85.0435 N.am      2 SEC2        0.0000 
     25 N          59.1310    7.7960   84.6680 N.am     12 SEL2        0.0000 
     26 N          57.1110    9.8310   85.4190 N.am      7 SEP2        0.0000 
     27 N          62.6890    6.4855   84.7195 N.am      2 SEC2        0.0000 
     28 N          61.1690    6.2440   84.7350 N.am     12 SEL2        0.0000 
     29 N          61.5840    4.9240   85.3460 N.am      2 SEC2        0.0000 
     30 N          56.9980    8.4145   87.9160 N.am      2 SEC2        0.0000 
     31 N          58.0350    7.4820   87.8660 N.am     12 SEL2        0.0000 
     32 N          55.9610    9.3470   87.9660 N.am      7 SEP2        0.0000 
     33 N          61.2065    8.5840   87.3170 N.am      2 SEC2        0.0000 
     34 N          60.4280    7.5100   86.7420 N.am     12 SEL2        0.0000 
     35 CA         62.8440    6.2005   87.5560 C.3       5 GLC5        0.0000 
     36 CA         61.4810    6.0090   89.0000 C.3      15 GLL5        0.0000 
     37 CA         64.2070    6.3920   86.1120 C.3      10 GLP5        0.0000 
     38 CA         61.1130    7.9960   88.7795 C.3       5 GLC5        0.0000 
     39 CA         60.7450    9.9830   88.5590 C.3      10 GLP5        0.0000 
     40 CA         63.0700    6.2435   91.1940 C.3       5 GLC5        0.0000 
     41 CA         61.6000    5.2390   90.3170 C.3      15 GLL5        0.0000 
     42 CA         64.5400    7.2480   92.0710 C.3      10 GLP5        0.0000 
     43 O          57.7290    5.2220   92.8955 O.2       1 ALC1        0.0000 
     44 O          58.5870    4.3800   92.2810 O.2      11 ALL1        0.0000 
     45 O          56.8710    6.0640   93.5100 O.2       6 ALP1        0.0000 
     46 CA         62.5295    6.6175   92.1840 C.3       5 GLC5        0.0000 
     47 CA         60.5190    5.9870   92.2970 C.3      15 GLL5        0.0000 
     48 CA         61.2930   10.7085   95.4785 C.3       5 GLC5        0.0000 
     49 CA         59.5860    9.8940   95.2510 C.3      15 GLL5        0.0000 
     50 CA         63.0000   11.5230   95.7060 C.3      10 GLP5        0.0000 
     51 O          58.8245   11.7985   96.5060 O.2       1 ALC1        0.0000 
     52 O          59.0570   11.1270   95.2690 O.2      11 ALL1        0.0000 
     53 O          58.5920   12.4700   97.7430 O.2       6 ALP1        0.0000 
     54 CA         62.2940    8.6735   95.8645 C.3       5 GLC5        0.0000 
     55 CA         60.6420    8.0330   96.3050 C.3      15 GLL5        0.0000 
     56 CA         63.9460    9.3140   95.4240 C.3      10 GLP5        0.0000 
     57 CA         62.0580    8.5520   94.7075 C.3       5 GLC5        0.0000 
     58 CA         60.1700    7.7900   93.9910 C.3      15 GLL5        0.0000 
     59 CA         57.9725    8.3274   94.8007 C.3       5 GLC5        0.0000 
     60 CA         59.5820    9.1490   93.9650 C.3      15 GLL5        0.0000 
     61 CA         56.0680    7.9990   95.3020 C.3      10 GLP5        0.0000 
@<TRIPOS>BOND
@<TRIPOS>SUBSTRUCTURE
     1 ALC1       43 GROUP        1 X    ALC  0     ROOT ALC X 1
     2 SEC2        1 GROUP        1 X    SEC  0     **** SEC X 2
     3 LYC4       10 GROUP        1 X    LYC  0     **** LYC X 4
     4 ZIC7        4 GROUP        1 X    ZIC  0     **** ZIC X 5
     5 GLC5       35 GROUP        1 X    GLC  0     **** GLC X 6
     6 ALP1       45 GROUP        1 Y    ALP  0     ROOT ALP Y 8
     7 SEP2        3 GROUP        1 Y    SEP  0     **** SEP Y 9
     8 LYP4       12 GROUP        1 Y    LYP  0     **** LYP Y 11
     9 ZIP7        6 GROUP        1 Y    ZIP  0     **** ZIP Y 12
    10 GLP5       37 GROUP        1 Y    GLP  0     **** GLP Y 13
    11 ALL1       44 GROUP        1 Z    ALL  0     ROOT ALL Z 15
    12 SEL2        2 GROUP        1 Z    SEL  0     **** SEL Z 16
    13 LYL4       11 GROUP        1 Z    LYL  0     **** LYL Z 18
    14 ZIL7        5 GROUP        1 Z    ZIL  0     **** ZIL Z 19
    15 GLL5       36 GROUP        1 Z    GLL  0     **** GLL Z 20
@<TRIPOS>SET

