#    Name: 2r9v_ATP_1_ligand
#    Modification time : Mon Mar 24 23:29:26 2014

@<TRIPOS>MOLECULE
2r9v_ATP_1_ligand
   43    45     1     0     0
SMALL
NO_CHARGES


@<TRIPOS>ATOM
      1 PG         60.9350    5.4250   83.3400 P.3       1 ATP506      0.0000 
      2 O1G        62.1670    5.8160   82.5340 O.co2     1 ATP506      0.0000 
      3 O2G        59.6290    5.9090   82.7190 O.co2     1 ATP506      0.0000 
      4 O3G        60.8760    3.9540   83.7650 O.co2     1 ATP506      0.0000 
      5 PB         60.5610    7.6770   85.1340 P.3       1 ATP506      0.0000 
      6 O1B        61.5040    8.8440   84.7890 O.co2     1 ATP506      0.0000 
      7 O2B        59.1310    7.7960   84.6680 O.co2     1 ATP506      0.0000 
      8 O3B        61.1690    6.2440   84.7350 O.3       1 ATP506      0.0000 
      9 PA         59.2680    6.6500   87.5520 P.3       1 ATP506      0.0000 
     10 O1A        59.1950    5.2780   86.9170 O.co2     1 ATP506      0.0000 
     11 O2A        58.0350    7.4820   87.8660 O.co2     1 ATP506      0.0000 
     12 O3A        60.4280    7.5100   86.7420 O.3       1 ATP506      0.0000 
     13 O5'        60.1420    6.5540   88.9280 O.3       1 ATP506      0.0000 
     14 C5'        61.4810    6.0090   89.0000 C.3       1 ATP506      0.0000 
     15 C4'        61.6000    5.2390   90.3170 C.3       1 ATP506      0.0000 
     16 O4'        61.6640    6.1380   91.4430 O.3       1 ATP506      0.0000 
     17 C3'        60.3740    4.3520   90.5730 C.3       1 ATP506      0.0000 
     18 O3'        60.7770    3.1390   91.2070 O.3       1 ATP506      0.0000 
     19 C2'        59.4830    5.1850   91.4920 C.3       1 ATP506      0.0000 
     20 O2'        58.5870    4.3800   92.2810 O.3       1 ATP506      0.0000 
     21 C1'        60.5190    5.9870   92.2970 C.3       1 ATP506      0.0000 
     22 N9         60.0440    7.3360   92.7360 N.pl3     1 ATP506      0.0000 
     23 C8         59.4500    8.2870   91.9840 C.2       1 ATP506      0.0000 
     24 N7         59.1610    9.4010   92.7050 N.2       1 ATP506      0.0000 
     25 C5         59.5820    9.1490   93.9650 C.ar      1 ATP506      0.0000 
     26 C6         59.5860    9.8940   95.2510 C.ar      1 ATP506      0.0000 
     27 N6         59.0570   11.1270   95.2690 N.pl3     1 ATP506      0.0000 
     28 N1         60.1090    9.2850   96.3540 N.ar      1 ATP506      0.0000 
     29 C2         60.6420    8.0330   96.3050 C.ar      1 ATP506      0.0000 
     30 N3         60.6860    7.2920   95.1680 N.ar      1 ATP506      0.0000 
     31 C4         60.1700    7.7900   93.9910 C.ar      1 ATP506      0.0000 
     32 H          62.2313    6.7929   88.9967 H         1 ATP506      0.0000 
     33 H          61.6751    5.3191   88.1853 H         1 ATP506      0.0000 
     34 H          62.4648    4.6065   90.2879 H         1 ATP506      0.0000 
     35 H          59.8731    4.2073   89.6528 H         1 ATP506      0.0000 
     36 H          58.9662    5.8951   90.8561 H         1 ATP506      0.0000 
     37 H          60.7906    5.3945   93.1633 H         1 ATP506      0.0000 
     38 H          59.2476    8.1884   91.0225 H         1 ATP506      0.0000 
     39 H          59.0877   11.6062   96.1462 H         1 ATP506      0.0000 
     40 H          58.6794   11.4565   94.4036 H         1 ATP506      0.0000 
     41 H          61.0401    7.6196   97.1953 H         1 ATP506      0.0000 
     42 H          60.2008    3.0689   92.0212 H         1 ATP506      0.0000 
     43 H          57.9634    5.0328   92.7110 H         1 ATP506      0.0000 
@<TRIPOS>BOND
     1    2    1 ar   
     2    3    1 ar   
     3    4    1 ar   
     4    8    1 1    
     5    6    5 ar   
     6    7    5 ar   
     7    8    5 1    
     8   12    5 1    
     9   10    9 ar   
    10   11    9 ar   
    11   12    9 1    
    12   13    9 1    
    13   14   13 1    
    14   15   14 1    
    15   32   14 1    
    16   33   14 1    
    17   16   15 1    
    18   17   15 1    
    19   34   15 1    
    20   21   16 1    
    21   18   17 1    
    22   19   17 1    
    23   35   17 1    
    24   42   18 1    
    25   20   19 1    
    26   21   19 1    
    27   36   19 1    
    28   43   20 1    
    29   22   21 1    
    30   37   21 1    
    31   23   22 1    
    32   31   22 1    
    33   24   23 2    
    34   38   23 1    
    35   25   24 1    
    36   26   25 ar   
    37   31   25 ar   
    38   27   26 1    
    39   28   26 ar   
    40   39   27 1    
    41   40   27 1    
    42   29   28 ar   
    43   30   29 ar   
    44   41   29 1    
    45   31   30 ar   
@<TRIPOS>SUBSTRUCTURE
     1 ATP506      1 GROUP   
@<TRIPOS>SET

