#    Name: 2ns1_ADP_1_INTS_M
#    Modification time : Tue Mar 25 21:33:42 2014

@<TRIPOS>MOLECULE
2ns1_ADP_1_INTS_M
   41     0     9     0     0
SMALL
NO_CHARGES


@<TRIPOS>ATOM
      1 NZ         16.4270    5.9645  128.4605 N.4       2 LYC4        0.0000 
      2 NZ         17.0020    5.2560  127.4330 N.4       8 LYL4        0.0000 
      3 NZ         15.8520    6.6730  129.4880 N.4       5 LYP4        0.0000 
      4 N          16.4270    5.9645  128.4605 N.am      1 SEC2        0.0000 
      5 N          17.0020    5.2560  127.4330 N.am      7 SEL2        0.0000 
      6 N          15.8520    6.6730  129.4880 N.am      4 SEP2        0.0000 
      7 NZ         17.2180    6.9325  128.4620 N.4       2 LYC4        0.0000 
      8 NZ         18.5840    7.1920  127.4360 N.4       8 LYL4        0.0000 
      9 N          17.2180    6.9325  128.4620 N.am      1 SEC2        0.0000 
     10 N          18.5840    7.1920  127.4360 N.am      7 SEL2        0.0000 
     11 N          19.3720    5.1930  124.7465 N.am      1 SEC2        0.0000 
     12 N          19.2020    5.0380  126.2530 N.am      7 SEL2        0.0000 
     13 N          19.5420    5.3480  123.2400 N.am      4 SEP2        0.0000 
     14 N          17.2255    9.0735  122.8730 N.am      1 SEC2        0.0000 
     15 N          16.4990    8.0490  123.5710 N.am      7 SEL2        0.0000 
     16 N          17.9520   10.0980  122.1750 N.am      4 SEP2        0.0000 
     17 N          16.5425   10.0070  125.1865 N.am      1 SEC2        0.0000 
     18 N          16.5090    8.8140  126.0290 N.am      7 SEL2        0.0000 
     19 N          16.5760   11.2000  124.3440 N.am      4 SEP2        0.0000 
     20 CA         16.5335    5.3200  123.6410 C.3       3 GLC5        0.0000 
     21 CA         14.8110    5.7330  124.5930 C.3       9 GLL5        0.0000 
     22 CA         18.2560    4.9070  122.6890 C.3       6 GLP5        0.0000 
     23 CA         11.9585    3.7185  124.4170 C.3       3 GLC5        0.0000 
     24 CA         13.3090    5.4610  124.4980 C.3       9 GLL5        0.0000 
     25 CA         10.6080    1.9760  124.3360 C.3       6 GLP5        0.0000 
     26 CA         11.0055    3.9425  125.0495 C.3       3 GLC5        0.0000 
     27 CA         11.4030    5.9090  125.7630 C.3       9 GLL5        0.0000 
     28 CA         12.2925    4.9670  127.4765 C.3       3 GLC5        0.0000 
     29 CA         13.1820    4.0250  129.1900 C.3       6 GLP5        0.0000 
     30 CA         12.6645    7.0895  128.9295 C.3       3 GLC5        0.0000 
     31 CA         10.8020    8.0820  128.6450 C.3       9 GLL5        0.0000 
     32 CA         14.5270    6.0970  129.2140 C.3       6 GLP5        0.0000 
     33 CA         11.7675    5.5420  128.4405 C.3       3 GLC5        0.0000 
     34 CA         10.3530    7.0590  127.6910 C.3       9 GLL5        0.0000 
     35 CA         14.7700    3.8715  125.3787 C.3       3 GLC5        0.0000 
     36 CA         15.4800    2.1460  126.2120 C.3       6 GLP5        0.0000 
     37 CA         13.4040    5.0690  122.2935 C.3       3 GLC5        0.0000 
     38 CA         13.8810    4.1180  120.4370 C.3       6 GLP5        0.0000 
     39 CA         10.8867    6.7378  122.5025 C.3       3 GLC5        0.0000 
     40 CA         12.5450    6.5790  123.8020 C.3       9 GLL5        0.0000 
     41 CA          9.9220    6.9540  120.9100 C.3       6 GLP5        0.0000 
@<TRIPOS>BOND
@<TRIPOS>SUBSTRUCTURE
     1 SEC2        4 GROUP        1 X    SEC  0     ROOT SEC X 2
     2 LYC4        1 GROUP        1 X    LYC  0     **** LYC X 4
     3 GLC5       20 GROUP        1 X    GLC  0     **** GLC X 6
     4 SEP2        6 GROUP        1 Y    SEP  0     ROOT SEP Y 9
     5 LYP4        3 GROUP        1 Y    LYP  0     **** LYP Y 11
     6 GLP5       22 GROUP        1 Y    GLP  0     **** GLP Y 13
     7 SEL2        5 GROUP        1 Z    SEL  0     ROOT SEL Z 16
     8 LYL4        2 GROUP        1 Z    LYL  0     **** LYL Z 18
     9 GLL5       21 GROUP        1 Z    GLL  0     **** GLL Z 20
@<TRIPOS>SET

