#    Name: 2ns1_ADP_1_ligand
#    Modification time : Tue Mar 25 21:33:42 2014

@<TRIPOS>MOLECULE
2ns1_ADP_1_ligand
   39    41     1     0     0
SMALL
NO_CHARGES


@<TRIPOS>ATOM
      1 PB         18.1240    5.9660  126.7230 P.3       1 ADP200      0.0000 
      2 O1B        17.0020    5.2560  127.4330 O.co2     1 ADP200      0.0000 
      3 O2B        18.5840    7.1920  127.4360 O.co2     1 ADP200      0.0000 
      4 O3B        19.2020    5.0380  126.2530 O.co2     1 ADP200      0.0000 
      5 PA         16.4470    7.6890  125.0410 P.3       1 ADP200      0.0000 
      6 O1A        16.4990    8.0490  123.5710 O.co2     1 ADP200      0.0000 
      7 O2A        16.5090    8.8140  126.0290 O.co2     1 ADP200      0.0000 
      8 O3A        17.5290    6.5070  125.3050 O.3       1 ADP200      0.0000 
      9 O5'        15.0490    6.9520  125.2570 O.3       1 ADP200      0.0000 
     10 C5'        14.8110    5.7330  124.5930 C.3       1 ADP200      0.0000 
     11 C4'        13.3090    5.4610  124.4980 C.3       1 ADP200      0.0000 
     12 O4'        12.7270    5.3280  125.7890 O.3       1 ADP200      0.0000 
     13 C3'        12.5450    6.5790  123.8020 C.3       1 ADP200      0.0000 
     14 O3'        12.5730    6.4250  122.3850 O.3       1 ADP200      0.0000 
     15 C2'        11.1580    6.4640  124.3880 C.3       1 ADP200      0.0000 
     16 O2'        10.3270    5.5310  123.6840 O.3       1 ADP200      0.0000 
     17 C1'        11.4030    5.9090  125.7630 C.3       1 ADP200      0.0000 
     18 N9         11.3730    6.8900  126.8540 N.pl3     1 ADP200      0.0000 
     19 C8         12.3860    7.7110  127.2100 C.2       1 ADP200      0.0000 
     20 N7         12.0500    8.4420  128.2950 N.2       1 ADP200      0.0000 
     21 C5         10.8020    8.0820  128.6450 C.ar      1 ADP200      0.0000 
     22 C6          9.8620    8.4560  129.6990 C.ar      1 ADP200      0.0000 
     23 N6         10.2020    9.3920  130.6120 N.pl3     1 ADP200      0.0000 
     24 N1          8.6500    7.8550  129.7110 N.ar      1 ADP200      0.0000 
     25 C2          8.3010    6.9170  128.8110 C.ar      1 ADP200      0.0000 
     26 N3          9.1190    6.5250  127.8130 N.ar      1 ADP200      0.0000 
     27 C4         10.3530    7.0590  127.6910 C.ar      1 ADP200      0.0000 
     28 H          15.2666    4.8780  125.1169 H         1 ADP200      0.0000 
     29 H          15.2098    5.7337  123.5663 H         1 ADP200      0.0000 
     30 H          13.1561    4.5522  123.9226 H         1 ADP200      0.0000 
     31 H          12.9700    7.5081  124.1357 H         1 ADP200      0.0000 
     32 H          10.7314    7.4221  124.4840 H         1 ADP200      0.0000 
     33 H          10.6804    5.1217  125.9618 H         1 ADP200      0.0000 
     34 H          13.2462    7.7678  126.7444 H         1 ADP200      0.0000 
     35 H          11.1030    9.8107  130.4984 H         1 ADP200      0.0000 
     36 H           9.5225    9.5830  131.3204 H         1 ADP200      0.0000 
     37 H           7.3433    6.4668  128.8889 H         1 ADP200      0.0000 
     38 H          13.4762    6.0460  122.1838 H         1 ADP200      0.0000 
     39 H          10.7288    5.4647  122.7706 H         1 ADP200      0.0000 
@<TRIPOS>BOND
     1    2    1 ar   
     2    3    1 ar   
     3    4    1 ar   
     4    8    1 1    
     5    6    5 ar   
     6    7    5 ar   
     7    8    5 1    
     8    9    5 1    
     9   10    9 1    
    10   11   10 1    
    11   28   10 1    
    12   29   10 1    
    13   12   11 1    
    14   13   11 1    
    15   30   11 1    
    16   17   12 1    
    17   14   13 1    
    18   15   13 1    
    19   31   13 1    
    20   38   14 1    
    21   16   15 1    
    22   17   15 1    
    23   32   15 1    
    24   39   16 1    
    25   18   17 1    
    26   33   17 1    
    27   19   18 1    
    28   27   18 1    
    29   20   19 2    
    30   34   19 1    
    31   21   20 1    
    32   22   21 ar   
    33   27   21 ar   
    34   23   22 1    
    35   24   22 ar   
    36   35   23 1    
    37   36   23 1    
    38   25   24 ar   
    39   26   25 ar   
    40   37   25 1    
    41   27   26 ar   
@<TRIPOS>SUBSTRUCTURE
     1 ADP200      1 GROUP   
@<TRIPOS>SET

