#    Name: 3rjc_06Z_1_INTS_M
#    Modification time : Tue Mar 25 11:34:29 2014

@<TRIPOS>MOLECULE
3rjc_06Z_1_INTS_M
   49     0     9     0     0
SMALL
NO_CHARGES


@<TRIPOS>ATOM
      1 N         117.4295   46.8940  -50.8965 N.am      2 SEC2        0.0000 
      2 N         118.3270   46.1870  -49.8130 N.am      8 SEL2        0.0000 
      3 N         116.5320   47.6010  -51.9800 N.am      5 SEP2        0.0000 
      4 O         119.8850   46.2175  -52.4165 O.2       1 ALC1        0.0000 
      5 O         119.9130   45.3890  -51.3240 O.2       7 ALL1        0.0000 
      6 O         119.8570   47.0460  -53.5090 O.2       4 ALP1        0.0000 
      7 CA        122.4105   44.7330  -46.8935 C.3       3 GLC5        0.0000 
      8 CA        121.6050   42.9450  -47.9310 C.3       9 GLL5        0.0000 
      9 CA        123.2160   46.5210  -45.8560 C.3       6 GLP5        0.0000 
     10 CA        118.5925   42.0845  -47.9425 C.3       3 GLC5        0.0000 
     11 CA        120.6640   42.1670  -47.1220 C.3       9 GLL5        0.0000 
     12 CA        116.5210   42.0020  -48.7630 C.3       6 GLP5        0.0000 
     13 CA        120.4270   39.4570  -46.7035 C.3       3 GLC5        0.0000 
     14 CA        121.1120   41.3910  -46.0040 C.3       9 GLL5        0.0000 
     15 CA        119.7420   37.5230  -47.4030 C.3       6 GLP5        0.0000 
     16 CA        125.5655   42.3970  -46.7470 C.3       3 GLC5        0.0000 
     17 CA        123.4600   42.1330  -46.4620 C.3       9 GLL5        0.0000 
     18 CA        127.6710   42.6610  -47.0320 C.3       6 GLP5        0.0000 
     19 CA        119.1875   45.7755  -45.8950 C.3       3 GLC5        0.0000 
     20 CA        119.0150   45.0010  -47.6040 C.3       9 GLL5        0.0000 
     21 CA        119.3600   46.5500  -44.1860 C.3       6 GLP5        0.0000 
     22 CA        118.3990   43.9005  -49.1955 C.3       3 GLC5        0.0000 
     23 CA        117.7830   42.8000  -50.7870 C.3       6 GLP5        0.0000 
     24 O         115.9890   47.2815  -48.9300 O.2       1 ALC1        0.0000 
     25 O         116.8920   46.7440  -48.0830 O.2       7 ALL1        0.0000 
     26 O         115.0860   47.8190  -49.7770 O.2       4 ALP1        0.0000 
     27 CA        120.7227   46.5100  -49.6595 C.3       3 GLC5        0.0000 
     28 CA        119.9790   44.6580  -49.0250 C.3       9 GLL5        0.0000 
     29 CA        121.7400   47.9850  -49.7610 C.3       6 GLP5        0.0000 
     30 CA        118.7442   43.9175  -50.1725 C.3       3 GLC5        0.0000 
     31 CA        119.4320   45.4120  -50.0910 C.3       9 GLL5        0.0000 
     32 CA        120.6142   41.3760  -49.2877 C.3       3 GLC5        0.0000 
     33 CA        120.0940   40.1960  -51.0490 C.3       6 GLP5        0.0000 
     34 CA        122.0820   40.2680  -47.3375 C.3       3 GLC5        0.0000 
     35 CA        123.2760   38.7570  -48.1120 C.3       6 GLP5        0.0000 
     36 CA        123.8663   41.4820  -44.3123 C.3       3 GLC5        0.0000 
     37 CA        122.5130   41.3730  -45.6730 C.3       9 GLL5        0.0000 
     38 CA        124.7460   41.2110  -42.5570 C.3       6 GLP5        0.0000 
     39 CA        123.6676   43.5292  -45.6764 C.3       3 GLC5        0.0000 
     40 CA        124.3370   44.7230  -44.5240 C.3       6 GLP5        0.0000 
     41 CA        123.1371   40.5463  -47.4704 C.3       3 GLC5        0.0000 
     42 CA        117.7935   48.0310  -46.4472 C.3       3 GLC5        0.0000 
     43 CA        116.2540   46.8220  -46.8120 C.3       9 GLL5        0.0000 
     44 CA        119.7570   48.6790  -46.2700 C.3       6 GLP5        0.0000 
     45 CA        113.4835   46.6683  -46.5687 C.3       3 GLC5        0.0000 
     46 CA        115.4060   47.9440  -46.4370 C.3       9 GLL5        0.0000 
     47 CA        111.8690   45.3900  -47.3630 C.3       6 GLP5        0.0000 
     48 CA        117.6467   46.2874  -44.6424 C.3       3 GLC5        0.0000 
     49 CA        116.4580   45.7260  -45.8500 C.3       9 GLL5        0.0000 
@<TRIPOS>BOND
@<TRIPOS>SUBSTRUCTURE
     1 ALC1        4 GROUP        1 X    ALC  0     ROOT ALC X 1
     2 SEC2        1 GROUP        1 X    SEC  0     **** SEC X 2
     3 GLC5        7 GROUP        1 X    GLC  0     **** GLC X 6
     4 ALP1        6 GROUP        1 Y    ALP  0     ROOT ALP Y 8
     5 SEP2        3 GROUP        1 Y    SEP  0     **** SEP Y 9
     6 GLP5        9 GROUP        1 Y    GLP  0     **** GLP Y 13
     7 ALL1        5 GROUP        1 Z    ALL  0     ROOT ALL Z 15
     8 SEL2        2 GROUP        1 Z    SEL  0     **** SEL Z 16
     9 GLL5        8 GROUP        1 Z    GLL  0     **** GLL Z 20
@<TRIPOS>SET

