#    Name: 3rjc_06Z_1_ligand
#    Modification time : Tue Mar 25 11:34:29 2014

@<TRIPOS>MOLECULE
3rjc_06Z_1_ligand
   34    36     1     0     0
SMALL
NO_CHARGES


@<TRIPOS>ATOM
      1 F         114.0100   49.0010  -44.7830 F         1 06Z450      0.0000 
      2 N1        118.3270   46.1870  -49.8130 N.2       1 06Z450      0.0000 
      3 C2        119.4320   45.4120  -50.0910 C.2       1 06Z450      0.0000 
      4 N3        119.9130   45.3890  -51.3240 N.pl3     1 06Z450      0.0000 
      5 C4        119.9790   44.6580  -49.0250 C.2       1 06Z450      0.0000 
      6 C5        121.1320   43.7530  -49.1220 C.2       1 06Z450      0.0000 
      7 C6        121.6050   42.9450  -47.9310 C.ar      1 06Z450      0.0000 
      8 C7        120.6640   42.1670  -47.1220 C.ar      1 06Z450      0.0000 
      9 C8        121.1120   41.3910  -46.0040 C.ar      1 06Z450      0.0000 
     10 C9        122.5130   41.3730  -45.6730 C.ar      1 06Z450      0.0000 
     11 C10       123.4600   42.1330  -46.4620 C.ar      1 06Z450      0.0000 
     12 C11       123.0100   42.9180  -47.5900 C.ar      1 06Z450      0.0000 
     13 O12       121.7370   43.6010  -50.2120 O.2       1 06Z450      0.0000 
     14 S13       119.0150   45.0010  -47.6040 S.3       1 06Z450      0.0000 
     15 C14       117.9920   46.0660  -48.5620 C.2       1 06Z450      0.0000 
     16 N15       116.8920   46.7440  -48.0830 N.pl3     1 06Z450      0.0000 
     17 C16       116.2540   46.8220  -46.8120 C.ar      1 06Z450      0.0000 
     18 C17       115.4060   47.9440  -46.4370 C.ar      1 06Z450      0.0000 
     19 C18       114.7900   47.9490  -45.1120 C.ar      1 06Z450      0.0000 
     20 C19       114.9870   46.8850  -44.1570 C.ar      1 06Z450      0.0000 
     21 C20       115.8310   45.7620  -44.5380 C.ar      1 06Z450      0.0000 
     22 C21       116.4580   45.7260  -45.8500 C.ar      1 06Z450      0.0000 
     23 H         120.7238   44.8221  -51.4695 H         1 06Z450      0.0000 
     24 H         119.4220   45.9406  -51.9982 H         1 06Z450      0.0000 
     25 H         119.6771   42.1869  -47.3695 H         1 06Z450      0.0000 
     26 H         120.4546   40.8614  -45.4522 H         1 06Z450      0.0000 
     27 H         122.8414   40.8275  -44.8855 H         1 06Z450      0.0000 
     28 H         124.4434   42.1141  -46.2216 H         1 06Z450      0.0000 
     29 H         123.6734   43.4445  -48.1367 H         1 06Z450      0.0000 
     30 H         116.3738   47.3802  -48.8555 H         1 06Z450      0.0000 
     31 H         115.2467   48.6968  -47.0709 H         1 06Z450      0.0000 
     32 H         114.5583   46.9132  -43.2577 H         1 06Z450      0.0000 
     33 H         115.9817   45.0046  -43.8882 H         1 06Z450      0.0000 
     34 H         117.0409   44.9443  -46.1113 H         1 06Z450      0.0000 
@<TRIPOS>BOND
     1   19    1 1    
     2    3    2 1    
     3   15    2 2    
     4    4    3 1    
     5    5    3 2    
     6   23    4 1    
     7   24    4 1    
     8    6    5 1    
     9   14    5 1    
    10    7    6 1    
    11   13    6 2    
    12    8    7 ar   
    13   12    7 ar   
    14    9    8 ar   
    15   25    8 1    
    16   10    9 ar   
    17   26    9 1    
    18   11   10 ar   
    19   27   10 1    
    20   12   11 ar   
    21   28   11 1    
    22   29   12 1    
    23   15   14 1    
    24   16   15 1    
    25   17   16 1    
    26   30   16 1    
    27   18   17 ar   
    28   22   17 ar   
    29   19   18 ar   
    30   31   18 1    
    31   20   19 ar   
    32   21   20 ar   
    33   32   20 1    
    34   22   21 ar   
    35   33   21 1    
    36   34   22 1    
@<TRIPOS>SUBSTRUCTURE
     1 06Z450      1 GROUP   
@<TRIPOS>SET

