#    Name: 2ewa_SB2_1_INTS_M
#    Modification time : Mon Apr  7 17:56:26 2014

@<TRIPOS>MOLECULE
2ewa_SB2_1_INTS_M
   67     0     6     0     0
SMALL
NO_CHARGES


@<TRIPOS>ATOM
      1 CA         -3.2305   10.3970   22.1235 C.3       2 GLC5        0.0000 
      2 CA         -1.4230   10.5410   21.8210 C.3       6 GLL5        0.0000 
      3 CA         -5.0380   10.2530   22.4260 C.3       4 GLP5        0.0000 
      4 CA         -0.6240   10.5690   20.2905 C.3       2 GLC5        0.0000 
      5 CA          0.1750   10.5970   18.7600 C.3       4 GLP5        0.0000 
      6 CA         -4.0670    9.4640   20.6880 C.3       2 GLC5        0.0000 
      7 CA         -2.7880    7.7500   21.2820 C.3       6 GLL5        0.0000 
      8 CA         -5.3460   11.1780   20.0940 C.3       4 GLP5        0.0000 
      9 N          -3.2905   -3.8585   23.0185 N.am      1 SEC2        0.0000 
     10 N          -3.6120   -2.3390   22.7720 N.am      5 SEL2        0.0000 
     11 N          -2.9690   -5.3780   23.2650 N.am      3 SEP2        0.0000 
     12 CA         -5.1805   -2.7570   24.1640 C.3       2 GLC5        0.0000 
     13 CA         -4.0950   -1.3450   23.6270 C.3       6 GLL5        0.0000 
     14 CA         -6.2660   -4.1690   24.7010 C.3       4 GLP5        0.0000 
     15 CA         -4.1775   -4.0450   21.9445 C.3       2 GLC5        0.0000 
     16 CA         -3.1790   -2.1190   21.4670 C.3       6 GLL5        0.0000 
     17 CA         -5.1760   -5.9710   22.4220 C.3       4 GLP5        0.0000 
     18 CA         -1.8865   -3.4845   22.1820 C.3       2 GLC5        0.0000 
     19 CA         -0.5940   -4.8500   22.8970 C.3       4 GLP5        0.0000 
     20 N          -4.1425    4.6760   18.5790 N.am      1 SEC2        0.0000 
     21 N          -4.0120    3.6940   19.9220 N.am      5 SEL2        0.0000 
     22 N          -4.2730    5.6580   17.2360 N.am      3 SEP2        0.0000 
     23 CA         -4.9515    3.7435   18.6065 C.3       2 GLC5        0.0000 
     24 CA         -4.2270    2.2950   19.9070 C.3       6 GLL5        0.0000 
     25 CA         -5.6760    5.1920   17.3060 C.3       4 GLP5        0.0000 
     26 CA         -4.4355    1.9585   14.3030 C.3       2 GLC5        0.0000 
     27 CA         -4.6410    1.1720   16.2760 C.3       6 GLL5        0.0000 
     28 CA         -4.2300    2.7450   12.3300 C.3       4 GLP5        0.0000 
     29 CA         -6.5840    1.2780   20.9200 C.3       2 GLC5        0.0000 
     30 CA         -6.0610    0.8240   18.8110 C.3       6 GLL5        0.0000 
     31 CA         -7.1070    1.7320   23.0290 C.3       4 GLP5        0.0000 
     32 CA         -6.5485   -0.4200   13.4945 C.3       2 GLC5        0.0000 
     33 CA         -6.2980   -0.1800   15.1720 C.3       6 GLL5        0.0000 
     34 CA         -6.7990   -0.6600   11.8170 C.3       4 GLP5        0.0000 
     35 CA         -5.6160   -1.7405   15.8015 C.3       2 GLC5        0.0000 
     36 CA         -4.9340   -3.3010   16.4310 C.3       4 GLP5        0.0000 
     37 CA         -4.7502    4.9367   21.8896 C.3       2 GLC5        0.0000 
     38 CA         -3.0530    5.2140   21.6420 C.3       6 GLL5        0.0000 
     39 CA         -6.5200    4.0020   22.2190 C.3       4 GLP5        0.0000 
     40 CA         -4.7122    5.7485   19.9090 C.3       2 GLC5        0.0000 
     41 CA         -6.2950    5.6670   18.5960 C.3       4 GLP5        0.0000 
     42 CA         -5.3978   -1.4083   22.3865 C.3       2 GLC5        0.0000 
     43 CA         -4.1700    0.0440   23.1630 C.3       6 GLL5        0.0000 
     44 CA         -6.6630   -2.1660   21.3780 C.3       4 GLP5        0.0000 
     45 CA         -5.5169    0.7916   22.8055 C.3       2 GLC5        0.0000 
     46 CA         -3.9165   -2.0728   19.4958 C.3       2 GLC5        0.0000 
     47 CA         -3.2110   -0.7840   20.9120 C.3       6 GLL5        0.0000 
     48 CA         -4.6380   -2.6940   17.8020 C.3       4 GLP5        0.0000 
     49 CA         -4.9928   -1.6666   21.3909 C.3       2 GLC5        0.0000 
     50 CA         -5.2560    3.0057   21.3912 C.3       2 GLC5        0.0000 
     51 CA         -3.7570    1.7240   21.2200 C.3       6 GLL5        0.0000 
     52 CA         -5.0290    3.3370   17.0892 C.3       2 GLC5        0.0000 
     53 CA         -4.1230    1.7920   17.4690 C.3       6 GLL5        0.0000 
     54 CA         -4.9430   -0.9585   17.0525 C.3       2 GLC5        0.0000 
     55 CA         -5.8550    0.3820   16.3300 C.3       6 GLL5        0.0000 
     56 CA         -3.3493    0.2125   16.3466 C.3       2 GLC5        0.0000 
     57 CA         -1.5800   -0.5070   16.0920 C.3       4 GLP5        0.0000 
     58 CA         -6.4915   -0.8270   19.7920 C.3       2 GLC5        0.0000 
     59 CA         -6.5790    0.2000   17.6010 C.3       6 GLL5        0.0000 
     60 CA         -6.7732    2.4360   18.6250 C.3       2 GLC5        0.0000 
     61 CA         -7.9840    3.7950   18.7660 C.3       4 GLP5        0.0000 
     62 CA         -5.1002   -0.8085   18.1430 C.3       2 GLC5        0.0000 
     63 CA         -4.8050    1.6420   18.7620 C.3       6 GLL5        0.0000 
     64 CA         -7.1854    1.2366   15.1690 C.3       2 GLC5        0.0000 
     65 CA         -8.2650    2.3190   14.2760 C.3       4 GLP5        0.0000 
     66 CA         -7.7702   -0.9507   15.8959 C.3       2 GLC5        0.0000 
     67 CA         -9.2830   -1.9570   15.7230 C.3       4 GLP5        0.0000 
@<TRIPOS>BOND
@<TRIPOS>SUBSTRUCTURE
     1 SEC2        9 GROUP        1 X    SEC  0     ROOT SEC X 2
     2 GLC5        1 GROUP        1 X    GLC  0     **** GLC X 6
     3 SEP2       11 GROUP        1 Y    SEP  0     ROOT SEP Y 9
     4 GLP5        3 GROUP        1 Y    GLP  0     **** GLP Y 13
     5 SEL2       10 GROUP        1 Z    SEL  0     ROOT SEL Z 16
     6 GLL5        2 GROUP        1 Z    GLL  0     **** GLL Z 20
@<TRIPOS>SET

