#    Name: 2ewa_SB2_1_ligand
#    Modification time : Mon Apr  7 17:56:27 2014

@<TRIPOS>MOLECULE
2ewa_SB2_1_ligand
   43    46     1     0     0
SMALL
NO_CHARGES


@<TRIPOS>ATOM
      1 O2         -0.3300    9.2600   24.1280 O.2       1 SB2361      0.0000 
      2 C1         -1.4230   10.5410   21.8210 C.3       1 SB2361      0.0000 
      3 S1         -1.6730    9.4110   23.2440 S.2       1 SB2361      0.0000 
      4 CA1        -2.4570    5.3800   22.9950 C.ar      1 SB2361      0.0000 
      5 CA2        -2.0380    6.6730   23.4850 C.ar      1 SB2361      0.0000 
      6 CA3        -2.2040    7.8440   22.6250 C.ar      1 SB2361      0.0000 
      7 CA4        -2.7880    7.7500   21.2820 C.ar      1 SB2361      0.0000 
      8 CA5        -3.2060    6.4460   20.8020 C.ar      1 SB2361      0.0000 
      9 CA6        -3.0530    5.2140   21.6420 C.ar      1 SB2361      0.0000 
     10 NB1        -3.6120   -2.3390   22.7720 N.ar      1 SB2361      0.0000 
     11 CB2        -4.0950   -1.3450   23.6270 C.ar      1 SB2361      0.0000 
     12 CB3        -4.1700    0.0440   23.1630 C.ar      1 SB2361      0.0000 
     13 CB4        -3.7210    0.3530   21.7690 C.ar      1 SB2361      0.0000 
     14 CB5        -3.2110   -0.7840   20.9120 C.ar      1 SB2361      0.0000 
     15 CB6        -3.1790   -2.1190   21.4670 C.ar      1 SB2361      0.0000 
     16 NC1        -3.2780    2.7930   21.9870 N.pl3     1 SB2361      0.0000 
     17 CC2        -3.4490    3.9120   21.1770 C.2       1 SB2361      0.0000 
     18 NC3        -4.0120    3.6940   19.9220 N.2       1 SB2361      0.0000 
     19 CC4        -4.2270    2.2950   19.9070 C.2       1 SB2361      0.0000 
     20 CC5        -3.7570    1.7240   21.2200 C.2       1 SB2361      0.0000 
     21 CD1        -4.1230    1.7920   17.4690 C.ar      1 SB2361      0.0000 
     22 CD2        -4.6410    1.1720   16.2760 C.ar      1 SB2361      0.0000 
     23 CD3        -5.8550    0.3820   16.3300 C.ar      1 SB2361      0.0000 
     24 CD4        -6.5790    0.2000   17.6010 C.ar      1 SB2361      0.0000 
     25 CD5        -6.0610    0.8240   18.8110 C.ar      1 SB2361      0.0000 
     26 CD6        -4.8050    1.6420   18.7620 C.ar      1 SB2361      0.0000 
     27 FD3        -6.2980   -0.1800   15.1720 F         1 SB2361      0.0000 
     28 H          -2.3497    4.5532   23.5745 H         1 SB2361      0.0000 
     29 H          -1.6400    6.7738   24.3965 H         1 SB2361      0.0000 
     30 H          -2.8914    8.5633   20.7212 H         1 SB2361      0.0000 
     31 H          -3.6129    6.3448   19.8807 H         1 SB2361      0.0000 
     32 H          -4.4003   -1.5524   24.5714 H         1 SB2361      0.0000 
     33 H          -4.5057    0.7661   23.7441 H         1 SB2361      0.0000 
     34 H          -2.9101   -0.5868   19.9883 H         1 SB2361      0.0000 
     35 H          -2.8361   -2.8811   20.8851 H         1 SB2361      0.0000 
     36 H          -2.9275    2.7581   22.8402 H         1 SB2361      0.0000 
     37 H          -3.2722    2.3450   17.4284 H         1 SB2361      0.0000 
     38 H          -4.1574    1.2865   15.3939 H         1 SB2361      0.0000 
     39 H          -7.4140   -0.3460   17.6242 H         1 SB2361      0.0000 
     40 H          -6.5319    0.7175   19.6883 H         1 SB2361      0.0000 
     41 H          -1.1627   11.4598   22.1177 H         1 SB2361      0.0000 
     42 H          -0.7016   10.2149   21.2100 H         1 SB2361      0.0000 
     43 H          -2.2528   10.6347   21.2709 H         1 SB2361      0.0000 
@<TRIPOS>BOND
     1    3    1 2    
     2    3    2 1    
     3   41    2 1    
     4   42    2 1    
     5   43    2 1    
     6    6    3 1    
     7    5    4 ar   
     8    9    4 ar   
     9   28    4 1    
    10    6    5 ar   
    11   29    5 1    
    12    7    6 ar   
    13    8    7 ar   
    14   30    7 1    
    15    9    8 ar   
    16   31    8 1    
    17   17    9 1    
    18   11   10 ar   
    19   15   10 ar   
    20   12   11 ar   
    21   32   11 1    
    22   13   12 ar   
    23   33   12 1    
    24   14   13 ar   
    25   20   13 1    
    26   15   14 ar   
    27   34   14 1    
    28   35   15 1    
    29   17   16 1    
    30   20   16 1    
    31   36   16 1    
    32   18   17 2    
    33   19   18 1    
    34   20   19 2    
    35   26   19 1    
    36   22   21 ar   
    37   26   21 ar   
    38   37   21 1    
    39   23   22 ar   
    40   38   22 1    
    41   24   23 ar   
    42   27   23 1    
    43   25   24 ar   
    44   39   24 1    
    45   26   25 ar   
    46   40   25 1    
@<TRIPOS>SUBSTRUCTURE
     1 SB2361      1 GROUP   
@<TRIPOS>SET

