#    Name: 1MU6_1_CAVITY_N1_6.mol2
#    Modification time : Mon Mar 10 17:36:18 2014

@<TRIPOS>MOLECULE
1MU6_1_CAVITY_N1_6.mol2
  105     0     7     0     0
SMALL
NO_CHARGES


@<TRIPOS>ATOM
      1 DU         19.7887  -16.3253   23.3195 H         7 CUB7        0.0000 
      2 OG         20.6471  -16.3920   22.0913 O.2       1 SER1        0.0000 
      3 CZ         19.4714  -16.8765   21.2958 C.ar      5 PHE5        0.0000 
      4 OG         21.4616  -14.4895   22.5571 O.2       1 SER1        0.0000 
      5 DU         19.4273  -14.9073   22.9899 H         7 CUB7        0.0000 
      6 OG         20.2858  -14.9740   21.7616 O.2       1 SER1        0.0000 
      7 N          17.3931  -15.3251   23.4226 N.2       2 ALA2        0.0000 
      8 DU         18.2515  -15.3918   22.1944 H         7 CUB7        0.0000 
      9 CZ         19.1100  -15.4585   20.9662 C.ar      5 PHE5        0.0000 
     10 N          16.2173  -15.8096   22.6272 N.2       2 ALA2        0.0000 
     11 CZ         17.0758  -15.8763   21.3989 C.ar      5 PHE5        0.0000 
     12 N          15.0415  -16.2941   21.8317 N.2       2 ALA2        0.0000 
     13 CZ         15.9000  -16.3608   20.6034 C.ar      5 PHE5        0.0000 
     14 O          13.0073  -16.7119   22.2644 O.2       2 ALA2        0.0000 
     15 DU         13.8657  -16.7786   21.0362 H         7 CUB7        0.0000 
     16 DU         14.7242  -16.8454   19.8080 H         7 CUB7        0.0000 
     17 CA         11.8315  -17.1964   21.4690 C.3       6 GLY6        0.0000 
     18 DU         12.6900  -17.2632   20.2407 H         7 CUB7        0.0000 
     19 NZ         13.5484  -17.3299   19.0125 N.2       4 LYS4        0.0000 
     20 DU         11.5142  -17.7477   19.4452 H         7 CUB7        0.0000 
     21 NZ         12.3727  -17.8144   18.2170 N.2       4 LYS4        0.0000 
     22 CA         19.0660  -13.4892   22.6603 C.3       6 GLY6        0.0000 
     23 CA         19.9244  -13.5560   21.4320 C.3       6 GLY6        0.0000 
     24 CZ         20.7829  -13.6227   20.2038 C.ar      5 PHE5        0.0000 
     25 CA         17.0317  -13.9070   23.0930 C.3       6 GLY6        0.0000 
     26 DU         17.8902  -13.9738   21.8648 H         7 CUB7        0.0000 
     27 CZ         18.7487  -14.0405   20.6366 C.ar      5 PHE5        0.0000 
     28 CZ         19.6071  -14.1072   19.4083 C.ar      5 PHE5        0.0000 
     29 N          15.8559  -14.3916   22.2976 N.2       2 ALA2        0.0000 
     30 DU         16.7144  -14.4583   21.0693 H         7 CUB7        0.0000 
     31 CZ         17.5729  -14.5250   19.8411 C.ar      5 PHE5        0.0000 
     32 N          14.6802  -14.8761   21.5021 N.2       2 ALA2        0.0000 
     33 DU         15.5386  -14.9428   20.2738 H         7 CUB7        0.0000 
     34 CZ         16.3971  -15.0095   19.0456 C.ar      5 PHE5        0.0000 
     35 N          12.6459  -15.2939   21.9348 N.2       2 ALA2        0.0000 
     36 DU         13.5044  -15.3606   20.7066 H         7 CUB7        0.0000 
     37 DU         14.3629  -15.4273   19.4784 H         7 CUB7        0.0000 
     38 CZ         15.2213  -15.4941   18.2501 C.ar      5 PHE5        0.0000 
     39 CA         11.4701  -15.7784   21.1393 C.3       6 GLY6        0.0000 
     40 DU         12.3286  -15.8451   19.9111 H         7 CUB7        0.0000 
     41 NZ         13.1871  -15.9119   18.6829 N.2       4 LYS4        0.0000 
     42 NZ         14.0456  -15.9786   17.4546 N.2       4 LYS4        0.0000 
     43 CA         11.1528  -16.3297   19.1156 C.3       6 GLY6        0.0000 
     44 CA         19.5631  -12.1379   21.1024 C.3       6 GLY6        0.0000 
     45 CA         20.4216  -12.2047   19.8742 C.3       6 GLY6        0.0000 
     46 CA         16.6704  -12.4890   22.7634 C.3       6 GLY6        0.0000 
     47 N          17.5288  -12.5557   21.5352 N.2       2 ALA2        0.0000 
     48 CA         18.3873  -12.6225   20.3069 C.3       6 GLY6        0.0000 
     49 CA         19.2458  -12.6892   19.0787 C.3       6 GLY6        0.0000 
     50 O          15.4946  -12.9735   21.9679 O.2       2 ALA2        0.0000 
     51 DU         16.3531  -13.0403   20.7397 H         7 CUB7        0.0000 
     52 N          17.2115  -13.1070   19.5115 N.2       2 ALA2        0.0000 
     53 CZ         18.0700  -13.1737   18.2832 C.ar      5 PHE5        0.0000 
     54 CA         12.6019  -13.3246   23.6289 C.3       6 GLY6        0.0000 
     55 O          13.4603  -13.3913   22.4007 O.2       2 ALA2        0.0000 
     56 DU         14.3188  -13.4581   21.1725 H         7 CUB7        0.0000 
     57 DU         15.1773  -13.5248   19.9442 H         7 CUB7        0.0000 
     58 CZ         16.0358  -13.5915   18.7160 C.ar      5 PHE5        0.0000 
     59 CZ         16.8942  -13.6583   17.4877 C.ar      5 PHE5        0.0000 
     60 N          11.4261  -13.8091   22.8335 N.2       2 ALA2        0.0000 
     61 N          12.2846  -13.8759   21.6052 N.2       2 ALA2        0.0000 
     62 DU         13.1430  -13.9426   20.3770 H         7 CUB7        0.0000 
     63 CA         14.0015  -14.0093   19.1487 C.3       6 GLY6        0.0000 
     64 CA         14.8600  -14.0761   17.9205 C.3       6 GLY6        0.0000 
     65 CZ         15.7185  -14.1428   16.6923 C.ar      5 PHE5        0.0000 
     66 CZ         16.5769  -14.2095   15.4640 C.ar      5 PHE5        0.0000 
     67 CZ         17.4354  -14.2762   14.2358 C.ar      5 PHE5        0.0000 
     68 CA         11.1088  -14.3604   20.8097 C.3       6 GLY6        0.0000 
     69 O          11.9673  -14.4271   19.5815 O.2       2 ALA2        0.0000 
     70 CA         12.8257  -14.4939   18.3533 C.3       6 GLY6        0.0000 
     71 NZ         15.4012  -14.6940   14.6685 N.2       4 LYS4        0.0000 
     72 CA         14.2748  -11.4888   22.8666 C.3       6 GLY6        0.0000 
     73 N          15.1332  -11.5555   21.6383 N.2       2 ALA2        0.0000 
     74 OG         15.9917  -11.6223   20.4101 O.2       1 SER1        0.0000 
     75 CA         11.3820  -11.8399   24.5276 C.3       6 GLY6        0.0000 
     76 O          12.2405  -11.9066   23.2993 O.2       2 ALA2        0.0000 
     77 O          13.0990  -11.9733   22.0711 O.2       2 ALA2        0.0000 
     78 OG         13.9575  -12.0400   20.8429 O.2       1 SER1        0.0000 
     79 OG         14.8159  -12.1068   19.6146 O.2       1 SER1        0.0000 
     80 OG         15.6744  -12.1735   18.3864 O.2       1 SER1        0.0000 
     81 OG         16.5329  -12.2402   17.1581 O.2       1 SER1        0.0000 
     82 OD1        17.3914  -12.3070   15.9299 O.3       3 ASP3        0.0000 
     83 N          11.0647  -12.3911   22.5038 N.2       2 ALA2        0.0000 
     84 CA         11.9232  -12.4578   21.2756 C.3       6 GLY6        0.0000 
     85 O          12.7817  -12.5246   20.0474 O.2       2 ALA2        0.0000 
     86 CA         13.6402  -12.5913   18.8191 C.3       6 GLY6        0.0000 
     87 OG         14.4986  -12.6580   17.5909 O.2       1 SER1        0.0000 
     88 CA         15.3571  -12.7248   16.3627 C.3       6 GLY6        0.0000 
     89 OD1        16.2156  -12.7915   15.1344 O.3       3 ASP3        0.0000 
     90 NZ         15.0398  -13.2760   14.3389 N.2       4 LYS4        0.0000 
     91 N          13.0549  -10.0040   23.7652 N.2       2 ALA2        0.0000 
     92 N          13.9134  -10.0708   22.5370 N.2       2 ALA2        0.0000 
     93 N          14.7719  -10.1375   21.3087 N.2       2 ALA2        0.0000 
     94 CA         11.8791  -10.4886   22.9697 C.3       6 GLY6        0.0000 
     95 CA         12.7376  -10.5553   21.7415 C.3       6 GLY6        0.0000 
     96 OG         13.5961  -10.6220   20.5132 O.2       1 SER1        0.0000 
     97 OG         16.1715  -10.8222   16.8285 O.2       1 SER1        0.0000 
     98 OD1        17.0300  -10.8889   15.6003 O.3       3 ASP3        0.0000 
     99 O          10.7034  -10.9731   22.1742 O.2       2 ALA2        0.0000 
    100 N          11.5618  -11.0398   20.9460 N.2       2 ALA2        0.0000 
    101 OG         13.2788  -11.1733   18.4895 O.2       1 SER1        0.0000 
    102 OG         14.1373  -11.2400   17.2613 O.2       1 SER1        0.0000 
    103 OG         14.9958  -11.3067   16.0330 O.2       1 SER1        0.0000 
    104 N          15.8542  -11.3735   14.8048 N.2       2 ALA2        0.0000 
    105 O          13.8200  -11.7913   15.2376 O.2       2 ALA2        0.0000 
@<TRIPOS>BOND
@<TRIPOS>SUBSTRUCTURE
     1 SER1        2 GROUP   
     2 ALA2        7 GROUP   
     3 ASP3       82 GROUP   
     4 LYS4       19 GROUP   
     5 PHE5        3 GROUP   
     6 GLY6       17 GROUP   
     7 CUB7        1 GROUP   
@<TRIPOS>SET

