#    Name: 1mu6_CDA_1_INTS_M
#    Modification time : Tue Mar 25 12:02:29 2014

@<TRIPOS>MOLECULE
1mu6_CDA_1_INTS_M
   67     0     9     0     0
SMALL
NO_CHARGES


@<TRIPOS>ATOM
      1 CA         18.6890  -13.0045   25.6570 C.3       3 GLC5        0.0000 
      2 CA         20.0020  -14.5590   26.3240 C.3       9 GLL5        0.0000 
      3 CA         17.3760  -11.4500   24.9900 C.3       6 GLP5        0.0000 
      4 CA         18.7255  -16.1755   28.4905 C.3       3 GLC5        0.0000 
      5 CA         17.6280  -16.1140   26.5880 C.3       9 GLL5        0.0000 
      6 CA         19.8230  -16.2370   30.3930 C.3       6 GLP5        0.0000 
      7 O          16.0405  -15.6605   24.4445 O.2       1 ALC1        0.0000 
      8 O          17.4760  -16.0450   23.8730 O.2       7 ALL1        0.0000 
      9 O          14.6050  -15.2760   25.0160 O.2       4 ALP1        0.0000 
     10 N          15.5560  -13.1450   24.1545 N.am      2 SEC2        0.0000 
     11 N          16.4120  -13.6170   22.9680 N.am      8 SEL2        0.0000 
     12 N          14.7000  -12.6730   25.3410 N.am      5 SEP2        0.0000 
     13 CA         19.5530  -11.4700   19.1935 C.3       3 GLC5        0.0000 
     14 CA         20.0270  -13.1170   19.7930 C.3       9 GLL5        0.0000 
     15 CA         19.0790   -9.8230   18.5940 C.3       6 GLP5        0.0000 
     16 CA         21.5375  -14.3130   19.3770 C.3       3 GLC5        0.0000 
     17 CA         23.0480  -15.5090   18.9610 C.3       6 GLP5        0.0000 
     18 CA         19.5095  -14.3480   18.3360 C.3       3 GLC5        0.0000 
     19 CA         18.9920  -15.5790   16.8790 C.3       6 GLP5        0.0000 
     20 CA         18.2865  -10.9520   19.7985 C.3       3 GLC5        0.0000 
     21 CA         17.4940  -12.0810   21.0030 C.3       9 GLL5        0.0000 
     22 CA         19.0815  -11.5025   22.1395 C.3       3 GLC5        0.0000 
     23 CA         20.6690  -10.9240   23.2760 C.3       6 GLP5        0.0000 
     24 CA         17.4350  -11.7655   22.9965 C.3       3 GLC5        0.0000 
     25 O          16.0240  -10.3035   21.7635 O.2       1 ALC1        0.0000 
     26 O          15.1990  -11.3330   20.9400 O.2       7 ALL1        0.0000 
     27 O          16.8490   -9.2740   22.5870 O.2       4 ALP1        0.0000 
     28 CA         14.4930   -9.7205   19.3295 C.3       3 GLC5        0.0000 
     29 CA         13.7930  -11.3680   20.5230 C.3       9 GLL5        0.0000 
     30 CA         15.1930   -8.0730   18.1360 C.3       6 GLP5        0.0000 
     31 CA         12.5705   -9.1225   21.7910 C.3       3 GLC5        0.0000 
     32 CA         12.8490  -11.3470   21.7030 C.3       9 GLL5        0.0000 
     33 CA         12.2920   -6.8980   21.8790 C.3       6 GLP5        0.0000 
     34 CA         14.4340  -11.0750   23.1720 C.3       3 GLC5        0.0000 
     35 CA         16.0190  -10.8030   24.6410 C.3       6 GLP5        0.0000 
     36 CA         11.3590  -13.0495   18.9795 C.3       3 GLC5        0.0000 
     37 CA         11.8270  -13.2730   20.8440 C.3       9 GLL5        0.0000 
     38 CA         10.8910  -12.8260   17.1150 C.3       6 GLP5        0.0000 
     39 CA         12.1995   -8.6145   22.8185 C.3       3 GLC5        0.0000 
     40 CA         12.1070  -10.3310   23.7580 C.3       9 GLL5        0.0000 
     41 CA         14.0630  -10.5670   24.1995 C.3       3 GLC5        0.0000 
     42 CA         20.4662  -16.1005   27.8995 C.3       3 GLC5        0.0000 
     43 CA         20.9740  -16.9580   29.7210 C.3       6 GLP5        0.0000 
     44 CA         22.9333  -13.2945   26.9108 C.3       3 GLC5        0.0000 
     45 CA         21.2530  -13.8830   26.0790 C.3       9 GLL5        0.0000 
     46 CA         24.0690  -12.3770   28.0960 C.3       6 GLP5        0.0000 
     47 CA         21.9322  -12.6155   24.8193 C.3       3 GLC5        0.0000 
     48 CA         22.0670  -11.0190   23.9130 C.3       6 GLP5        0.0000 
     49 CA         19.8777  -17.1348   27.9965 C.3       3 GLC5        0.0000 
     50 CA         18.6310  -16.7480   25.9420 C.3       9 GLL5        0.0000 
     51 CA         17.5888  -14.7655   27.0635 C.3       3 GLC5        0.0000 
     52 CA         17.0480  -13.1000   27.8620 C.3       6 GLP5        0.0000 
     53 CA         16.7169  -17.1420   27.4013 C.3       3 GLC5        0.0000 
     54 CA         14.9030  -17.1310   28.3690 C.3       6 GLP5        0.0000 
     55 CA         20.1707  -12.1995   21.8047 C.3       3 GLC5        0.0000 
     56 CA         19.3180  -13.8330   20.8740 C.3       9 GLL5        0.0000 
     57 CA         10.2752   -9.5817   23.1358 C.3       3 GLC5        0.0000 
     58 CA         11.0960  -11.3520   23.9430 C.3       9 GLL5        0.0000 
     59 CA          8.9490   -8.3220   22.4210 C.3       6 GLP5        0.0000 
     60 CA         10.1114  -12.3972   20.8173 C.3       3 GLC5        0.0000 
     61 CA         11.8640  -12.3760   21.8290 C.3       9 GLL5        0.0000 
     62 CA          8.6000  -11.9650   20.0160 C.3       6 GLP5        0.0000 
     63 CA         10.0454  -13.9883   21.5312 C.3       3 GLC5        0.0000 
     64 CA          8.4680  -15.1470   21.4440 C.3       6 GLP5        0.0000 
     65 CA         12.6384  -12.2378   24.8645 C.3       3 GLC5        0.0000 
     66 CA         10.9730  -12.3960   22.9570 C.3       9 GLL5        0.0000 
     67 CA         13.7060  -13.3730   26.1250 C.3       6 GLP5        0.0000 
@<TRIPOS>BOND
@<TRIPOS>SUBSTRUCTURE
     1 ALC1        7 GROUP        1 X    ALC  0     ROOT ALC X 1
     2 SEC2       10 GROUP        1 X    SEC  0     **** SEC X 2
     3 GLC5        1 GROUP        1 X    GLC  0     **** GLC X 6
     4 ALP1        9 GROUP        1 Y    ALP  0     ROOT ALP Y 8
     5 SEP2       12 GROUP        1 Y    SEP  0     **** SEP Y 9
     6 GLP5        3 GROUP        1 Y    GLP  0     **** GLP Y 13
     7 ALL1        8 GROUP        1 Z    ALL  0     ROOT ALL Z 15
     8 SEL2       11 GROUP        1 Z    SEL  0     **** SEL Z 16
     9 GLL5        2 GROUP        1 Z    GLL  0     **** GLL Z 20
@<TRIPOS>SET

