#    Name: 1mu6_CDA_1_ligand
#    Modification time : Tue Mar 25 12:02:29 2014

@<TRIPOS>MOLECULE
1mu6_CDA_1_ligand
   50    52     1     0     0
SMALL
NO_CHARGES


@<TRIPOS>ATOM
      1 N1         21.0030  -16.5290   25.1660 N.ar      1 CDA248      0.0000 
      2 C2         19.9150  -15.9270   25.8320 C.ar      1 CDA248      0.0000 
      3 C3         20.0020  -14.5590   26.3240 C.ar      1 CDA248      0.0000 
      4 C4         21.2530  -13.8830   26.0790 C.ar      1 CDA248      0.0000 
      5 C5         22.3420  -14.5410   25.3720 C.ar      1 CDA248      0.0000 
      6 C6         22.2100  -15.9040   24.9070 C.ar      1 CDA248      0.0000 
      7 C11        18.6310  -16.7480   25.9420 C.3       1 CDA248      0.0000 
      8 C12        18.0830  -17.1760   24.5920 C.3       1 CDA248      0.0000 
      9 F13        17.6280  -16.1140   26.5880 F         1 CDA248      0.0000 
     10 F1         18.9320  -17.8750   26.6020 F         1 CDA248      0.0000 
     11 N18        17.4760  -16.0450   23.8730 N.pl3     1 CDA248      0.0000 
     12 C21        18.0880  -15.3250   22.8760 C.2       1 CDA248      0.0000 
     13 C22        17.4500  -14.0430   22.4650 C.2       1 CDA248      0.0000 
     14 N23        18.0980  -13.3440   21.4690 N.am      1 CDA248      0.0000 
     15 C24        19.3180  -13.8330   20.8740 C.2       1 CDA248      0.0000 
     16 C25        19.8710  -15.0400   21.3370 C.2       1 CDA248      0.0000 
     17 N26        19.2510  -15.7300   22.2940 N.2       1 CDA248      0.0000 
     18 O28        16.4120  -13.6170   22.9680 O.2       1 CDA248      0.0000 
     19 C29        20.0270  -13.1170   19.7930 C.3       1 CDA248      0.0000 
     20 C33        17.4940  -12.0810   21.0030 C.3       1 CDA248      0.0000 
     21 C34        16.0640  -12.2970   20.5380 C.2       1 CDA248      0.0000 
     22 N37        15.1990  -11.3330   20.9400 N.am      1 CDA248      0.0000 
     23 O38        15.7760  -13.2640   19.8350 O.2       1 CDA248      0.0000 
     24 C39        13.7930  -11.3680   20.5230 C.3       1 CDA248      0.0000 
     25 C40        12.8490  -11.3470   21.7030 C.ar      1 CDA248      0.0000 
     26 C43        11.8640  -12.3760   21.8290 C.ar      1 CDA248      0.0000 
     27 C44        10.9730  -12.3960   22.9570 C.ar      1 CDA248      0.0000 
     28 C45        11.0960  -11.3520   23.9430 C.ar      1 CDA248      0.0000 
     29 N46        12.9510  -10.3500   22.6580 N.ar      1 CDA248      0.0000 
     30 F47        11.8270  -13.2730   20.8440 F         1 CDA248      0.0000 
     31 C50        12.1070  -10.3310   23.7580 C.ar      1 CDA248      0.0000 
     32 H          19.2562  -14.1315   26.7901 H         1 CDA248      0.0000 
     33 H          21.3819  -12.9270   26.4048 H         1 CDA248      0.0000 
     34 H          23.2045  -14.0327   25.2050 H         1 CDA248      0.0000 
     35 H          22.9648  -16.3427   24.4289 H         1 CDA248      0.0000 
     36 H          17.3405  -17.9703   24.7529 H         1 CDA248      0.0000 
     37 H          18.9045  -17.6076   24.0031 H         1 CDA248      0.0000 
     38 H          16.4956  -15.7979   24.1738 H         1 CDA248      0.0000 
     39 H          20.7585  -15.3638   20.9146 H         1 CDA248      0.0000 
     40 H          18.0738  -11.6657   20.1697 H         1 CDA248      0.0000 
     41 H          17.4908  -11.3390   21.8108 H         1 CDA248      0.0000 
     42 H          15.4835  -10.5509   21.5422 H         1 CDA248      0.0000 
     43 H          13.5923  -12.2758   19.9296 H         1 CDA248      0.0000 
     44 H          13.5642  -10.5048   19.8757 H         1 CDA248      0.0000 
     45 H          10.2854  -13.1146   23.0565 H         1 CDA248      0.0000 
     46 H          10.4943  -11.3298   24.7438 H         1 CDA248      0.0000 
     47 H          12.1784   -9.5922   24.4684 H         1 CDA248      0.0000 
     48 H          20.3108  -12.2014   20.0779 H         1 CDA248      0.0000 
     49 H          20.8519  -13.6030   19.5044 H         1 CDA248      0.0000 
     50 H          19.4528  -13.0068   18.9817 H         1 CDA248      0.0000 
@<TRIPOS>BOND
     1    2    1 ar   
     2    6    1 ar   
     3    3    2 ar   
     4    7    2 1    
     5    4    3 ar   
     6   32    3 1    
     7    5    4 ar   
     8   33    4 1    
     9    6    5 ar   
    10   34    5 1    
    11   35    6 1    
    12    8    7 1    
    13    9    7 1    
    14   10    7 1    
    15   11    8 1    
    16   36    8 1    
    17   37    8 1    
    18   12   11 1    
    19   38   11 1    
    20   13   12 1    
    21   17   12 2    
    22   14   13 am   
    23   18   13 2    
    24   15   14 1    
    25   20   14 1    
    26   16   15 2    
    27   19   15 1    
    28   17   16 1    
    29   39   16 1    
    30   48   19 1    
    31   49   19 1    
    32   50   19 1    
    33   21   20 1    
    34   40   20 1    
    35   41   20 1    
    36   22   21 am   
    37   23   21 2    
    38   24   22 1    
    39   42   22 1    
    40   25   24 1    
    41   43   24 1    
    42   44   24 1    
    43   26   25 ar   
    44   29   25 ar   
    45   27   26 ar   
    46   30   26 1    
    47   28   27 ar   
    48   45   27 1    
    49   31   28 ar   
    50   46   28 1    
    51   31   29 ar   
    52   47   31 1    
@<TRIPOS>SUBSTRUCTURE
     1 CDA248      1 GROUP   
@<TRIPOS>SET

