#    Name: 1ivs_VAA_2_INTS_M
#    Modification time : Tue Mar 25 08:13:40 2014

@<TRIPOS>MOLECULE
1ivs_VAA_2_INTS_M
   86     0    12     0     0
SMALL
NO_CHARGES


@<TRIPOS>ATOM
      1 OD1       182.6330  121.5485   19.2015 O.co2     3 ASC3        0.0000 
      2 OD1       181.0150  121.4070   19.1260 O.co2    11 ASL3        0.0000 
      3 OD1       184.2510  121.6900   19.2770 O.co2     7 ASP3        0.0000 
      4 O         180.7120  121.6935   20.4755 O.2       1 ALC1        0.0000 
      5 O         181.0150  121.4070   19.1260 O.2       9 ALL1        0.0000 
      6 O         180.4090  121.9800   21.8250 O.2       5 ALP1        0.0000 
      7 O         180.9685  122.5335   18.4795 O.2       1 ALC1        0.0000 
      8 O         180.9220  123.6600   17.8330 O.2       5 ALP1        0.0000 
      9 O         182.6330  121.5485   19.2015 O.2       1 ALC1        0.0000 
     10 O         184.2510  121.6900   19.2770 O.2       5 ALP1        0.0000 
     11 CA        180.7345  119.8795   16.5260 C.3       4 GLC5        0.0000 
     12 CA        180.3510  120.4090   18.2290 C.3      12 GLL5        0.0000 
     13 CA        181.1180  119.3500   14.8230 C.3       8 GLP5        0.0000 
     14 CA        178.7070  118.0565   21.4440 C.3       4 GLC5        0.0000 
     15 CA        179.7380  118.7770   20.2080 C.3      12 GLL5        0.0000 
     16 CA        177.6760  117.3360   22.6800 C.3       8 GLP5        0.0000 
     17 CA        180.5820  118.8475   21.9170 C.3       4 GLC5        0.0000 
     18 CA        181.4260  118.9180   23.6260 C.3       8 GLP5        0.0000 
     19 CA        182.1265  119.2780   21.1055 C.3       4 GLC5        0.0000 
     20 CA        181.8730  118.5720   19.0320 C.3      12 GLL5        0.0000 
     21 CA        182.3800  119.9840   23.1790 C.3       8 GLP5        0.0000 
     22 CA        183.6055  118.3060   18.7465 C.3       4 GLC5        0.0000 
     23 CA        185.3380  118.0400   18.4610 C.3       8 GLP5        0.0000 
     24 CA        182.5100  116.9840   18.7320 C.3       4 GLC5        0.0000 
     25 CA        183.1470  115.3960   18.4320 C.3       8 GLP5        0.0000 
     26 N         177.8840  124.3085   19.7720 N.am      2 SEC2        0.0000 
     27 N         176.4300  123.6230   19.1070 N.am     10 SEL2        0.0000 
     28 N         179.3380  124.9940   20.4370 N.am      6 SEP2        0.0000 
     29 N         175.0105  123.8690   19.6570 N.am      2 SEC2        0.0000 
     30 N         173.5910  124.1150   20.2070 N.am      6 SEP2        0.0000 
     31 N         169.9770  117.1640   19.6720 N.am      2 SEC2        0.0000 
     32 N         170.2030  118.5750   18.7680 N.am     10 SEL2        0.0000 
     33 N         169.7510  115.7530   20.5760 N.am      6 SEP2        0.0000 
     34 CA        168.4615  120.2365   19.2375 C.3       4 GLC5        0.0000 
     35 CA        168.8940  118.5590   18.3990 C.3      12 GLL5        0.0000 
     36 CA        168.0290  121.9140   20.0760 C.3       8 GLP5        0.0000 
     37 CA        167.3570  117.6705   19.7415 C.3       4 GLC5        0.0000 
     38 CA        165.8200  116.7820   21.0840 C.3       8 GLP5        0.0000 
     39 CA        168.7410  116.8120   19.3640 C.3       4 GLC5        0.0000 
     40 CA        168.5880  115.0650   20.3290 C.3       8 GLP5        0.0000 
     41 CA        167.8210  117.8465   17.1500 C.3       4 GLC5        0.0000 
     42 CA        166.7480  117.1340   15.9010 C.3       8 GLP5        0.0000 
     43 CA        166.8560  119.2515   18.8235 C.3       4 GLC5        0.0000 
     44 CA        164.8180  119.9440   19.2480 C.3       8 GLP5        0.0000 
     45 N         166.8640  119.2250   17.1300 N.am      2 SEC2        0.0000 
     46 N         168.2680  119.4140   17.5510 N.am     10 SEL2        0.0000 
     47 N         165.4600  119.0360   16.7090 N.am      6 SEP2        0.0000 
     48 CA        168.2190  119.0150   15.7810 C.3       4 GLC5        0.0000 
     49 CA        169.0120  120.4620   16.9580 C.3      12 GLL5        0.0000 
     50 CA        167.4260  117.5680   14.6040 C.3       8 GLP5        0.0000 
     51 O         166.8150  121.2475   15.6505 O.2       1 ALC1        0.0000 
     52 O         168.3720  121.3110   16.1100 O.2       9 ALL1        0.0000 
     53 O         165.2580  121.1840   15.1910 O.2       5 ALP1        0.0000 
     54 O         168.6725  122.4890   15.4130 O.2       1 ALC1        0.0000 
     55 O         168.9730  123.6670   14.7160 O.2       5 ALP1        0.0000 
     56 N         170.8125  122.7120   17.5345 N.am      2 SEC2        0.0000 
     57 N         171.4490  121.4820   16.8900 N.am     10 SEL2        0.0000 
     58 N         170.1760  123.9420   18.1790 N.am      6 SEP2        0.0000 
     59 N         174.5215  115.8805   18.6240 N.am      2 SEC2        0.0000 
     60 N         173.5650  117.0810   18.0610 N.am     10 SEL2        0.0000 
     61 N         175.4780  114.6800   19.1870 N.am      6 SEP2        0.0000 
     62 N         173.2245  115.8335   18.5155 N.am      2 SEC2        0.0000 
     63 N         172.8840  114.5860   18.9700 N.am      6 SEP2        0.0000 
     64 O         173.5750  116.9110   16.7215 O.2       1 ALC1        0.0000 
     65 O         173.5650  117.0810   18.0610 O.2       9 ALL1        0.0000 
     66 O         173.5850  116.7410   15.3820 O.2       5 ALP1        0.0000 
     67 CA        175.3260  115.9730   19.9400 C.3       4 GLC5        0.0000 
     68 CA        175.2070  118.1540   19.5660 C.3      12 GLL5        0.0000 
     69 CA        175.4450  113.7920   20.3140 C.3       8 GLP5        0.0000 
     70 N         175.1840  115.8565   19.8120 N.am      2 SEC2        0.0000 
     71 N         174.8900  117.0330   20.4370 N.am     10 SEL2        0.0000 
     72 N         173.8870  115.8095   19.7035 N.am      2 SEC2        0.0000 
     73 CA        181.5280  118.5235   17.1290 C.3       4 GLC5        0.0000 
     74 CA        180.4590  118.9320   18.8200 C.3      12 GLL5        0.0000 
     75 CA        181.8900  118.2950   15.3320 C.3       8 GLP5        0.0000 
     76 CA        178.9313  117.7747   18.4760 C.3       4 GLC5        0.0000 
     77 CA        177.7640  116.6950   17.4380 C.3       8 GLP5        0.0000 
     78 CA        180.6467  116.8578   19.4560 C.3       4 GLC5        0.0000 
     79 CA        181.1950  114.8610   19.3980 C.3       8 GLP5        0.0000 
     80 CA        174.3375  121.6085   20.6773 C.3       4 GLC5        0.0000 
     81 CA        175.1450  119.4110   20.4010 C.3      12 GLL5        0.0000 
     82 CA        173.0780  123.2560   21.1490 C.3       8 GLP5        0.0000 
     83 CA        168.9340  121.1001   18.7067 C.3       4 GLC5        0.0000 
     84 CA        176.2360  117.4652   18.2345 C.3       4 GLC5        0.0000 
     85 CA        174.2090  118.3170   18.4960 C.3      12 GLL5        0.0000 
     86 CA        176.5390  118.1968   21.2829 C.3       4 GLC5        0.0000 
@<TRIPOS>BOND
@<TRIPOS>SUBSTRUCTURE
     1 ALC1        4 GROUP        1 X    ALC  0     ROOT ALC X 1
     2 SEC2       26 GROUP        1 X    SEC  0     **** SEC X 2
     3 ASC3        1 GROUP        1 X    ASC  0     **** ASC X 3
     4 GLC5       11 GROUP        1 X    GLC  0     **** GLC X 6
     5 ALP1        6 GROUP        1 Y    ALP  0     ROOT ALP Y 8
     6 SEP2       28 GROUP        1 Y    SEP  0     **** SEP Y 9
     7 ASP3        3 GROUP        1 Y    ASP  0     **** ASP Y 10
     8 GLP5       13 GROUP        1 Y    GLP  0     **** GLP Y 13
     9 ALL1        5 GROUP        1 Z    ALL  0     ROOT ALL Z 15
    10 SEL2       27 GROUP        1 Z    SEL  0     **** SEL Z 16
    11 ASL3        2 GROUP        1 Z    ASL  0     **** ASL Z 17
    12 GLL5       12 GROUP        1 Z    GLL  0     **** GLL Z 20
@<TRIPOS>SET

