#    Name: 1ivs_VAA_2_ligand
#    Modification time : Tue Mar 25 08:13:40 2014

@<TRIPOS>MOLECULE
1ivs_VAA_2_ligand
   55    57     1     0     0
SMALL
NO_CHARGES


@<TRIPOS>ATOM
      1 N         181.0150  121.4070   19.1260 N.4       1 VAA991      0.0000 
      2 CA        180.3510  120.4090   18.2290 C.3       1 VAA991      0.0000 
      3 CB        180.4590  118.9320   18.8200 C.3       1 VAA991      0.0000 
      4 CG1       179.7380  118.7770   20.2080 C.3       1 VAA991      0.0000 
      5 CG2       181.8730  118.5720   19.0320 C.3       1 VAA991      0.0000 
      6 C         178.8750  120.7030   18.0190 C.2       1 VAA991      0.0000 
      7 O         178.1740  119.8970   17.3470 O.2       1 VAA991      0.0000 
      8 S         176.7380  122.3090   18.3900 S.o2      1 VAA991      0.0000 
      9 O1S       176.4300  123.6230   19.1070 O.2       1 VAA991      0.0000 
     10 O2S       176.3950  122.4250   16.9860 O.2       1 VAA991      0.0000 
     11 N3S       178.4060  121.8670   18.5940 N.am      1 VAA991      0.0000 
     12 N5'       175.5740  121.1890   18.9750 N.pl3     1 VAA991      0.0000 
     13 C5'       176.0490  120.5110   20.0100 C.3       1 VAA991      0.0000 
     14 C4'       175.1450  119.4110   20.4010 C.3       1 VAA991      0.0000 
     15 O4'       173.7730  119.8240   20.3230 O.3       1 VAA991      0.0000 
     16 C1'       173.1230  119.1320   19.1930 C.3       1 VAA991      0.0000 
     17 N9        172.2990  119.9350   18.3330 N.pl3     1 VAA991      0.0000 
     18 C4        170.9100  119.6260   18.1660 C.ar      1 VAA991      0.0000 
     19 N3        170.2030  118.5750   18.7680 N.ar      1 VAA991      0.0000 
     20 C2        168.8940  118.5590   18.3990 C.ar      1 VAA991      0.0000 
     21 N1        168.2680  119.4140   17.5510 N.ar      1 VAA991      0.0000 
     22 C6        169.0120  120.4620   16.9580 C.ar      1 VAA991      0.0000 
     23 N6        168.3720  121.3110   16.1100 N.pl3     1 VAA991      0.0000 
     24 C5        170.4220  120.5950   17.2680 C.ar      1 VAA991      0.0000 
     25 N7        171.4490  121.4820   16.8900 N.2       1 VAA991      0.0000 
     26 C8        172.4880  121.0550   17.5270 C.2       1 VAA991      0.0000 
     27 C2'       174.2090  118.3170   18.4960 C.3       1 VAA991      0.0000 
     28 O2'       173.5650  117.0810   18.0610 O.3       1 VAA991      0.0000 
     29 C3'       175.2070  118.1540   19.5660 C.3       1 VAA991      0.0000 
     30 O3'       174.8900  117.0330   20.4370 O.3       1 VAA991      0.0000 
     31 H         180.8386  120.3817   17.2635 H         1 VAA991      0.0000 
     32 H         180.0010  118.2576   18.1289 H         1 VAA991      0.0000 
     33 H         178.8780  122.5351   19.1342 H         1 VAA991      0.0000 
     34 H         174.7765  121.2115   18.4894 H         1 VAA991      0.0000 
     35 H         176.2056  121.1482   20.9207 H         1 VAA991      0.0000 
     36 H         177.0563  120.0559   19.8148 H         1 VAA991      0.0000 
     37 H         175.3478  119.1153   21.4425 H         1 VAA991      0.0000 
     38 H         172.4610  118.3291   19.6807 H         1 VAA991      0.0000 
     39 H         168.2797  117.7707   18.8336 H         1 VAA991      0.0000 
     40 H         167.3904  121.1596   15.9936 H         1 VAA991      0.0000 
     41 H         168.9395  122.0117   15.6776 H         1 VAA991      0.0000 
     42 H         173.4151  121.4783   17.4763 H         1 VAA991      0.0000 
     43 H         174.5785  118.8942   17.7049 H         1 VAA991      0.0000 
     44 H         176.1845  118.0711   19.1592 H         1 VAA991      0.0000 
     45 H         181.7804  121.0039   19.6278 H         1 VAA991      0.0000 
     46 H         181.3782  122.1843   18.6122 H         1 VAA991      0.0000 
     47 H         180.3806  121.7754   19.8056 H         1 VAA991      0.0000 
     48 H         179.8114  117.8449   20.5626 H         1 VAA991      0.0000 
     49 H         180.1283  119.3852   20.8992 H         1 VAA991      0.0000 
     50 H         178.7631  118.9911   20.1461 H         1 VAA991      0.0000 
     51 H         182.3946  118.5974   18.1792 H         1 VAA991      0.0000 
     52 H         182.3236  119.1965   19.6699 H         1 VAA991      0.0000 
     53 H         181.9693  117.6500   19.4071 H         1 VAA991      0.0000 
     54 H         173.6231  117.0964   17.0628 H         1 VAA991      0.0000 
     55 H         174.1058  117.3387   20.9770 H         1 VAA991      0.0000 
@<TRIPOS>BOND
     1    2    1 1    
     2   45    1 1    
     3   46    1 1    
     4   47    1 1    
     5    3    2 1    
     6    6    2 1    
     7   31    2 1    
     8    4    3 1    
     9    5    3 1    
    10   32    3 1    
    11   48    4 1    
    12   49    4 1    
    13   50    4 1    
    14   51    5 1    
    15   52    5 1    
    16   53    5 1    
    17    7    6 2    
    18   11    6 am   
    19    9    8 2    
    20   10    8 2    
    21   11    8 1    
    22   12    8 1    
    23   33   11 1    
    24   13   12 1    
    25   34   12 1    
    26   14   13 1    
    27   35   13 1    
    28   36   13 1    
    29   15   14 1    
    30   29   14 1    
    31   37   14 1    
    32   16   15 1    
    33   17   16 1    
    34   27   16 1    
    35   38   16 1    
    36   18   17 1    
    37   26   17 1    
    38   19   18 ar   
    39   24   18 ar   
    40   20   19 ar   
    41   21   20 ar   
    42   39   20 1    
    43   22   21 ar   
    44   23   22 1    
    45   24   22 ar   
    46   40   23 1    
    47   41   23 1    
    48   25   24 1    
    49   26   25 2    
    50   42   26 1    
    51   28   27 1    
    52   29   27 1    
    53   43   27 1    
    54   54   28 1    
    55   30   29 1    
    56   44   29 1    
    57   55   30 1    
@<TRIPOS>SUBSTRUCTURE
     1 VAA991      1 GROUP   
@<TRIPOS>SET

