#    Name: 3nls_016_1_INTS_M
#    Modification time : Tue Mar 25 01:48:01 2014

@<TRIPOS>MOLECULE
3nls_016_1_INTS_M
  126     0     9     0     0
SMALL
NO_CHARGES


@<TRIPOS>ATOM
      1 O          18.9870   26.2135   18.6935 O.2       1 ALC1        0.0000 
      2 O          19.7460   25.2280   17.7120 O.2       7 ALL1        0.0000 
      3 O          18.2280   27.1990   19.6750 O.2       4 ALP1        0.0000 
      4 N          20.5010   28.6570   17.6100 N.am      2 SEC2        0.0000 
      5 N          21.3780   27.3410   17.8870 N.am      8 SEL2        0.0000 
      6 N          19.6240   29.9730   17.3330 N.am      5 SEP2        0.0000 
      7 O          22.3950   28.6010   18.3605 O.2       1 ALC1        0.0000 
      8 O          21.3780   27.3410   17.8870 O.2       7 ALL1        0.0000 
      9 O          23.4120   29.8610   18.8340 O.2       4 ALP1        0.0000 
     10 CA         16.8980   25.2510   13.7520 C.3       3 GLC5        0.0000 
     11 CA         18.8320   25.8160   14.7350 C.3       9 GLL5        0.0000 
     12 CA         14.9640   24.6860   12.7690 C.3       6 GLP5        0.0000 
     13 CA         16.6670   27.1845   13.4405 C.3       3 GLC5        0.0000 
     14 CA         18.5540   26.5530   13.5790 C.3       9 GLL5        0.0000 
     15 CA         14.7800   27.8160   13.3020 C.3       6 GLP5        0.0000 
     16 CA         20.9120   29.7070   13.2880 C.3       3 GLC5        0.0000 
     17 CA         20.7060   27.7300   13.7180 C.3       9 GLL5        0.0000 
     18 CA         21.1180   31.6840   12.8580 C.3       6 GLP5        0.0000 
     19 CA         21.5820   28.5945   11.8940 C.3       3 GLC5        0.0000 
     20 CA         22.4580   29.4590   10.0700 C.3       6 GLP5        0.0000 
     21 CA         19.6600   29.6625   13.3780 C.3       3 GLC5        0.0000 
     22 CA         19.4820   27.4910   13.0880 C.3       9 GLL5        0.0000 
     23 CA         19.8380   31.8340   13.6680 C.3       6 GLP5        0.0000 
     24 CA         22.0475   29.0215   16.5730 C.3       3 GLC5        0.0000 
     25 CA         22.2240   27.0830   15.6950 C.3       9 GLL5        0.0000 
     26 CA         21.8710   30.9600   17.4510 C.3       6 GLP5        0.0000 
     27 CA         15.4600   18.1960   19.7005 C.3       3 GLC5        0.0000 
     28 CA         13.7820   18.5200   18.4420 C.3       9 GLL5        0.0000 
     29 CA         17.1380   17.8720   20.9590 C.3       6 GLP5        0.0000 
     30 CA         15.1675   18.1440   16.9340 C.3       3 GLC5        0.0000 
     31 CA         16.5530   17.7680   15.4260 C.3       6 GLP5        0.0000 
     32 CA          9.6105   13.9380   21.4330 C.3       3 GLC5        0.0000 
     33 CA         10.3200   15.7790   20.7720 C.3       9 GLL5        0.0000 
     34 CA          8.9010   12.0970   22.0940 C.3       6 GLP5        0.0000 
     35 CA         11.5080   15.1115   23.0805 C.3       3 GLC5        0.0000 
     36 CA         11.2900   16.4260   21.5350 C.3       9 GLL5        0.0000 
     37 CA         11.7260   13.7970   24.6260 C.3       6 GLP5        0.0000 
     38 CA         15.1070   18.0090   21.3990 C.3       3 GLC5        0.0000 
     39 CA         13.0760   18.1460   21.8390 C.3       9 GLL5        0.0000 
     40 CA         12.5680   19.8915   22.0315 C.3       3 GLC5        0.0000 
     41 CA         12.0600   21.6370   22.2240 C.3       6 GLP5        0.0000 
     42 CA         17.1595   20.0050   20.5175 C.3       3 GLC5        0.0000 
     43 CA         17.1810   22.1380   20.0760 C.3       9 GLL5        0.0000 
     44 CA         20.2990   21.2835   19.0045 C.3       3 GLC5        0.0000 
     45 CA         18.9020   21.7510   20.3710 C.3       9 GLL5        0.0000 
     46 CA         21.6960   20.8160   17.6380 C.3       6 GLP5        0.0000 
     47 CA         18.7110   19.7160   20.3870 C.3       3 GLC5        0.0000 
     48 CA         18.5200   17.6810   20.4030 C.3       6 GLP5        0.0000 
     49 CA         20.4880   20.9230   20.9600 C.3       3 GLC5        0.0000 
     50 CA         22.0740   20.0950   21.5490 C.3       6 GLP5        0.0000 
     51 CA         17.4030   25.8225   21.1620 C.3       3 GLC5        0.0000 
     52 CA         18.7570   24.1260   21.6930 C.3       9 GLL5        0.0000 
     53 CA         16.0490   27.5190   20.6310 C.3       6 GLP5        0.0000 
     54 CA         18.3725   25.3930   22.6935 C.3       3 GLC5        0.0000 
     55 CA         17.9880   26.6600   23.6940 C.3       6 GLP5        0.0000 
     56 CA         19.7190   23.8080   23.2000 C.3       3 GLC5        0.0000 
     57 CA         20.6810   23.4900   24.7070 C.3       6 GLP5        0.0000 
     58 CA         17.8205   22.8995   23.1100 C.3       3 GLC5        0.0000 
     59 CA         16.8840   21.6730   24.5270 C.3       6 GLP5        0.0000 
     60 CA         21.1900   22.3045   18.9510 C.3       3 GLC5        0.0000 
     61 CA         20.6840   23.7930   20.2640 C.3       9 GLL5        0.0000 
     62 CA         21.3790   21.9440   20.9065 C.3       3 GLC5        0.0000 
     63 CA         20.6825   23.6415   22.4855 C.3       3 GLC5        0.0000 
     64 CA         17.1875   25.7730   19.9095 C.3       3 GLC5        0.0000 
     65 CA         18.3260   24.0270   19.1880 C.3       9 GLL5        0.0000 
     66 O          12.5950   21.5755   18.0365 O.2       1 ALC1        0.0000 
     67 O          13.9880   20.8510   17.7310 O.2       7 ALL1        0.0000 
     68 O          11.2020   22.3000   18.3420 O.2       4 ALP1        0.0000 
     69 O          13.9295   23.9455   20.3005 O.2       1 ALC1        0.0000 
     70 O          14.4200   22.5010   19.6600 O.2       7 ALL1        0.0000 
     71 O          13.4390   25.3900   20.9410 O.2       4 ALP1        0.0000 
     72 O          14.6295   23.1745   20.6790 O.2       1 ALC1        0.0000 
     73 O          14.8390   23.8480   21.6980 O.2       4 ALP1        0.0000 
     74 CA         11.9565   23.6030   15.6245 C.3       3 GLC5        0.0000 
     75 CA         13.7300   22.6460   16.2200 C.3       9 GLL5        0.0000 
     76 CA         10.1830   24.5600   15.0290 C.3       6 GLP5        0.0000 
     77 CA         12.3855   23.6520   17.4475 C.3       3 GLC5        0.0000 
     78 CA         11.0410   24.6580   18.6750 C.3       6 GLP5        0.0000 
     79 N          15.2065   25.3635   17.0270 N.am      2 SEC2        0.0000 
     80 N          16.1720   24.7500   17.6940 N.am      8 SEL2        0.0000 
     81 N          14.2410   25.9770   16.3600 N.am      5 SEP2        0.0000 
     82 CA         12.8780   23.8810   18.5370 C.3       3 GLC5        0.0000 
     83 CA         14.7150   23.1040   18.3990 C.3       9 GLL5        0.0000 
     84 CA         18.5160   24.6082   13.0840 C.3       3 GLC5        0.0000 
     85 CA         18.3390   23.0320   12.0110 C.3       6 GLP5        0.0000 
     86 CA         18.3510   26.6800   11.6752 C.3       3 GLC5        0.0000 
     87 CA         17.6840   26.3380   10.0170 C.3       6 GLP5        0.0000 
     88 CA         19.1460   27.4786   16.3710 C.3       3 GLC5        0.0000 
     89 CA         20.9750   26.9850   14.8670 C.3       9 GLL5        0.0000 
     90 CA         17.6370   28.5910   17.3310 C.3       6 GLP5        0.0000 
     91 CA         22.7373   26.2070   13.7870 C.3       3 GLC5        0.0000 
     92 CA         23.8750   25.3800   12.2930 C.3       6 GLP5        0.0000 
     93 CA         20.7615   26.3295   12.2179 C.3       3 GLC5        0.0000 
     94 CA         21.6610   25.2830   10.9100 C.3       6 GLP5        0.0000 
     95 CA         17.9823   27.6434   14.8188 C.3       3 GLC5        0.0000 
     96 CA         16.8770   28.4490   16.0150 C.3       6 GLP5        0.0000 
     97 CA         11.5272   19.6557   20.6705 C.3       3 GLC5        0.0000 
     98 CA         11.8380   17.8390   19.6690 C.3       9 GLL5        0.0000 
     99 CA         11.1150   21.6620   21.0100 C.3       6 GLP5        0.0000 
    100 CA          9.2301   17.9805   19.4070 C.3       3 GLC5        0.0000 
    101 CA          7.4460   18.3960   20.4380 C.3       6 GLP5        0.0000 
    102 CA          9.9340   16.3218   22.8233 C.3       3 GLC5        0.0000 
    103 CA          9.0630   16.5410   24.4930 C.3       6 GLP5        0.0000 
    104 CA          9.1002   17.2965   20.6294 C.3       3 GLC5        0.0000 
    105 CA         11.5557   14.6210   20.8029 C.3       3 GLC5        0.0000 
    106 CA         10.1180   16.1570   19.4410 C.3       9 GLL5        0.0000 
    107 CA         12.3570   13.0450   20.7850 C.3       6 GLP5        0.0000 
    108 CA         13.5587   17.3020   23.0190 C.3       3 GLC5        0.0000 
    109 CA         12.0410   17.4600   20.9930 C.3       9 GLL5        0.0000 
    110 CA         14.5590   16.8010   24.6220 C.3       6 GLP5        0.0000 
    111 CA         13.7398   16.1630   21.5920 C.3       3 GLC5        0.0000 
    112 CA         14.9210   14.5230   21.7680 C.3       6 GLP5        0.0000 
    113 CA         17.5162   21.3102   21.7862 C.3       3 GLC5        0.0000 
    114 CA         16.9910   20.6760   23.3490 C.3       6 GLP5        0.0000 
    115 CA         14.3413   23.4017   14.2245 C.3       3 GLC5        0.0000 
    116 CA         14.9590   19.2018   11.6920 C.3       3 GLC5        0.0000 
    117 CA         13.7850   19.6050   13.2030 C.3       9 GLL5        0.0000 
    118 CA         15.5760   18.3840   10.0950 C.3       6 GLP5        0.0000 
    119 CA         11.9865   20.3196   12.3695 C.3       3 GLC5        0.0000 
    120 CA         10.7730   20.7110   10.8950 C.3       6 GLP5        0.0000 
    121 CA         14.9207   22.8152   13.3170 C.3       3 GLC5        0.0000 
    122 CA         14.8990   20.4340   13.3750 C.3       9 GLL5        0.0000 
    123 CA         16.7527   20.3783   13.4400 C.3       3 GLC5        0.0000 
    124 CA         14.8560   21.4550   14.3550 C.3       9 GLL5        0.0000 
    125 CA         18.6280   19.8120   13.0150 C.3       6 GLP5        0.0000 
    126 CA         15.5760   19.2526   14.6240 C.3       3 GLC5        0.0000 
@<TRIPOS>BOND
@<TRIPOS>SUBSTRUCTURE
     1 ALC1        1 GROUP        1 X    ALC  0     ROOT ALC X 1
     2 SEC2        4 GROUP        1 X    SEC  0     **** SEC X 2
     3 GLC5       10 GROUP        1 X    GLC  0     **** GLC X 6
     4 ALP1        3 GROUP        1 Y    ALP  0     ROOT ALP Y 8
     5 SEP2        6 GROUP        1 Y    SEP  0     **** SEP Y 9
     6 GLP5       12 GROUP        1 Y    GLP  0     **** GLP Y 13
     7 ALL1        2 GROUP        1 Z    ALL  0     ROOT ALL Z 15
     8 SEL2        5 GROUP        1 Z    SEL  0     **** SEL Z 16
     9 GLL5       11 GROUP        1 Z    GLL  0     **** GLL Z 20
@<TRIPOS>SET

