#    Name: 3nls_016_1_ligand
#    Modification time : Tue Mar 25 01:48:01 2014

@<TRIPOS>MOLECULE
3nls_016_1_ligand
   86    90     1     0     0
SMALL
NO_CHARGES


@<TRIPOS>ATOM
      1 N30        19.7460   25.2280   17.7120 N.am      1 016100      0.0000 
      2 O30        21.3780   27.3410   17.8870 O.3       1 016100      0.0000 
      3 C31        20.6110   25.4230   16.5510 C.3       1 016100      0.0000 
      4 C32        20.0590   26.0720   15.3590 C.ar      1 016100      0.0000 
      5 C33        18.8320   25.8160   14.7350 C.ar      1 016100      0.0000 
      6 C34        18.5540   26.5530   13.5790 C.ar      1 016100      0.0000 
      7 C35        21.7880   26.3440   16.9530 C.3       1 016100      0.0000 
      8 C36        20.9750   26.9850   14.8670 C.ar      1 016100      0.0000 
      9 C37        20.7060   27.7300   13.7180 C.ar      1 016100      0.0000 
     10 C38        19.4820   27.4910   13.0880 C.ar      1 016100      0.0000 
     11 C39        22.2240   27.0830   15.6950 C.3       1 016100      0.0000 
     12 C40        14.6200   19.7160   18.0230 C.2       1 016100      0.0000 
     13 O40        15.8180   19.5520   18.0010 O.2       1 016100      0.0000 
     14 C41        13.7820   18.5200   18.4420 C.3       1 016100      0.0000 
     15 O41        12.5720   18.8620   19.1110 O.3       1 016100      0.0000 
     16 C42        11.8380   17.8390   19.6690 C.ar      1 016100      0.0000 
     17 C43        10.8930   17.1910   18.8970 C.ar      1 016100      0.0000 
     18 C44        10.6630   17.6150   17.4690 C.3       1 016100      0.0000 
     19 C45        10.1180   16.1570   19.4410 C.ar      1 016100      0.0000 
     20 C46        10.3200   15.7790   20.7720 C.ar      1 016100      0.0000 
     21 C47        11.2900   16.4260   21.5350 C.ar      1 016100      0.0000 
     22 C48        12.0410   17.4600   20.9930 C.ar      1 016100      0.0000 
     23 C49        13.0760   18.1460   21.8390 C.3       1 016100      0.0000 
     24 C50        17.1810   22.1380   20.0760 C.3       1 016100      0.0000 
     25 N50        17.0810   23.3050   19.1640 N.am      1 016100      0.0000 
     26 O50        19.1250   23.1250   17.0860 O.2       1 016100      0.0000 
     27 S50        18.9020   21.7510   20.3710 S.3       1 016100      0.0000 
     28 C51        19.1890   23.5020   20.3540 C.3       1 016100      0.0000 
     29 C52        18.7570   24.1260   21.6930 C.3       1 016100      0.0000 
     30 C53        20.6840   23.7930   20.2640 C.3       1 016100      0.0000 
     31 C54        18.3260   24.0270   19.1880 C.3       1 016100      0.0000 
     32 C55        19.0900   24.0770   17.8780 C.2       1 016100      0.0000 
     33 C60        14.6590   22.0860   17.2780 C.3       1 016100      0.0000 
     34 N60        13.9880   20.8510   17.7310 N.am      1 016100      0.0000 
     35 O60        14.4200   22.5010   19.6600 O.3       1 016100      0.0000 
     36 C61        13.7300   22.6460   16.2200 C.3       1 016100      0.0000 
     37 O61        16.1720   24.7500   17.6940 O.2       1 016100      0.0000 
     38 C62        13.7070   21.5890   15.1400 C.ar      1 016100      0.0000 
     39 C63        12.5910   20.7440   14.9780 C.ar      1 016100      0.0000 
     40 C64        12.6390   19.7590   13.9920 C.ar      1 016100      0.0000 
     41 C65        13.7850   19.6050   13.2030 C.ar      1 016100      0.0000 
     42 C66        14.8990   20.4340   13.3750 C.ar      1 016100      0.0000 
     43 C67        14.8560   21.4550   14.3550 C.ar      1 016100      0.0000 
     44 C68        14.7150   23.1040   18.3990 C.3       1 016100      0.0000 
     45 C69        16.0540   23.7850   18.4150 C.2       1 016100      0.0000 
     46 H          19.6790   26.0145   18.3730 H         1 016100      0.0000 
     47 H          21.0910   24.4814   16.2588 H         1 016100      0.0000 
     48 H          18.1881   25.1410   15.0975 H         1 016100      0.0000 
     49 H          17.6660   26.4115   13.0811 H         1 016100      0.0000 
     50 H          22.5905   25.7547   17.2954 H         1 016100      0.0000 
     51 H          21.3582   28.4036   13.3616 H         1 016100      0.0000 
     52 H          19.2439   28.0225   12.2257 H         1 016100      0.0000 
     53 H          23.0146   26.5633   15.2344 H         1 016100      0.0000 
     54 H          22.4348   28.0871   15.9286 H         1 016100      0.0000 
     55 H          14.4254   17.8691   19.0808 H         1 016100      0.0000 
     56 H          13.5787   17.9172   17.5249 H         1 016100      0.0000 
     57 H           9.4151   15.6868   18.8709 H         1 016100      0.0000 
     58 H           9.7557   15.0287   21.1828 H         1 016100      0.0000 
     59 H          11.4497   16.1321   22.5115 H         1 016100      0.0000 
     60 H          16.8081   21.2251   19.6668 H         1 016100      0.0000 
     61 H          16.8142   22.3165   21.0627 H         1 016100      0.0000 
     62 H          18.1006   25.1001   19.4712 H         1 016100      0.0000 
     63 H          15.5905   21.9049   16.8732 H         1 016100      0.0000 
     64 H          12.9372   20.9325   17.8101 H         1 016100      0.0000 
     65 H          14.1297   23.5551   15.8320 H         1 016100      0.0000 
     66 H          12.7528   22.7727   16.6270 H         1 016100      0.0000 
     67 H          11.7742   20.8551   15.5688 H         1 016100      0.0000 
     68 H          11.8304   19.1420   13.8420 H         1 016100      0.0000 
     69 H          13.8084   18.8660   12.4809 H         1 016100      0.0000 
     70 H          15.7334   20.3107   12.8065 H         1 016100      0.0000 
     71 H          15.6499   22.0748   14.4791 H         1 016100      0.0000 
     72 H          13.9586   23.8750   18.1676 H         1 016100      0.0000 
     73 H          11.4909   17.5216   16.9159 H         1 016100      0.0000 
     74 H           9.9527   17.0660   17.0284 H         1 016100      0.0000 
     75 H          10.3754   18.5707   17.4071 H         1 016100      0.0000 
     76 H          13.9929   18.0556   21.4502 H         1 016100      0.0000 
     77 H          12.8917   19.1246   21.9306 H         1 016100      0.0000 
     78 H          13.1109   17.7665   22.7635 H         1 016100      0.0000 
     79 H          19.2667   23.7424   22.4631 H         1 016100      0.0000 
     80 H          18.9052   25.1149   21.7069 H         1 016100      0.0000 
     81 H          17.7864   23.9725   21.8783 H         1 016100      0.0000 
     82 H          21.1847   23.4076   21.0391 H         1 016100      0.0000 
     83 H          21.0879   23.4086   19.4338 H         1 016100      0.0000 
     84 H          20.8712   24.7753   20.2534 H         1 016100      0.0000 
     85 H          22.1792   27.9271   18.0081 H         1 016100      0.0000 
     86 H          14.1955   23.2645   20.2656 H         1 016100      0.0000 
@<TRIPOS>BOND
     1    3    1 1    
     2   32    1 am   
     3   46    1 1    
     4    7    2 1    
     5   85    2 1    
     6    4    3 1    
     7    7    3 1    
     8   47    3 1    
     9    5    4 ar   
    10    8    4 ar   
    11    6    5 ar   
    12   48    5 1    
    13   10    6 ar   
    14   49    6 1    
    15   11    7 1    
    16   50    7 1    
    17    9    8 ar   
    18   11    8 1    
    19   10    9 ar   
    20   51    9 1    
    21   52   10 1    
    22   53   11 1    
    23   54   11 1    
    24   13   12 2    
    25   14   12 1    
    26   34   12 am   
    27   15   14 1    
    28   55   14 1    
    29   56   14 1    
    30   16   15 1    
    31   17   16 ar   
    32   22   16 ar   
    33   18   17 1    
    34   19   17 ar   
    35   73   18 1    
    36   74   18 1    
    37   75   18 1    
    38   20   19 ar   
    39   57   19 1    
    40   21   20 ar   
    41   58   20 1    
    42   22   21 ar   
    43   59   21 1    
    44   23   22 1    
    45   76   23 1    
    46   77   23 1    
    47   78   23 1    
    48   25   24 1    
    49   27   24 1    
    50   60   24 1    
    51   61   24 1    
    52   31   25 1    
    53   45   25 am   
    54   32   26 2    
    55   28   27 1    
    56   29   28 1    
    57   30   28 1    
    58   31   28 1    
    59   79   29 1    
    60   80   29 1    
    61   81   29 1    
    62   82   30 1    
    63   83   30 1    
    64   84   30 1    
    65   32   31 1    
    66   62   31 1    
    67   34   33 1    
    68   36   33 1    
    69   44   33 1    
    70   63   33 1    
    71   64   34 1    
    72   44   35 1    
    73   86   35 1    
    74   38   36 1    
    75   65   36 1    
    76   66   36 1    
    77   45   37 2    
    78   39   38 ar   
    79   43   38 ar   
    80   40   39 ar   
    81   67   39 1    
    82   41   40 ar   
    83   68   40 1    
    84   42   41 ar   
    85   69   41 1    
    86   43   42 ar   
    87   70   42 1    
    88   71   43 1    
    89   45   44 1    
    90   72   44 1    
@<TRIPOS>SUBSTRUCTURE
     1 016100      1 GROUP   
@<TRIPOS>SET

