#    Name: 2j6m_AEE_1_INTS_M
#    Modification time : Tue Mar 25 19:23:53 2014

@<TRIPOS>MOLECULE
2j6m_AEE_1_INTS_M
   68     0     9     0     0
SMALL
NO_CHARGES


@<TRIPOS>ATOM
      1 CA        -50.9760   -4.4925   -8.4430 C.3       3 GLC5        0.0000 
      2 CA        -50.3250   -3.0340   -9.6850 C.3       9 GLL5        0.0000 
      3 CA        -51.6270   -5.9510   -7.2010 C.3       6 GLP5        0.0000 
      4 CA        -52.0700   -2.2365  -15.1785 C.3       3 GLC5        0.0000 
      5 CA        -50.3000   -2.5340  -13.9180 C.3       9 GLL5        0.0000 
      6 CA        -53.8400   -1.9390  -16.4390 C.3       6 GLP5        0.0000 
      7 O         -54.4760    1.1495  -18.8095 O.2       1 ALC1        0.0000 
      8 O         -53.3660    1.1590  -19.9400 O.2       7 ALL1        0.0000 
      9 O         -55.5860    1.1400  -17.6790 O.2       4 ALP1        0.0000 
     10 CA        -53.7240    3.0860  -20.2975 C.3       3 GLC5        0.0000 
     11 CA        -53.6530    1.0650  -21.2250 C.3       9 GLL5        0.0000 
     12 CA        -53.7950    5.1070  -19.3700 C.3       6 GLP5        0.0000 
     13 CA        -55.4715    0.7950  -20.5120 C.3       3 GLC5        0.0000 
     14 CA        -57.2900    0.5250  -19.7990 C.3       6 GLP5        0.0000 
     15 N         -55.6700    2.2730  -20.9510 N.am      2 SEC2        0.0000 
     16 N         -54.5870    1.6230  -21.9920 N.am      8 SEL2        0.0000 
     17 N         -56.7530    2.9230  -19.9100 N.am      5 SEP2        0.0000 
     18 CA        -53.6005    2.7210  -23.3390 C.3       3 GLC5        0.0000 
     19 CA        -54.6590    1.3430  -23.2760 C.3       9 GLL5        0.0000 
     20 CA        -52.5420    4.0990  -23.4020 C.3       6 GLP5        0.0000 
     21 CA        -54.8735    2.2790  -24.8665 C.3       3 GLC5        0.0000 
     22 CA        -55.0880    3.2150  -26.4570 C.3       6 GLP5        0.0000 
     23 CA        -56.2930    0.9220  -22.2250 C.3       3 GLC5        0.0000 
     24 CA        -57.9270    0.5010  -21.1740 C.3       6 GLP5        0.0000 
     25 CA        -55.1425   -0.3880  -22.9665 C.3       3 GLC5        0.0000 
     26 CA        -55.6260   -2.1190  -22.6570 C.3       6 GLP5        0.0000 
     27 CA        -53.9835   -1.7230  -23.8730 C.3       3 GLC5        0.0000 
     28 CA        -52.3410   -1.3270  -25.0890 C.3       9 GLL5        0.0000 
     29 CA        -50.4100    1.5320  -24.4885 C.3       3 GLC5        0.0000 
     30 CA        -52.2240    1.1440  -25.4670 C.3       9 GLL5        0.0000 
     31 CA        -48.5960    1.9200  -23.5100 C.3       6 GLP5        0.0000 
     32 CA        -54.1815    0.4880  -29.3520 C.3       3 GLC5        0.0000 
     33 CA        -52.4720    0.8110  -28.2030 C.3       9 GLL5        0.0000 
     34 CA        -55.8910    0.1650  -30.5010 C.3       6 GLP5        0.0000 
     35 CA        -53.7855   -0.8780  -29.0135 C.3       3 GLC5        0.0000 
     36 CA        -52.4670   -0.2920  -27.3680 C.3       9 GLL5        0.0000 
     37 CA        -55.1040   -1.4640  -30.6590 C.3       6 GLP5        0.0000 
     38 CA        -49.7595    2.0445  -16.3292 C.3       3 GLC5        0.0000 
     39 CA        -51.5450    0.8070  -16.1470 C.3       9 GLL5        0.0000 
     40 CA        -48.4940    3.7280  -16.5900 C.3       6 GLP5        0.0000 
     41 CA        -52.4325   -0.7890  -16.2538 C.3       3 GLC5        0.0000 
     42 CA        -49.0430    0.7772  -18.0740 C.3       3 GLC5        0.0000 
     43 CA        -50.6790   -0.6800  -18.3070 C.3       9 GLL5        0.0000 
     44 CA        -47.7080    2.3100  -18.4600 C.3       6 GLP5        0.0000 
     45 CA        -52.1090   -1.3473  -17.0635 C.3       3 GLC5        0.0000 
     46 CA        -50.0770   -0.8310  -17.0690 C.3       9 GLL5        0.0000 
     47 CA        -50.9091    2.1303  -18.8103 C.3       3 GLC5        0.0000 
     48 CA        -52.1510    0.9550  -17.3830 C.3       9 GLL5        0.0000 
     49 CA        -49.6860    3.7830  -18.8110 C.3       6 GLP5        0.0000 
     50 CA        -52.9861   -0.7308  -17.6243 C.3       3 GLC5        0.0000 
     51 CA        -52.7888    2.1867  -22.8593 C.3       3 GLC5        0.0000 
     52 CA        -52.8630   -0.0780  -23.1290 C.3       9 GLL5        0.0000 
     53 CA        -54.3308   -0.9223  -22.4868 C.3       3 GLC5        0.0000 
     54 CA        -53.5305   -3.0962  -25.1880 C.3       3 GLC5        0.0000 
     55 CA        -55.2470   -4.3750  -25.0450 C.3       6 GLP5        0.0000 
     56 CA        -53.6860    1.8630  -26.0955 C.3       3 GLC5        0.0000 
     57 CA        -52.3440   -0.1220  -26.0010 C.3       9 GLL5        0.0000 
     58 CA        -52.3845    2.8967  -24.6440 C.3       3 GLC5        0.0000 
     59 CA        -52.2300    2.2450  -26.3050 C.3       9 GLL5        0.0000 
     60 CA        -50.2843    2.1955  -27.4720 C.3       3 GLC5        0.0000 
     61 CA        -48.2760    2.2290  -27.9560 C.3       6 GLP5        0.0000 
     62 CA        -53.6902    2.6885  -26.7225 C.3       3 GLC5        0.0000 
     63 CA        -52.3550    2.0790  -27.6710 C.3       9 GLL5        0.0000 
     64 CA        -51.6902    2.4125  -29.6505 C.3       3 GLC5        0.0000 
     65 CA        -50.9670    3.3800  -31.3640 C.3       6 GLP5        0.0000 
     66 CA        -50.4627    0.0688  -28.2602 C.3       3 GLC5        0.0000 
     67 CA        -48.4560   -0.1220  -28.7350 C.3       6 GLP5        0.0000 
     68 CA        -53.7788    1.7372  -27.1212 C.3       3 GLC5        0.0000 
@<TRIPOS>BOND
@<TRIPOS>SUBSTRUCTURE
     1 ALC1        7 GROUP        1 X    ALC  0     ROOT ALC X 1
     2 SEC2       15 GROUP        1 X    SEC  0     **** SEC X 2
     3 GLC5        1 GROUP        1 X    GLC  0     **** GLC X 6
     4 ALP1        9 GROUP        1 Y    ALP  0     ROOT ALP Y 8
     5 SEP2       17 GROUP        1 Y    SEP  0     **** SEP Y 9
     6 GLP5        3 GROUP        1 Y    GLP  0     **** GLP Y 13
     7 ALL1        8 GROUP        1 Z    ALL  0     ROOT ALL Z 15
     8 SEL2       16 GROUP        1 Z    SEL  0     **** SEL Z 16
     9 GLL5        2 GROUP        1 Z    GLL  0     **** GLL Z 20
@<TRIPOS>SET

