#    Name: 2j6m_AEE_1_ligand
#    Modification time : Tue Mar 25 19:23:53 2014

@<TRIPOS>MOLECULE
2j6m_AEE_1_ligand
   66    70     1     0     0
SMALL
NO_CHARGES


@<TRIPOS>ATOM
      1 CAQ       -50.7820   -0.6920  -12.4130 C.3       1 AEE2021     0.0000 
      2 CAO       -49.4830   -1.0040  -11.6760 C.3       1 AEE2021     0.0000 
      3 NBF       -49.1860   -2.4340  -11.7620 N.3       1 AEE2021     0.0000 
      4 CAN       -50.2950   -3.2120  -11.2020 C.3       1 AEE2021     0.0000 
      5 CAA       -50.3250   -3.0340   -9.6850 C.3       1 AEE2021     0.0000 
      6 CAP       -48.9970   -2.7720  -13.1700 C.3       1 AEE2021     0.0000 
      7 CAR       -50.3000   -2.5340  -13.9180 C.3       1 AEE2021     0.0000 
      8 NBG       -50.6950   -1.1260  -13.8110 N.4       1 AEE2021     0.0000 
      9 CAS       -49.8460   -0.2520  -14.6260 C.3       1 AEE2021     0.0000 
     10 CAX       -50.5050   -0.0850  -15.9900 C.ar      1 AEE2021     0.0000 
     11 CAI       -51.5450    0.8070  -16.1470 C.ar      1 AEE2021     0.0000 
     12 CAK       -52.1510    0.9550  -17.3830 C.ar      1 AEE2021     0.0000 
     13 CAJ       -50.0770   -0.8310  -17.0690 C.ar      1 AEE2021     0.0000 
     14 CAL       -50.6790   -0.6800  -18.3070 C.ar      1 AEE2021     0.0000 
     15 CAY       -51.7220    0.2090  -18.4630 C.ar      1 AEE2021     0.0000 
     16 CBA       -52.3280    0.3730  -19.6960 C.2       1 AEE2021     0.0000 
     17 NAW       -53.3660    1.1590  -19.9400 N.pl3     1 AEE2021     0.0000 
     18 CAM       -51.9570   -0.2180  -20.8220 C.2       1 AEE2021     0.0000 
     19 C5        -52.7630    0.1890  -21.7830 C.ar      1 AEE2021     0.0000 
     20 C4        -53.6530    1.0650  -21.2250 C.ar      1 AEE2021     0.0000 
     21 N3        -54.5870    1.6230  -21.9920 N.ar      1 AEE2021     0.0000 
     22 C2        -54.6590    1.3430  -23.2760 C.ar      1 AEE2021     0.0000 
     23 N1        -53.8170    0.5090  -23.8430 N.ar      1 AEE2021     0.0000 
     24 C6        -52.8630   -0.0780  -23.1290 C.ar      1 AEE2021     0.0000 
     25 NAV       -52.0340   -0.9090  -23.7250 N.pl3     1 AEE2021     0.0000 
     26 CBE       -52.3410   -1.3270  -25.0890 C.3       1 AEE2021     0.0000 
     27 CAB       -51.2870   -2.3080  -25.5730 C.3       1 AEE2021     0.0000 
     28 CAZ       -52.3440   -0.1220  -26.0010 C.ar      1 AEE2021     0.0000 
     29 CAG       -52.2240    1.1440  -25.4670 C.ar      1 AEE2021     0.0000 
     30 CAD       -52.2300    2.2450  -26.3050 C.ar      1 AEE2021     0.0000 
     31 CAC       -52.3550    2.0790  -27.6710 C.ar      1 AEE2021     0.0000 
     32 CAE       -52.4720    0.8110  -28.2030 C.ar      1 AEE2021     0.0000 
     33 CAH       -52.4670   -0.2920  -27.3680 C.ar      1 AEE2021     0.0000 
     34 H         -50.9625    0.3858  -12.3523 H         1 AEE2021     0.0000 
     35 H         -51.6016   -1.2035  -11.8987 H         1 AEE2021     0.0000 
     36 H         -49.5950   -0.6916  -10.6340 H         1 AEE2021     0.0000 
     37 H         -48.6813   -0.4121  -12.1263 H         1 AEE2021     0.0000 
     38 H         -50.1756   -4.2729  -11.4217 H         1 AEE2021     0.0000 
     39 H         -51.2495   -2.8756  -11.6069 H         1 AEE2021     0.0000 
     40 H         -48.7180   -3.8194  -13.2856 H         1 AEE2021     0.0000 
     41 H         -48.2218   -2.1514  -13.6194 H         1 AEE2021     0.0000 
     42 H         -51.0688   -3.1848  -13.4914 H         1 AEE2021     0.0000 
     43 H         -50.1558   -2.8166  -14.9648 H         1 AEE2021     0.0000 
     44 H         -51.7416   -1.0537  -14.2380 H         1 AEE2021     0.0000 
     45 H         -48.8623   -0.6884  -14.7677 H         1 AEE2021     0.0000 
     46 H         -49.7441    0.7270  -14.1684 H         1 AEE2021     0.0000 
     47 H         -51.8735    1.3656  -15.3443 H         1 AEE2021     0.0000 
     48 H         -52.9274    1.6269  -17.4962 H         1 AEE2021     0.0000 
     49 H         -49.3033   -1.5066  -16.9550 H         1 AEE2021     0.0000 
     50 H         -50.3457   -1.2334  -19.1107 H         1 AEE2021     0.0000 
     51 H         -53.8325    1.7076  -19.2857 H         1 AEE2021     0.0000 
     52 H         -51.2167   -0.8441  -20.9195 H         1 AEE2021     0.0000 
     53 H         -55.4147    1.8019  -23.8658 H         1 AEE2021     0.0000 
     54 H         -51.1870   -1.2865  -23.3044 H         1 AEE2021     0.0000 
     55 H         -53.3003   -1.8018  -25.1362 H         1 AEE2021     0.0000 
     56 H         -52.1303    1.2713  -24.4499 H         1 AEE2021     0.0000 
     57 H         -52.1407    3.1937  -25.9073 H         1 AEE2021     0.0000 
     58 H         -52.3608    2.9023  -28.2918 H         1 AEE2021     0.0000 
     59 H         -52.5632    0.6842  -29.2221 H         1 AEE2021     0.0000 
     60 H         -52.5548   -1.2389  -27.7642 H         1 AEE2021     0.0000 
     61 H         -49.4776   -3.3485   -9.2573 H         1 AEE2021     0.0000 
     62 H         -50.4460   -2.0758   -9.4258 H         1 AEE2021     0.0000 
     63 H         -51.0733   -3.5479   -9.2655 H         1 AEE2021     0.0000 
     64 H         -50.3728   -1.9027  -25.5694 H         1 AEE2021     0.0000 
     65 H         -51.2477   -3.1249  -24.9975 H         1 AEE2021     0.0000 
     66 H         -51.4674   -2.6160  -26.5071 H         1 AEE2021     0.0000 
@<TRIPOS>BOND
     1    2    1 1    
     2    8    1 1    
     3   34    1 1    
     4   35    1 1    
     5    3    2 1    
     6   36    2 1    
     7   37    2 1    
     8    4    3 1    
     9    6    3 1    
    10    5    4 1    
    11   38    4 1    
    12   39    4 1    
    13   61    5 1    
    14   62    5 1    
    15   63    5 1    
    16    7    6 1    
    17   40    6 1    
    18   41    6 1    
    19    8    7 1    
    20   42    7 1    
    21   43    7 1    
    22    9    8 1    
    23   44    8 1    
    24   10    9 1    
    25   45    9 1    
    26   46    9 1    
    27   11   10 ar   
    28   13   10 ar   
    29   12   11 ar   
    30   47   11 1    
    31   15   12 ar   
    32   48   12 1    
    33   14   13 ar   
    34   49   13 1    
    35   15   14 ar   
    36   50   14 1    
    37   16   15 1    
    38   17   16 1    
    39   18   16 2    
    40   20   17 1    
    41   51   17 1    
    42   19   18 1    
    43   52   18 1    
    44   20   19 ar   
    45   24   19 ar   
    46   21   20 ar   
    47   22   21 ar   
    48   23   22 ar   
    49   53   22 1    
    50   24   23 ar   
    51   25   24 1    
    52   26   25 1    
    53   54   25 1    
    54   27   26 1    
    55   28   26 1    
    56   55   26 1    
    57   64   27 1    
    58   65   27 1    
    59   66   27 1    
    60   29   28 ar   
    61   33   28 ar   
    62   30   29 ar   
    63   56   29 1    
    64   31   30 ar   
    65   57   30 1    
    66   32   31 ar   
    67   58   31 1    
    68   33   32 ar   
    69   59   32 1    
    70   60   33 1    
@<TRIPOS>SUBSTRUCTURE
     1 AEE2021     1 GROUP   
@<TRIPOS>SET

