#    Name: 3a51_VDY_5_INTS_M
#    Modification time : Mon Apr  7 18:56:43 2014

@<TRIPOS>MOLECULE
3a51_VDY_5_INTS_M
   77     0     3     0     0
SMALL
NO_CHARGES


@<TRIPOS>ATOM
      1 CA        -56.4420   38.1140  -31.0325 C.3       1 GLC5        0.0000 
      2 CA        -54.7710   38.4890  -29.7110 C.3       3 GLL5        0.0000 
      3 CA        -58.1130   37.7390  -32.3540 C.3       2 GLP5        0.0000 
      4 CA        -53.3475   43.2005  -29.2750 C.3       1 GLC5        0.0000 
      5 CA        -53.4260   41.2400  -29.1260 C.3       3 GLL5        0.0000 
      6 CA        -53.2690   45.1610  -29.4240 C.3       2 GLP5        0.0000 
      7 CA        -52.8235   41.5465  -27.2545 C.3       1 GLC5        0.0000 
      8 CA        -52.2210   41.8530  -25.3830 C.3       2 GLP5        0.0000 
      9 CA        -54.2200   41.2380  -26.8135 C.3       1 GLC5        0.0000 
     10 CA        -54.8860   40.9270  -28.9350 C.3       3 GLL5        0.0000 
     11 CA        -53.5540   41.5490  -24.6920 C.3       2 GLP5        0.0000 
     12 CA        -57.5385   40.6195  -29.8130 C.3       1 GLC5        0.0000 
     13 CA        -55.9050   41.7770  -28.8390 C.3       3 GLL5        0.0000 
     14 CA        -59.1720   39.4620  -30.7870 C.3       2 GLP5        0.0000 
     15 CA        -57.9085   40.9070  -31.0090 C.3       1 GLC5        0.0000 
     16 CA        -56.6450   42.3520  -31.2310 C.3       3 GLL5        0.0000 
     17 CA        -55.3990   44.7535  -33.1460 C.3       1 GLC5        0.0000 
     18 CA        -57.5070   44.1030  -32.9520 C.3       3 GLL5        0.0000 
     19 CA        -53.2910   45.4040  -33.3400 C.3       2 GLP5        0.0000 
     20 CA        -56.8180   45.2260  -34.5150 C.3       1 GLC5        0.0000 
     21 CA        -56.1290   46.3490  -36.0780 C.3       2 GLP5        0.0000 
     22 CA        -56.2895   46.5595  -30.7760 C.3       1 GLC5        0.0000 
     23 CA        -57.1270   44.8170  -30.6120 C.3       3 GLL5        0.0000 
     24 CA        -55.4520   48.3020  -30.9400 C.3       2 GLP5        0.0000 
     25 CA        -57.0725   47.2040  -31.3550 C.3       1 GLC5        0.0000 
     26 CA        -58.6930   46.1060  -31.7700 C.3       3 GLL5        0.0000 
     27 CA        -59.2655   41.6025  -31.0250 C.3       1 GLC5        0.0000 
     28 CA        -59.3590   43.7430  -31.2630 C.3       3 GLL5        0.0000 
     29 CA        -58.3560   40.1885  -27.7440 C.3       1 GLC5        0.0000 
     30 CA        -56.4750   39.3380  -28.0800 C.3       3 GLL5        0.0000 
     31 CA        -60.2370   41.0390  -27.4080 C.3       2 GLP5        0.0000 
     32 CA        -57.4880   39.2790  -26.1215 C.3       1 GLC5        0.0000 
     33 CA        -58.5010   39.2200  -24.1630 C.3       2 GLP5        0.0000 
     34 CA        -57.9585   46.1265  -35.0840 C.3       1 GLC5        0.0000 
     35 CA        -59.7880   45.9040  -34.0900 C.3       3 GLL5        0.0000 
     36 CA        -60.5365   49.3925  -34.9745 C.3       1 GLC5        0.0000 
     37 CA        -61.3520   48.4210  -33.3680 C.3       3 GLL5        0.0000 
     38 CA        -59.7210   50.3640  -36.5810 C.3       2 GLP5        0.0000 
     39 CA        -63.1085   47.9345  -30.4160 C.3       1 GLC5        0.0000 
     40 CA        -62.5730   48.5330  -32.4590 C.3       3 GLL5        0.0000 
     41 CA        -63.6440   47.3360  -28.3730 C.3       2 GLP5        0.0000 
     42 CA        -66.0130   47.4630  -31.7315 C.3       1 GLC5        0.0000 
     43 CA        -64.9130   47.9610  -33.1090 C.3       3 GLL5        0.0000 
     44 CA        -67.1130   46.9650  -30.3540 C.3       2 GLP5        0.0000 
     45 CA        -65.9555   50.8980  -31.3905 C.3       1 GLC5        0.0000 
     46 CA        -64.3240   50.3230  -32.5510 C.3       3 GLL5        0.0000 
     47 CA        -67.5870   51.4730  -30.2300 C.3       2 GLP5        0.0000 
     48 CA        -54.5273   36.8607  -29.7960 C.3       1 GLC5        0.0000 
     49 CA        -54.8310   34.9210  -29.4550 C.3       2 GLP5        0.0000 
     50 CA        -52.9267   41.3208  -31.3048 C.3       1 GLC5        0.0000 
     51 CA        -53.6760   39.1120  -30.5630 C.3       3 GLL5        0.0000 
     52 CA        -52.5350   42.2440  -32.9760 C.3       2 GLP5        0.0000 
     53 CA        -54.6638   43.8213  -29.1575 C.3       1 GLC5        0.0000 
     54 CA        -56.9818   42.9073  -27.3045 C.3       1 GLC5        0.0000 
     55 CA        -56.2120   43.1860  -28.9430 C.3       3 GLL5        0.0000 
     56 CA        -57.9050   43.3330  -25.7180 C.3       2 GLP5        0.0000 
     57 CA        -55.0775   44.6490  -29.9118 C.3       1 GLC5        0.0000 
     58 CA        -56.6450   43.4570  -30.1870 C.3       3 GLL5        0.0000 
     59 CA        -54.5988   42.4185  -32.4680 C.3       1 GLC5        0.0000 
     60 CA        -56.1062   41.3520  -33.4120 C.3       1 GLC5        0.0000 
     61 CA        -56.6800   42.8340  -32.6890 C.3       3 GLL5        0.0000 
     62 CA        -55.5500   40.1110  -34.8640 C.3       2 GLP5        0.0000 
     63 CA        -57.5547   39.4578  -29.6253 C.3       1 GLC5        0.0000 
     64 CA        -55.4000   39.5690  -28.8470 C.3       3 GLL5        0.0000 
     65 CA        -57.2852   47.5122  -29.7088 C.3       1 GLC5        0.0000 
     66 CA        -57.8090   45.6670  -29.5390 C.3       3 GLL5        0.0000 
     67 CA        -56.2130   48.9730  -29.5040 C.3       2 GLP5        0.0000 
     68 CA        -58.4072   46.2428  -28.0673 C.3       1 GLC5        0.0000 
     69 CA        -58.4570   46.4340  -26.2210 C.3       2 GLP5        0.0000 
     70 CA        -54.9712   38.6115  -27.3478 C.3       1 GLC5        0.0000 
     71 CA        -54.2120   37.5650  -26.1020 C.3       2 GLP5        0.0000 
     72 CA        -59.3075   49.5742  -32.7630 C.3       1 GLC5        0.0000 
     73 CA        -60.1120   47.9600  -32.6120 C.3       3 GLL5        0.0000 
     74 CA        -57.8830   50.9580  -32.5360 C.3       2 GLP5        0.0000 
     75 CA        -61.6382   50.2520  -31.9743 C.3       1 GLC5        0.0000 
     76 CA        -61.3140   52.0270  -31.0350 C.3       2 GLP5        0.0000 
     77 CA        -62.6960   50.8510  -31.9505 C.3       1 GLC5        0.0000 
@<TRIPOS>BOND
@<TRIPOS>SUBSTRUCTURE
     1 GLC5        1 GROUP        1 X    GLC  0     ROOT GLC X 6
     2 GLP5        3 GROUP        1 Y    GLP  0     ROOT GLP Y 13
     3 GLL5        2 GROUP        1 Z    GLL  0     ROOT GLL Z 20
@<TRIPOS>SET

