#    Name: 3a51_VDY_5_ligand
#    Modification time : Mon Apr  7 18:56:44 2014

@<TRIPOS>MOLECULE
3a51_VDY_5_ligand
   71    73     1     0     0
SMALL
NO_CHARGES


@<TRIPOS>ATOM
      1 O1        -52.1770   39.1990  -28.6650 O.3       1 VDY6178     0.0000 
      2 O2        -63.5820   49.2810  -34.5750 O.3       1 VDY6178     0.0000 
      3 C1        -54.7710   38.4890  -29.7110 C.3       1 VDY6178     0.0000 
      4 C2        -53.6760   39.1120  -30.5630 C.3       1 VDY6178     0.0000 
      5 C3        -52.7460   39.9980  -29.7190 C.3       1 VDY6178     0.0000 
      6 C4        -53.4260   41.2400  -29.1260 C.3       1 VDY6178     0.0000 
      7 C5        -54.8860   40.9270  -28.9350 C.2       1 VDY6178     0.0000 
      8 C6        -55.9050   41.7770  -28.8390 C.2       1 VDY6178     0.0000 
      9 C7        -56.2120   43.1860  -28.9430 C.2       1 VDY6178     0.0000 
     10 C8        -56.6450   43.4570  -30.1870 C.2       1 VDY6178     0.0000 
     11 C9        -56.6450   42.3520  -31.2310 C.3       1 VDY6178     0.0000 
     12 C10       -55.4000   39.5690  -28.8470 C.2       1 VDY6178     0.0000 
     13 C11       -56.6800   42.8340  -32.6890 C.3       1 VDY6178     0.0000 
     14 C12       -57.5070   44.1030  -32.9520 C.3       1 VDY6178     0.0000 
     15 C13       -58.1900   44.6610  -31.6980 C.3       1 VDY6178     0.0000 
     16 C14       -57.1270   44.8170  -30.6120 C.3       1 VDY6178     0.0000 
     17 C15       -57.8090   45.6670  -29.5390 C.3       1 VDY6178     0.0000 
     18 C16       -58.9060   46.4360  -30.2880 C.3       1 VDY6178     0.0000 
     19 C17       -58.6930   46.1060  -31.7700 C.3       1 VDY6178     0.0000 
     20 C18       -59.3590   43.7430  -31.2630 C.3       1 VDY6178     0.0000 
     21 C19       -56.4750   39.3380  -28.0800 C.2       1 VDY6178     0.0000 
     22 C20       -59.8990   46.4460  -32.6550 C.3       1 VDY6178     0.0000 
     23 C21       -59.7880   45.9040  -34.0900 C.3       1 VDY6178     0.0000 
     24 C22       -60.1120   47.9600  -32.6120 C.3       1 VDY6178     0.0000 
     25 C23       -61.3520   48.4210  -33.3680 C.3       1 VDY6178     0.0000 
     26 C24       -62.5730   48.5330  -32.4590 C.3       1 VDY6178     0.0000 
     27 C25       -63.8320   49.0270  -33.1810 C.3       1 VDY6178     0.0000 
     28 C26       -64.9130   47.9610  -33.1090 C.3       1 VDY6178     0.0000 
     29 C27       -64.3240   50.3230  -32.5510 C.3       1 VDY6178     0.0000 
     30 H         -54.3431   37.7222  -29.0775 H         1 VDY6178     0.0000 
     31 H         -55.5259   38.0548  -30.3544 H         1 VDY6178     0.0000 
     32 H         -54.1268   39.7207  -31.3479 H         1 VDY6178     0.0000 
     33 H         -53.0844   38.3235  -31.0299 H         1 VDY6178     0.0000 
     34 H         -51.9388   40.3451  -30.3802 H         1 VDY6178     0.0000 
     35 H         -53.3088   42.0652  -29.8114 H         1 VDY6178     0.0000 
     36 H         -52.9677   41.4716  -28.1770 H         1 VDY6178     0.0000 
     37 H         -56.9176   41.2163  -28.5816 H         1 VDY6178     0.0000 
     38 H         -56.1046   43.7861  -28.2077 H         1 VDY6178     0.0000 
     39 H         -57.5167   41.6912  -31.0590 H         1 VDY6178     0.0000 
     40 H         -55.7453   41.7219  -31.0914 H         1 VDY6178     0.0000 
     41 H         -57.0756   42.0161  -33.3237 H         1 VDY6178     0.0000 
     42 H         -55.6403   43.0126  -33.0287 H         1 VDY6178     0.0000 
     43 H         -58.2738   43.8767  -33.7062 H         1 VDY6178     0.0000 
     44 H         -56.8479   44.8748  -33.3738 H         1 VDY6178     0.0000 
     45 H         -56.3228   45.3920  -31.0456 H         1 VDY6178     0.0000 
     46 H         -57.1109   46.3538  -29.1255 H         1 VDY6178     0.0000 
     47 H         -58.2521   45.0362  -28.8070 H         1 VDY6178     0.0000 
     48 H         -58.7801   47.4818  -30.1316 H         1 VDY6178     0.0000 
     49 H         -59.8630   46.0878  -29.9768 H         1 VDY6178     0.0000 
     50 H         -57.8219   46.7240  -32.0749 H         1 VDY6178     0.0000 
     51 H         -60.7852   45.9856  -32.1827 H         1 VDY6178     0.0000 
     52 H         -59.2262   48.4562  -33.0367 H         1 VDY6178     0.0000 
     53 H         -60.1916   48.2785  -31.5615 H         1 VDY6178     0.0000 
     54 H         -61.5684   47.7100  -34.1724 H         1 VDY6178     0.0000 
     55 H         -61.1539   49.3971  -33.8235 H         1 VDY6178     0.0000 
     56 H         -62.3442   49.2225  -31.6326 H         1 VDY6178     0.0000 
     57 H         -62.7821   47.5485  -32.0145 H         1 VDY6178     0.0000 
     58 H         -59.0451   42.8178  -31.0496 H         1 VDY6178     0.0000 
     59 H         -59.8209   44.0912  -30.4473 H         1 VDY6178     0.0000 
     60 H         -60.0520   43.6595  -31.9791 H         1 VDY6178     0.0000 
     61 H         -58.9870   46.2695  -34.5641 H         1 VDY6178     0.0000 
     62 H         -59.7083   44.9073  -34.1054 H         1 VDY6178     0.0000 
     63 H         -60.5883   46.1425  -34.6400 H         1 VDY6178     0.0000 
     64 H         -64.6279   47.1123  -33.5545 H         1 VDY6178     0.0000 
     65 H         -65.1464   47.7319  -32.1640 H         1 VDY6178     0.0000 
     66 H         -65.7572   48.2573  -33.5558 H         1 VDY6178     0.0000 
     67 H         -63.6487   51.0559  -32.6337 H         1 VDY6178     0.0000 
     68 H         -65.1652   50.6495  -32.9820 H         1 VDY6178     0.0000 
     69 H         -64.5181   50.2119  -31.5763 H         1 VDY6178     0.0000 
     70 H         -51.5996   39.7764  -28.0876 H         1 VDY6178     0.0000 
     71 H         -62.6205   49.5519  -34.6202 H         1 VDY6178     0.0000 
@<TRIPOS>BOND
     1    5    1 1    
     2   70    1 1    
     3   27    2 1    
     4   71    2 1    
     5    4    3 1    
     6   12    3 1    
     7   30    3 1    
     8   31    3 1    
     9    5    4 1    
    10   32    4 1    
    11   33    4 1    
    12    6    5 1    
    13   34    5 1    
    14    7    6 1    
    15   35    6 1    
    16   36    6 1    
    17    8    7 2    
    18   12    7 1    
    19    9    8 1    
    20   37    8 1    
    21   10    9 2    
    22   38    9 1    
    23   11   10 1    
    24   16   10 1    
    25   13   11 1    
    26   39   11 1    
    27   40   11 1    
    28   21   12 2    
    29   14   13 1    
    30   41   13 1    
    31   42   13 1    
    32   15   14 1    
    33   43   14 1    
    34   44   14 1    
    35   16   15 1    
    36   19   15 1    
    37   20   15 1    
    38   17   16 1    
    39   45   16 1    
    40   18   17 1    
    41   46   17 1    
    42   47   17 1    
    43   19   18 1    
    44   48   18 1    
    45   49   18 1    
    46   22   19 1    
    47   50   19 1    
    48   58   20 1    
    49   59   20 1    
    50   60   20 1    
    51   23   22 1    
    52   24   22 1    
    53   51   22 1    
    54   61   23 1    
    55   62   23 1    
    56   63   23 1    
    57   25   24 1    
    58   52   24 1    
    59   53   24 1    
    60   26   25 1    
    61   54   25 1    
    62   55   25 1    
    63   27   26 1    
    64   56   26 1    
    65   57   26 1    
    66   28   27 1    
    67   29   27 1    
    68   64   28 1    
    69   65   28 1    
    70   66   28 1    
    71   67   29 1    
    72   68   29 1    
    73   69   29 1    
@<TRIPOS>SUBSTRUCTURE
     1 VDY6178     1 GROUP   
@<TRIPOS>SET

