#    Name: 4i3b_BLA_6_INTS_M
#    Modification time : Tue Mar 25 02:14:06 2014

@<TRIPOS>MOLECULE
4i3b_BLA_6_INTS_M
  128     0     9     0     0
SMALL
NO_CHARGES


@<TRIPOS>ATOM
      1 CA         -7.9555   21.9725   46.0235 C.3       3 GLC5        0.0000 
      2 CA         -9.7150   22.9310   45.8500 C.3       9 GLL5        0.0000 
      3 CA         -6.1960   21.0140   46.1970 C.3       6 GLP5        0.0000 
      4 CA         -8.2025   22.2975   43.8875 C.3       3 GLC5        0.0000 
      5 CA         -9.9510   21.6880   45.0420 C.3       9 GLL5        0.0000 
      6 CA         -6.4540   22.9070   42.7330 C.3       6 GLP5        0.0000 
      7 CA         -8.6980   20.0135   43.7425 C.3       3 GLC5        0.0000 
      8 CA        -10.5110   20.4700   43.2510 C.3       9 GLL5        0.0000 
      9 CA         -6.8850   19.5570   44.2340 C.3       6 GLP5        0.0000 
     10 CA        -11.0935   16.2990   43.9695 C.3       3 GLC5        0.0000 
     11 CA        -10.8290   18.1730   44.3210 C.3       9 GLL5        0.0000 
     12 CA        -11.3580   14.4250   43.6180 C.3       6 GLP5        0.0000 
     13 CA         -8.0820   20.4470   46.5410 C.3       3 GLC5        0.0000 
     14 CA         -9.9680   19.8800   46.8850 C.3       9 GLL5        0.0000 
     15 CA         -8.9930   18.2075   47.2550 C.3       3 GLC5        0.0000 
     16 CA         -8.0180   16.5350   47.6250 C.3       6 GLP5        0.0000 
     17 N         -10.0110   18.9425   50.8570 N.am      1 SEC2        0.0000 
     18 N         -10.0080   19.4340   49.6460 N.am      7 SEL2        0.0000 
     19 N         -10.0140   18.4510   52.0680 N.am      4 SEP2        0.0000 
     20 N         -12.3675   17.9750   50.7265 N.am      1 SEC2        0.0000 
     21 N         -12.0500   18.5680   49.5110 N.am      7 SEL2        0.0000 
     22 N         -12.6850   17.3820   51.9420 N.am      4 SEP2        0.0000 
     23 CA         -9.1640   19.0875   42.9510 C.3       3 GLC5        0.0000 
     24 CA        -10.8530   19.9910   41.8710 C.3       9 GLL5        0.0000 
     25 CA         -7.4750   18.1840   44.0310 C.3       6 GLP5        0.0000 
     26 CA        -11.0785   17.2170   40.3065 C.3       3 GLC5        0.0000 
     27 CA        -11.5970   18.9430   39.1760 C.3       9 GLL5        0.0000 
     28 CA        -10.5600   15.4910   41.4370 C.3       6 GLP5        0.0000 
     29 CA        -11.8385   17.1805   38.4340 C.3       3 GLC5        0.0000 
     30 CA        -12.0800   15.4180   37.6920 C.3       6 GLP5        0.0000 
     31 CA        -13.1540   18.1580   39.8565 C.3       3 GLC5        0.0000 
     32 CA        -14.7110   17.3730   40.5370 C.3       6 GLP5        0.0000 
     33 CA         -9.4605   19.4140   37.7040 C.3       3 GLC5        0.0000 
     34 CA        -10.7300   20.9580   37.0540 C.3       9 GLL5        0.0000 
     35 CA         -8.1910   17.8700   38.3540 C.3       6 GLP5        0.0000 
     36 CA        -10.1165   23.0670   34.6730 C.3       3 GLC5        0.0000 
     37 CA        -10.2720   21.9180   36.1800 C.3       9 GLL5        0.0000 
     38 CA         -9.9610   24.2160   33.1660 C.3       6 GLP5        0.0000 
     39 CA         -9.1200   23.7445   36.3395 C.3       3 GLC5        0.0000 
     40 CA         -7.9680   25.5710   36.4990 C.3       6 GLP5        0.0000 
     41 CA        -13.0555   24.5055   52.6960 C.3       3 GLC5        0.0000 
     42 CA        -11.8110   22.6370   52.6150 C.3       9 GLL5        0.0000 
     43 CA        -14.3000   26.3740   52.7770 C.3       6 GLP5        0.0000 
     44 CA        -11.0845   21.8550   56.7710 C.3       3 GLC5        0.0000 
     45 CA        -10.7050   22.3490   54.8910 C.3       9 GLL5        0.0000 
     46 CA        -11.4640   21.3610   58.6510 C.3       6 GLP5        0.0000 
     47 CA         -9.5075   20.7800   54.9900 C.3       3 GLC5        0.0000 
     48 CA         -8.3100   19.2110   55.0890 C.3       6 GLP5        0.0000 
     49 CA        -10.8950   20.6715   53.8455 C.3       3 GLC5        0.0000 
     50 CA        -11.0850   18.9940   52.8000 C.3       6 GLP5        0.0000 
     51 N          -7.2790   22.7995   53.7515 N.am      1 SEC2        0.0000 
     52 N          -8.3280   22.7920   52.9210 N.am      7 SEL2        0.0000 
     53 N          -6.2300   22.8070   54.5820 N.am      4 SEP2        0.0000 
     54 CA        -14.4755   23.6495   52.1805 C.3       3 GLC5        0.0000 
     55 CA        -13.2410   22.4270   52.9790 C.3       9 GLL5        0.0000 
     56 CA        -15.7100   24.8720   51.3820 C.3       6 GLP5        0.0000 
     57 CA        -12.1630   20.7105   52.8895 C.3       3 GLC5        0.0000 
     58 CA        -14.0240   24.6305   53.4675 C.3       3 GLC5        0.0000 
     59 CA        -13.7480   22.8870   54.1580 C.3       9 GLL5        0.0000 
     60 CA        -15.6010   22.9980   55.0805 C.3       3 GLC5        0.0000 
     61 CA        -17.4540   23.1090   56.0030 C.3       6 GLP5        0.0000 
     62 CA        -13.6505   22.7525   56.0880 C.3       3 GLC5        0.0000 
     63 CA        -13.5530   22.6180   58.0180 C.3       6 GLP5        0.0000 
     64 CA        -12.6020   24.7480   49.6590 C.3       3 GLC5        0.0000 
     65 CA        -12.2670   22.9330   50.1800 C.3       9 GLL5        0.0000 
     66 CA        -12.9370   26.5630   49.1380 C.3       6 GLP5        0.0000 
     67 CA        -13.9885   23.9025   50.7810 C.3       3 GLC5        0.0000 
     68 N          -9.2580   22.9055   48.7230 N.am      1 SEC2        0.0000 
     69 N         -10.6940   22.9680   48.1620 N.am      7 SEL2        0.0000 
     70 N          -7.8220   22.8430   49.2840 N.am      4 SEP2        0.0000 
     71 N          -9.5850   24.2325   48.4645 N.am      1 SEC2        0.0000 
     72 N          -8.4760   25.4970   48.7670 N.am      4 SEP2        0.0000 
     73 CA        -13.6515   24.9360   48.5365 C.3       3 GLC5        0.0000 
     74 CA        -14.3660   23.3090   47.9350 C.3       9 GLL5        0.0000 
     75 CA        -16.4000   24.2665   48.0190 C.3       3 GLC5        0.0000 
     76 CA        -18.4340   25.2240   48.1030 C.3       6 GLP5        0.0000 
     77 CA        -15.0380   24.0905   49.6585 C.3       3 GLC5        0.0000 
     78 CA        -15.5970   23.1715   46.3640 C.3       3 GLC5        0.0000 
     79 CA        -16.8280   23.0340   44.7930 C.3       6 GLP5        0.0000 
     80 CA        -15.2920   24.9025   46.7875 C.3       3 GLC5        0.0000 
     81 CA        -16.2180   26.4960   45.6400 C.3       6 GLP5        0.0000 
     82 CA        -14.8525   23.1915   44.9775 C.3       3 GLC5        0.0000 
     83 CA        -12.8770   23.3490   45.1620 C.3       9 GLL5        0.0000 
     84 CA        -14.7710   24.1365   44.0480 C.3       3 GLC5        0.0000 
     85 CA        -12.8030   24.7550   44.5950 C.3       9 GLL5        0.0000 
     86 CA        -16.7390   23.5180   43.5010 C.3       6 GLP5        0.0000 
     87 CA        -12.8275   26.3620   43.0900 C.3       3 GLC5        0.0000 
     88 CA        -12.8520   27.9690   41.5850 C.3       6 GLP5        0.0000 
     89 CA        -14.5105   25.6255   45.1175 C.3       3 GLC5        0.0000 
     90 NZ        -10.4805   26.5810   45.6820 N.4       2 LYC4        0.0000 
     91 NZ        -10.8390   26.0680   44.3740 N.4       8 LYL4        0.0000 
     92 NZ        -10.0820   28.3470   47.3640 N.4       5 LYP4        0.0000 
     93 N         -10.4805   26.5810   45.6820 N.am      1 SEC2        0.0000 
     94 N         -10.8390   26.0680   44.3740 N.am      7 SEL2        0.0000 
     95 N         -10.1220   27.0940   46.9900 N.am      4 SEP2        0.0000 
     96 N          -9.5350   26.1505   44.1690 N.am      1 SEC2        0.0000 
     97 N          -8.2310   26.2330   43.9640 N.am      4 SEP2        0.0000 
     98 NZ        -12.1560   23.5670   42.3535 N.4       2 LYC4        0.0000 
     99 NZ        -11.1170   24.3740   42.9590 N.4       8 LYL4        0.0000 
    100 NZ        -13.4070   22.6820   40.4590 N.4       5 LYP4        0.0000 
    101 N         -12.1560   23.5670   42.3535 N.am      1 SEC2        0.0000 
    102 N         -11.1170   24.3740   42.9590 N.am      7 SEL2        0.0000 
    103 N         -13.1950   22.7600   41.7480 N.am      4 SEP2        0.0000 
    104 CA         -8.4695   20.2975   44.7470 C.3       3 GLC5        0.0000 
    105 CA         -9.0732   18.5445   44.1870 C.3       3 GLC5        0.0000 
    106 CA        -10.5140   19.6370   44.3650 C.3       9 GLL5        0.0000 
    107 CA         -8.9177   19.6515   40.8185 C.3       3 GLC5        0.0000 
    108 CA         -7.0940   18.9750   40.3510 C.3       6 GLP5        0.0000 
    109 CA        -11.8577   22.0245   39.1262 C.3       3 GLC5        0.0000 
    110 CA        -10.6300   20.6650   40.7010 C.3       9 GLL5        0.0000 
    111 CA        -12.9400   23.5910   38.1950 C.3       6 GLP5        0.0000 
    112 CA         -9.6795   18.8388   38.7138 C.3       3 GLC5        0.0000 
    113 CA        -10.5570   21.0930   38.5280 C.3       9 GLL5        0.0000 
    114 CA         -9.9300   20.0025   35.1505 C.3       3 GLC5        0.0000 
    115 CA         -9.3590   18.5670   33.6840 C.3       6 GLP5        0.0000 
    116 CA        -11.8635   20.7875   35.4995 C.3       3 GLC5        0.0000 
    117 CA        -13.2260   20.1370   34.3820 C.3       6 GLP5        0.0000 
    118 CA         -8.5249   21.7634   36.9468 C.3       3 GLC5        0.0000 
    119 CA         -6.5920   22.0550   36.9080 C.3       6 GLP5        0.0000 
    120 CA        -11.6989   22.5314   37.5902 C.3       3 GLC5        0.0000 
    121 CA         -9.1627   23.2428   55.1510 C.3       3 GLC5        0.0000 
    122 CA        -10.7920   22.5700   53.4030 C.3       9 GLL5        0.0000 
    123 CA         -7.5770   24.0260   56.1550 C.3       6 GLP5        0.0000 
    124 CA        -11.2296   20.8494   52.4720 C.3       3 GLC5        0.0000 
    125 CA        -10.8151   24.5276   53.9355 C.3       3 GLC5        0.0000 
    126 CA        -10.6270   26.5790   53.9210 C.3       6 GLP5        0.0000 
    127 CA        -14.9062   21.4200   53.5667 C.3       3 GLC5        0.0000 
    128 CA        -16.3180   20.1830   53.5650 C.3       6 GLP5        0.0000 
@<TRIPOS>BOND
@<TRIPOS>SUBSTRUCTURE
     1 SEC2       17 GROUP        1 X    SEC  0     ROOT SEC X 2
     2 LYC4       90 GROUP        1 X    LYC  0     **** LYC X 4
     3 GLC5        1 GROUP        1 X    GLC  0     **** GLC X 6
     4 SEP2       19 GROUP        1 Y    SEP  0     ROOT SEP Y 9
     5 LYP4       92 GROUP        1 Y    LYP  0     **** LYP Y 11
     6 GLP5        3 GROUP        1 Y    GLP  0     **** GLP Y 13
     7 SEL2       18 GROUP        1 Z    SEL  0     ROOT SEL Z 16
     8 LYL4       91 GROUP        1 Z    LYL  0     **** LYL Z 18
     9 GLL5        2 GROUP        1 Z    GLL  0     **** GLL Z 20
@<TRIPOS>SET

