#    Name: 4i3b_BLA_6_ligand
#    Modification time : Tue Mar 25 02:14:06 2014

@<TRIPOS>MOLECULE
4i3b_BLA_6_ligand
   71    74     1     0     0
SMALL
NO_CHARGES


@<TRIPOS>ATOM
      1 CHA        -9.7150   22.9310   45.8500 C.2       1 BLA201      0.0000 
      2 NA        -10.1770   21.7300   43.6920 N.pl3     1 BLA201      0.0000 
      3 C1A        -9.9510   21.6880   45.0420 C.2       1 BLA201      0.0000 
      4 C2A       -10.1570   20.3880   45.4780 C.2       1 BLA201      0.0000 
      5 C3A       -10.5140   19.6370   44.3650 C.2       1 BLA201      0.0000 
      6 C4A       -10.5110   20.4700   43.2510 C.2       1 BLA201      0.0000 
      7 CMA       -10.8290   18.1730   44.3210 C.3       1 BLA201      0.0000 
      8 CAA        -9.9680   19.8800   46.8850 C.3       1 BLA201      0.0000 
      9 CBA       -11.2630   19.7160   47.6180 C.3       1 BLA201      0.0000 
     10 CGA       -11.0850   19.2050   49.0050 C.2       1 BLA201      0.0000 
     11 O1A       -10.0080   19.4340   49.6460 O.co2     1 BLA201      0.0000 
     12 O2A       -12.0500   18.5680   49.5110 O.co2     1 BLA201      0.0000 
     13 CHB       -10.8530   19.9910   41.8710 C.2       1 BLA201      0.0000 
     14 NB        -10.0050   21.9450   40.5920 N.am      1 BLA201      0.0000 
     15 C1B       -10.6300   20.6650   40.7010 C.2       1 BLA201      0.0000 
     16 C2B       -10.9210   20.2510   39.4140 C.2       1 BLA201      0.0000 
     17 C3B       -10.5570   21.0930   38.5280 C.2       1 BLA201      0.0000 
     18 C4B        -9.9300   22.3590   39.1300 C.2       1 BLA201      0.0000 
     19 CMB       -11.5970   18.9430   39.1760 C.3       1 BLA201      0.0000 
     20 OB         -9.4930   23.4150   38.7550 O.2       1 BLA201      0.0000 
     21 CAB       -10.7300   20.9580   37.0540 C.2       1 BLA201      0.0000 
     22 CBB       -10.2720   21.9180   36.1800 C.2       1 BLA201      0.0000 
     23 NC        -10.0380   22.9220   51.2230 N.am      1 BLA201      0.0000 
     24 C1C        -9.5060   22.7600   52.6300 C.2       1 BLA201      0.0000 
     25 C2C       -10.7920   22.5700   53.4030 C.2       1 BLA201      0.0000 
     26 C3C       -11.8110   22.6370   52.6150 C.2       1 BLA201      0.0000 
     27 C4C       -11.4470   22.8060   51.2790 C.2       1 BLA201      0.0000 
     28 CMC       -10.7050   22.3490   54.8910 C.3       1 BLA201      0.0000 
     29 OC         -8.3280   22.7920   52.9210 O.2       1 BLA201      0.0000 
     30 CAC       -13.2410   22.4270   52.9790 C.2       1 BLA201      0.0000 
     31 CBC       -13.7480   22.8870   54.1580 C.2       1 BLA201      0.0000 
     32 CHD       -12.2670   22.9330   50.1800 C.2       1 BLA201      0.0000 
     33 ND        -10.6940   22.9680   48.1620 N.2       1 BLA201      0.0000 
     34 C1D       -11.8910   23.0350   48.7400 C.2       1 BLA201      0.0000 
     35 C2D       -12.9090   23.1880   47.6890 C.2       1 BLA201      0.0000 
     36 C3D       -12.2280   23.2000   46.5060 C.2       1 BLA201      0.0000 
     37 C4D       -10.8070   23.0660   46.7490 C.2       1 BLA201      0.0000 
     38 CMD       -14.3660   23.3090   47.9350 C.3       1 BLA201      0.0000 
     39 CAD       -12.8770   23.3490   45.1620 C.3       1 BLA201      0.0000 
     40 CBD       -12.8030   24.7550   44.5950 C.3       1 BLA201      0.0000 
     41 CGD       -11.5080   25.0970   43.9190 C.2       1 BLA201      0.0000 
     42 O1D       -10.8390   26.0680   44.3740 O.co2     1 BLA201      0.0000 
     43 O2D       -11.1170   24.3740   42.9590 O.co2     1 BLA201      0.0000 
     44 H          -8.9845   23.4735   45.7472 H         1 BLA201      0.0000 
     45 H         -10.1135   22.5127   43.1376 H         1 BLA201      0.0000 
     46 H          -9.3200   20.5808   47.4363 H         1 BLA201      0.0000 
     47 H          -9.4405   18.9128   46.8503 H         1 BLA201      0.0000 
     48 H         -11.9146   19.0251   47.0519 H         1 BLA201      0.0000 
     49 H         -11.7876   20.6888   47.6486 H         1 BLA201      0.0000 
     50 H         -11.3095   19.0329   41.8533 H         1 BLA201      0.0000 
     51 H          -9.6786   22.4806   41.2751 H         1 BLA201      0.0000 
     52 H         -11.2097   20.1089   36.7293 H         1 BLA201      0.0000 
     53 H          -9.4959   23.0681   50.4973 H         1 BLA201      0.0000 
     54 H         -13.8114   21.9193   52.2914 H         1 BLA201      0.0000 
     55 H         -13.3343   22.9672   50.3397 H         1 BLA201      0.0000 
     56 H         -13.9400   23.0502   45.2319 H         1 BLA201      0.0000 
     57 H         -12.4027   22.6521   44.4454 H         1 BLA201      0.0000 
     58 H         -12.9896   25.4784   45.4170 H         1 BLA201      0.0000 
     59 H         -13.6388   24.8912   43.8763 H         1 BLA201      0.0000 
     60 H         -10.0573   17.6176   44.6308 H         1 BLA201      0.0000 
     61 H         -11.6083   17.9431   44.9039 H         1 BLA201      0.0000 
     62 H         -11.0556   17.8695   43.3955 H         1 BLA201      0.0000 
     63 H         -11.7488   18.7752   38.2019 H         1 BLA201      0.0000 
     64 H         -11.0570   18.1770   39.5247 H         1 BLA201      0.0000 
     65 H         -12.4902   18.8997   39.6235 H         1 BLA201      0.0000 
     66 H         -10.1756   21.5306   55.1146 H         1 BLA201      0.0000 
     67 H         -10.2661   23.1181   55.3557 H         1 BLA201      0.0000 
     68 H         -11.6090   22.2349   55.3030 H         1 BLA201      0.0000 
     69 H         -14.7310   22.5062   48.4064 H         1 BLA201      0.0000 
     70 H         -14.5823   24.1047   48.5008 H         1 BLA201      0.0000 
     71 H         -14.8797   23.4071   47.0826 H         1 BLA201      0.0000 
@<TRIPOS>BOND
     1    3    1 1    
     2   37    1 2    
     3   44    1 1    
     4    3    2 1    
     5    6    2 1    
     6   45    2 1    
     7    4    3 2    
     8    5    4 1    
     9    8    4 1    
    10    6    5 2    
    11    7    5 1    
    12   13    6 1    
    13   60    7 1    
    14   61    7 1    
    15   62    7 1    
    16    9    8 1    
    17   46    8 1    
    18   47    8 1    
    19   10    9 1    
    20   48    9 1    
    21   49    9 1    
    22   11   10 ar   
    23   12   10 ar   
    24   15   13 2    
    25   50   13 1    
    26   15   14 1    
    27   18   14 am   
    28   51   14 1    
    29   16   15 1    
    30   17   16 2    
    31   19   16 1    
    32   18   17 1    
    33   21   17 1    
    34   20   18 2    
    35   63   19 1    
    36   64   19 1    
    37   65   19 1    
    38   22   21 2    
    39   52   21 1    
    40   24   23 am   
    41   27   23 1    
    42   53   23 1    
    43   25   24 1    
    44   29   24 2    
    45   26   25 2    
    46   28   25 1    
    47   27   26 1    
    48   30   26 1    
    49   32   27 2    
    50   66   28 1    
    51   67   28 1    
    52   68   28 1    
    53   31   30 2    
    54   54   30 1    
    55   34   32 1    
    56   55   32 1    
    57   34   33 2    
    58   37   33 1    
    59   35   34 1    
    60   36   35 2    
    61   38   35 1    
    62   37   36 1    
    63   39   36 1    
    64   69   38 1    
    65   70   38 1    
    66   71   38 1    
    67   40   39 1    
    68   56   39 1    
    69   57   39 1    
    70   41   40 1    
    71   58   40 1    
    72   59   40 1    
    73   42   41 ar   
    74   43   41 ar   
@<TRIPOS>SUBSTRUCTURE
     1 BLA201      1 GROUP   
@<TRIPOS>SET

