#    Name: 3wha_WHA_2_INTS_M
#    Modification time : Tue Mar 25 02:34:46 2014

@<TRIPOS>MOLECULE
3wha_WHA_2_INTS_M
   53     0     6     0     0
SMALL
NO_CHARGES


@<TRIPOS>ATOM
      1 CA         10.7565   22.3605  -37.9190 C.3       2 GLC5        0.0000 
      2 CA         12.3240   21.0390  -37.2310 C.3       6 GLL5        0.0000 
      3 CA          9.1890   23.6820  -38.6070 C.3       4 GLP5        0.0000 
      4 CA         11.4425   19.4650  -36.8880 C.3       2 GLC5        0.0000 
      5 CA         10.5610   17.8910  -36.5450 C.3       4 GLP5        0.0000 
      6 CA         12.8250   19.9855  -38.7260 C.3       2 GLC5        0.0000 
      7 CA         13.3260   18.9320  -40.2210 C.3       4 GLP5        0.0000 
      8 CA          8.0535   20.2740  -35.6510 C.3       2 GLC5        0.0000 
      9 CA          7.9720   21.9310  -34.6750 C.3       6 GLL5        0.0000 
     10 CA          8.1350   18.6170  -36.6270 C.3       4 GLP5        0.0000 
     11 CA          6.2380   22.8490  -35.1610 C.3       2 GLC5        0.0000 
     12 CA          4.5040   23.7670  -35.6470 C.3       4 GLP5        0.0000 
     13 CA          6.4165   22.6845  -33.3505 C.3       2 GLC5        0.0000 
     14 CA          4.8610   23.4380  -32.0260 C.3       4 GLP5        0.0000 
     15 CA          6.2105   20.7245  -34.1945 C.3       2 GLC5        0.0000 
     16 CA          4.4490   19.5180  -33.7140 C.3       4 GLP5        0.0000 
     17 CA         10.1780   20.4190  -31.4065 C.3       2 GLC5        0.0000 
     18 CA          9.8190   22.4060  -32.2940 C.3       6 GLL5        0.0000 
     19 CA         10.5370   18.4320  -30.5190 C.3       4 GLP5        0.0000 
     20 CA          8.8140   24.0410  -33.0010 C.3       2 GLC5        0.0000 
     21 CA          7.8090   25.6760  -33.7080 C.3       4 GLP5        0.0000 
     22 CA          9.4165   20.1990  -30.5555 C.3       2 GLC5        0.0000 
     23 CA          8.2960   21.9660  -30.5920 C.3       6 GLL5        0.0000 
     24 CA          8.9185   22.6835  -28.6490 C.3       2 GLC5        0.0000 
     25 CA          9.5410   23.4010  -26.7060 C.3       4 GLP5        0.0000 
     26 CA          6.5785   22.7020  -31.3090 C.3       2 GLC5        0.0000 
     27 O           6.4975   21.2175  -28.9350 O.2       1 ALC1        0.0000 
     28 O           7.4020   21.1590  -30.0510 O.2       5 ALL1        0.0000 
     29 O           5.5930   21.2760  -27.8190 O.2       3 ALP1        0.0000 
     30 CA          8.6160   24.8210  -32.1635 C.3       2 GLC5        0.0000 
     31 CA          9.4230   23.9660  -30.6190 C.3       6 GLL5        0.0000 
     32 CA          8.2525   26.8600  -29.4335 C.3       2 GLC5        0.0000 
     33 CA          9.6900   25.4990  -29.8880 C.3       6 GLL5        0.0000 
     34 CA          6.8150   28.2210  -28.9790 C.3       4 GLP5        0.0000 
     35 CA         11.6885   24.5435  -27.2280 C.3       2 GLC5        0.0000 
     36 CA         12.6880   25.6860  -28.7490 C.3       6 GLL5        0.0000 
     37 CA         10.6890   23.4010  -25.7070 C.3       4 GLP5        0.0000 
     38 CA         11.6285   26.6415  -27.7285 C.3       2 GLC5        0.0000 
     39 CA         10.5690   27.5970  -26.7080 C.3       4 GLP5        0.0000 
     40 CA         10.2450   22.9432  -36.6407 C.3       2 GLC5        0.0000 
     41 CA         11.6830   21.3620  -35.9990 C.3       6 GLL5        0.0000 
     42 CA          9.4930   24.5000  -37.3490 C.3       4 GLP5        0.0000 
     43 CA          8.3213   23.7598  -34.1857 C.3       2 GLC5        0.0000 
     44 CA          9.6950   21.7560  -34.6520 C.3       6 GLL5        0.0000 
     45 CA          9.1633   23.1717  -36.0063 C.3       2 GLC5        0.0000 
     46 CA         10.4535   19.7311  -35.9186 C.3       2 GLC5        0.0000 
     47 CA         15.3955   23.2236  -35.6204 C.3       2 GLC5        0.0000 
     48 CA         14.4410   21.2250  -36.2600 C.3       6 GLL5        0.0000 
     49 CA         16.4230   24.9810  -35.8920 C.3       4 GLP5        0.0000 
     50 CA          9.5488   24.0667  -28.4798 C.3       2 GLC5        0.0000 
     51 CA         10.5085   26.6983  -28.5072 C.3       2 GLC5        0.0000 
     52 CA          9.8625   26.8873  -31.6242 C.3       2 GLC5        0.0000 
     53 CA          9.2770   27.9750  -32.9420 C.3       4 GLP5        0.0000 
@<TRIPOS>BOND
@<TRIPOS>SUBSTRUCTURE
     1 ALC1       27 GROUP        1 X    ALC  0     ROOT ALC X 1
     2 GLC5        1 GROUP        1 X    GLC  0     **** GLC X 6
     3 ALP1       29 GROUP        1 Y    ALP  0     ROOT ALP Y 8
     4 GLP5        3 GROUP        1 Y    GLP  0     **** GLP Y 13
     5 ALL1       28 GROUP        1 Z    ALL  0     ROOT ALL Z 15
     6 GLL5        2 GROUP        1 Z    GLL  0     **** GLL Z 20
@<TRIPOS>SET

