#    Name: 3wha_WHA_2_ligand
#    Modification time : Tue Mar 25 02:34:46 2014

@<TRIPOS>MOLECULE
3wha_WHA_2_ligand
   46    49     1     0     0
SMALL
NO_CHARGES


@<TRIPOS>ATOM
      1 C4         13.8890   21.5870  -34.9920 C.ar      1 WHA301      0.0000 
      2 C14        10.4660   22.0430  -33.5110 C.ar      1 WHA301      0.0000 
      3 C5         14.7010   21.8280  -33.8830 C.ar      1 WHA301      0.0000 
      4 C6         14.1010   22.1320  -32.6450 C.ar      1 WHA301      0.0000 
      5 C11        10.3110   21.4110  -35.8660 C.ar      1 WHA301      0.0000 
      6 C7         12.7110   22.2190  -32.5310 C.ar      1 WHA301      0.0000 
      7 C8         11.8800   21.9590  -33.6320 C.ar      1 WHA301      0.0000 
      8 C9         12.4870   21.6510  -34.8810 C.ar      1 WHA301      0.0000 
      9 C10        11.6830   21.3620  -35.9990 C.ar      1 WHA301      0.0000 
     10 C12         9.6950   21.7560  -34.6520 C.ar      1 WHA301      0.0000 
     11 C3         14.4410   21.2250  -36.2600 C.3       1 WHA301      0.0000 
     12 C1         12.3240   21.0390  -37.2310 C.3       1 WHA301      0.0000 
     13 O2         13.6140   20.3740  -37.0590 O.3       1 WHA301      0.0000 
     14 CL1         7.9720   21.9310  -34.6750 Cl        1 WHA301      0.0000 
     15 C15         9.8190   22.4060  -32.2940 C.ar      1 WHA301      0.0000 
     16 N16        10.0640   23.6130  -31.7460 N.ar      1 WHA301      0.0000 
     17 N17         8.9300   21.5550  -31.7000 N.ar      1 WHA301      0.0000 
     18 C18         8.2960   21.9660  -30.5920 C.ar      1 WHA301      0.0000 
     19 N19         7.4020   21.1590  -30.0510 N.pl3     1 WHA301      0.0000 
     20 N22         8.5240   23.1640  -30.0460 N.ar      1 WHA301      0.0000 
     21 C23         9.4230   23.9660  -30.6190 C.ar      1 WHA301      0.0000 
     22 S24         9.6900   25.4990  -29.8880 S.3       1 WHA301      0.0000 
     23 C25        11.2060   26.1000  -30.7250 C.3       1 WHA301      0.0000 
     24 C26        12.4400   25.3690  -30.2210 C.3       1 WHA301      0.0000 
     25 C27        12.6880   25.6860  -28.7490 C.3       1 WHA301      0.0000 
     26 C28        13.9440   25.0480  -28.1990 C.2       1 WHA301      0.0000 
     27 O29        14.9270   25.7570  -27.9450 O.2       1 WHA301      0.0000 
     28 N30        13.8710   23.7370  -27.9660 N.am      1 WHA301      0.0000 
     29 H          15.7159   21.7861  -33.9613 H         1 WHA301      0.0000 
     30 H          14.6955   22.2904  -31.8212 H         1 WHA301      0.0000 
     31 H           9.7052   21.1876  -36.6829 H         1 WHA301      0.0000 
     32 H          12.2873   22.4775  -31.6270 H         1 WHA301      0.0000 
     33 H          15.4457   20.7348  -36.1063 H         1 WHA301      0.0000 
     34 H          14.6904   22.1591  -36.8417 H         1 WHA301      0.0000 
     35 H          12.4723   21.9626  -37.8447 H         1 WHA301      0.0000 
     36 H          11.6613   20.3871  -37.8536 H         1 WHA301      0.0000 
     37 H           7.2675   20.2806  -30.5096 H         1 WHA301      0.0000 
     38 H           6.9406   21.4995  -29.2318 H         1 WHA301      0.0000 
     39 H          11.1887   27.1397  -30.4880 H         1 WHA301      0.0000 
     40 H          10.9780   25.9138  -31.7500 H         1 WHA301      0.0000 
     41 H          13.3065   25.6760  -30.8044 H         1 WHA301      0.0000 
     42 H          12.2982   24.2958  -30.3373 H         1 WHA301      0.0000 
     43 H          11.8195   25.3461  -28.1619 H         1 WHA301      0.0000 
     44 H          12.7515   26.7795  -28.6276 H         1 WHA301      0.0000 
     45 H          12.9871   23.3063  -28.1482 H         1 WHA301      0.0000 
     46 H          14.7067   23.3026  -27.6301 H         1 WHA301      0.0000 
@<TRIPOS>BOND
     1    3    1 ar   
     2    8    1 ar   
     3   11    1 1    
     4    7    2 ar   
     5   10    2 ar   
     6   15    2 1    
     7    4    3 ar   
     8   29    3 1    
     9    6    4 ar   
    10   30    4 1    
    11    9    5 ar   
    12   10    5 ar   
    13   31    5 1    
    14    7    6 ar   
    15   32    6 1    
    16    8    7 ar   
    17    9    8 ar   
    18   12    9 1    
    19   14   10 1    
    20   13   11 1    
    21   33   11 1    
    22   34   11 1    
    23   13   12 1    
    24   35   12 1    
    25   36   12 1    
    26   16   15 ar   
    27   17   15 ar   
    28   21   16 ar   
    29   18   17 ar   
    30   19   18 1    
    31   20   18 ar   
    32   37   19 1    
    33   38   19 1    
    34   21   20 ar   
    35   22   21 1    
    36   23   22 1    
    37   24   23 1    
    38   39   23 1    
    39   40   23 1    
    40   25   24 1    
    41   41   24 1    
    42   42   24 1    
    43   26   25 1    
    44   43   25 1    
    45   44   25 1    
    46   27   26 2    
    47   28   26 am   
    48   45   28 1    
    49   46   28 1    
@<TRIPOS>SUBSTRUCTURE
     1 WHA301      1 GROUP   
@<TRIPOS>SET

