#    Name: 1TPY_1_CAVITY_N1_6.mol2
#    Modification time : Tue Mar 11 12:07:40 2014

@<TRIPOS>MOLECULE
1TPY_1_CAVITY_N1_6.mol2
   15     0     4     0     0
SMALL
NO_CHARGES


@<TRIPOS>ATOM
      1 OG         41.9929   25.6879   51.1545 O.2       1 SER1        0.0000 
      2 N          41.0327   26.0801   52.2381 N.2       2 ALA2        0.0000 
      3 N          39.8803   25.7412   51.3397 N.2       2 ALA2        0.0000 
      4 CZ         45.2678   24.5660   52.3859 C.ar      4 PHE5        0.0000 
      5 N          45.0755   23.8349   50.4039 N.2       2 ALA2        0.0000 
      6 OG         44.1154   24.2271   51.4875 O.2       1 SER1        0.0000 
      7 CZ         43.1552   24.6193   52.5712 C.ar      4 PHE5        0.0000 
      8 N          43.9231   23.4959   49.5055 N.2       2 ALA2        0.0000 
      9 N          42.9630   23.8881   50.5891 N.2       2 ALA2        0.0000 
     10 CZ         42.0028   24.2803   51.6728 C.ar      4 PHE5        0.0000 
     11 N          40.8505   23.9414   50.7744 N.2       2 ALA2        0.0000 
     12 N          45.0855   22.4273   50.9221 N.2       2 ALA2        0.0000 
     13 OG         44.1254   22.8195   52.0058 O.2       1 SER1        0.0000 
     14 OG         42.9730   22.4805   51.1074 O.2       1 SER1        0.0000 
     15 NZ         41.8206   22.1416   50.2090 N.2       3 LYS4        0.0000 
@<TRIPOS>BOND
@<TRIPOS>SUBSTRUCTURE
     1 SER1        1 GROUP   
     2 ALA2        2 GROUP   
     3 LYS4       15 GROUP   
     4 PHE5        4 GROUP   
@<TRIPOS>SET

