#    Name: 1tpy_SAH_1_INTS_M
#    Modification time : Tue Mar 25 05:34:33 2014

@<TRIPOS>MOLECULE
1tpy_SAH_1_INTS_M
   74     0     9     0     0
SMALL
NO_CHARGES


@<TRIPOS>ATOM
      1 O          44.2780   24.6745   42.7365 O.2       1 ALC1        0.0000 
      2 O          44.6890   23.4950   43.1210 O.2       7 ALL1        0.0000 
      3 O          43.8670   25.8540   42.3520 O.2       4 ALP1        0.0000 
      4 O          43.6140   23.0215   43.8580 O.2       1 ALC1        0.0000 
      5 O          42.5390   22.5480   44.5950 O.2       4 ALP1        0.0000 
      6 CA         45.4675   27.0010   48.3880 C.3       3 GLC5        0.0000 
      7 CA         44.8840   25.9950   47.1910 C.3       9 GLL5        0.0000 
      8 CA         46.0510   28.0070   49.5850 C.3       6 GLP5        0.0000 
      9 N          45.8315   20.3760   45.3115 N.am      2 SEC2        0.0000 
     10 N          45.7000   21.4220   44.4430 N.am      8 SEL2        0.0000 
     11 N          45.9630   19.3300   46.1800 N.am      5 SEP2        0.0000 
     12 N          48.4040   22.0485   46.0105 N.am      2 SEC2        0.0000 
     13 N          47.6260   22.3660   44.8900 N.am      8 SEL2        0.0000 
     14 N          49.1820   21.7310   47.1310 N.am      5 SEP2        0.0000 
     15 CA         44.0370   27.6135   48.3250 C.3       3 GLC5        0.0000 
     16 CA         43.3340   26.8610   46.8270 C.3       9 GLL5        0.0000 
     17 CA         44.7400   28.3660   49.8230 C.3       6 GLP5        0.0000 
     18 CA         41.4690   26.2290   46.2295 C.3       3 GLC5        0.0000 
     19 CA         39.6040   25.5970   45.6320 C.3       6 GLP5        0.0000 
     20 CA         41.8690   27.5190   48.0800 C.3       3 GLC5        0.0000 
     21 CA         40.4040   28.1770   49.3330 C.3       6 GLP5        0.0000 
     22 CA         41.6075   26.8035   44.8255 C.3       3 GLC5        0.0000 
     23 CA         43.4200   27.5800   45.4720 C.3       9 GLL5        0.0000 
     24 CA         39.7950   26.0270   44.1790 C.3       6 GLP5        0.0000 
     25 N          45.8915   27.9945   43.2815 N.am      2 SEC2        0.0000 
     26 N          45.0980   28.8860   44.3270 N.am      8 SEL2        0.0000 
     27 N          46.6850   27.1030   42.2360 N.am      5 SEP2        0.0000 
     28 O          46.2415   29.5275   44.4530 O.2       1 ALC1        0.0000 
     29 O          45.0980   28.8860   44.3270 O.2       7 ALL1        0.0000 
     30 O          47.3850   30.1690   44.5790 O.2       4 ALP1        0.0000 
     31 CA         42.9230   31.2175   46.7700 C.3       3 GLC5        0.0000 
     32 CA         43.2660   29.9540   45.5260 C.3       9 GLL5        0.0000 
     33 CA         42.5800   32.4810   48.0140 C.3       6 GLP5        0.0000 
     34 N          43.7255   32.3575   44.0625 N.am      2 SEC2        0.0000 
     35 N          43.8260   31.1900   45.0490 N.am      8 SEL2        0.0000 
     36 N          43.6250   33.5250   43.0760 N.am      5 SEP2        0.0000 
     37 O          44.8410   31.3995   43.9765 O.2       1 ALC1        0.0000 
     38 O          43.8260   31.1900   45.0490 O.2       7 ALL1        0.0000 
     39 O          45.8560   31.6090   42.9040 O.2       4 ALP1        0.0000 
     40 CA         42.2935   28.5140   43.2020 C.3       3 GLC5        0.0000 
     41 CA         42.2000   29.3850   44.6480 C.3       9 GLL5        0.0000 
     42 CA         42.3870   27.6430   41.7560 C.3       6 GLP5        0.0000 
     43 CA         40.9975   27.7060   44.4135 C.3       3 GLC5        0.0000 
     44 CA         38.2475   32.9220   41.7490 C.3       3 GLC5        0.0000 
     45 CA         38.0510   31.6430   43.3260 C.3       9 GLL5        0.0000 
     46 CA         38.4440   34.2010   40.1720 C.3       6 GLP5        0.0000 
     47 O          36.0975   32.8165   42.5760 O.2       1 ALC1        0.0000 
     48 O          36.8830   32.1680   43.6870 O.2       7 ALL1        0.0000 
     49 O          35.3120   33.4650   41.4650 O.2       4 ALP1        0.0000 
     50 N          37.7120   32.0805   40.6085 N.am      2 SEC2        0.0000 
     51 N          38.4150   31.6610   42.0000 N.am      8 SEL2        0.0000 
     52 N          37.0090   32.5000   39.2170 N.am      5 SEP2        0.0000 
     53 CA         38.8670   29.5565   40.6435 C.3       3 GLC5        0.0000 
     54 CA         39.6020   31.1300   41.6230 C.3       9 GLL5        0.0000 
     55 CA         38.1320   27.9830   39.6640 C.3       6 GLP5        0.0000 
     56 CA         40.9945   29.3865   41.6895 C.3       3 GLC5        0.0000 
     57 CA         40.5455   31.0975   39.6320 C.3       3 GLC5        0.0000 
     58 CA         41.4890   31.0650   37.6410 C.3       6 GLP5        0.0000 
     59 CA         40.2700   32.6795   42.8645 C.3       3 GLC5        0.0000 
     60 CA         40.9380   34.2290   44.1060 C.3       6 GLP5        0.0000 
     61 CA         39.0230   32.6655   40.8975 C.3       3 GLC5        0.0000 
     62 CA         41.2580   29.0990   42.7420 C.3       3 GLC5        0.0000 
     63 CA         40.1290   30.5550   43.7280 C.3       9 GLL5        0.0000 
     64 CA         40.5335   32.3920   43.9170 C.3       3 GLC5        0.0000 
     65 CA         46.8443   25.6618   43.7705 C.3       3 GLC5        0.0000 
     66 CA         45.8920   24.8030   44.8730 C.3       9 GLL5        0.0000 
     67 CA         47.7550   27.0730   43.2100 C.3       6 GLP5        0.0000 
     68 CA         43.1178   27.9275   43.6230 C.3       3 GLC5        0.0000 
     69 CA         44.0553   29.5435   47.6100 C.3       3 GLC5        0.0000 
     70 CA         44.2770   28.8440   45.5080 C.3       9 GLL5        0.0000 
     71 CA         44.3390   29.6880   49.7030 C.3       6 GLP5        0.0000 
     72 CA         39.1825   32.8177   44.4895 C.3       3 GLC5        0.0000 
     73 CA         38.9510   31.0580   44.2580 C.3       9 GLL5        0.0000 
     74 CA         39.8640   34.2850   45.1870 C.3       6 GLP5        0.0000 
@<TRIPOS>BOND
@<TRIPOS>SUBSTRUCTURE
     1 ALC1        1 GROUP        1 X    ALC  0     ROOT ALC X 1
     2 SEC2        9 GROUP        1 X    SEC  0     **** SEC X 2
     3 GLC5        6 GROUP        1 X    GLC  0     **** GLC X 6
     4 ALP1        3 GROUP        1 Y    ALP  0     ROOT ALP Y 8
     5 SEP2       11 GROUP        1 Y    SEP  0     **** SEP Y 9
     6 GLP5        8 GROUP        1 Y    GLP  0     **** GLP Y 13
     7 ALL1        2 GROUP        1 Z    ALL  0     ROOT ALL Z 15
     8 SEL2       10 GROUP        1 Z    SEL  0     **** SEL Z 16
     9 GLL5        7 GROUP        1 Z    GLL  0     **** GLL Z 20
@<TRIPOS>SET

