#    Name: 1tpy_SAH_1_ligand
#    Modification time : Tue Mar 25 05:34:33 2014

@<TRIPOS>MOLECULE
1tpy_SAH_1_ligand
   46    48     1     0     0
SMALL
NO_CHARGES


@<TRIPOS>ATOM
      1 N          44.6890   23.4950   43.1210 N.4       1 SAH1900     0.0000 
      2 CA         45.9750   23.6980   43.7890 C.3       1 SAH1900     0.0000 
      3 CB         45.8920   24.8030   44.8730 C.3       1 SAH1900     0.0000 
      4 CG         44.8580   24.6390   45.9870 C.3       1 SAH1900     0.0000 
      5 SD         44.8840   25.9950   47.1910 S.3       1 SAH1900     0.0000 
      6 C          46.4740   22.3960   44.4170 C.2       1 SAH1900     0.0000 
      7 O          45.7000   21.4220   44.4430 O.co2     1 SAH1900     0.0000 
      8 OXT        47.6260   22.3660   44.8900 O.co2     1 SAH1900     0.0000 
      9 C5'        43.3340   26.8610   46.8270 C.3       1 SAH1900     0.0000 
     10 C4'        43.4200   27.5800   45.4720 C.3       1 SAH1900     0.0000 
     11 O4'        42.1260   27.9870   44.9660 O.3       1 SAH1900     0.0000 
     12 C3'        44.2770   28.8440   45.5080 C.3       1 SAH1900     0.0000 
     13 O3'        45.0980   28.8860   44.3270 O.3       1 SAH1900     0.0000 
     14 C2'        43.2660   29.9540   45.5260 C.3       1 SAH1900     0.0000 
     15 O2'        43.8260   31.1900   45.0490 O.3       1 SAH1900     0.0000 
     16 C1'        42.2000   29.3850   44.6480 C.3       1 SAH1900     0.0000 
     17 N9         40.8360   30.0470   44.7820 N.pl3     1 SAH1900     0.0000 
     18 C8         40.0470   30.2750   45.8640 C.2       1 SAH1900     0.0000 
     19 N7         38.9170   30.8670   45.6430 N.2       1 SAH1900     0.0000 
     20 C5         38.9510   31.0580   44.2580 C.ar      1 SAH1900     0.0000 
     21 C6         38.0510   31.6430   43.3260 C.ar      1 SAH1900     0.0000 
     22 N6         36.8830   32.1680   43.6870 N.pl3     1 SAH1900     0.0000 
     23 N1         38.4150   31.6610   42.0000 N.ar      1 SAH1900     0.0000 
     24 C2         39.6020   31.1300   41.6230 C.ar      1 SAH1900     0.0000 
     25 N3         40.5290   30.5560   42.4060 N.ar      1 SAH1900     0.0000 
     26 C4         40.1290   30.5550   43.7280 C.ar      1 SAH1900     0.0000 
     27 H          46.7268   24.0191   43.0625 H         1 SAH1900     0.0000 
     28 H          45.7118   25.7784   44.3566 H         1 SAH1900     0.0000 
     29 H          46.9047   24.9075   45.3356 H         1 SAH1900     0.0000 
     30 H          45.0303   23.7781   46.6072 H         1 SAH1900     0.0000 
     31 H          43.8426   24.6639   45.6352 H         1 SAH1900     0.0000 
     32 H          43.2398   27.5239   47.6523 H         1 SAH1900     0.0000 
     33 H          42.6198   26.0742   46.8437 H         1 SAH1900     0.0000 
     34 H          43.8886   26.8998   44.7500 H         1 SAH1900     0.0000 
     35 H          44.8259   28.8451   46.4057 H         1 SAH1900     0.0000 
     36 H          42.8804   30.0210   46.5238 H         1 SAH1900     0.0000 
     37 H          42.5315   29.4889   43.6055 H         1 SAH1900     0.0000 
     38 H          40.3594   29.9806   46.7975 H         1 SAH1900     0.0000 
     39 H          36.3459   32.5902   42.9568 H         1 SAH1900     0.0000 
     40 H          36.6476   32.0930   44.6560 H         1 SAH1900     0.0000 
     41 H          39.8285   31.1763   40.5524 H         1 SAH1900     0.0000 
     42 H          44.8055   23.1885   42.1763 H         1 SAH1900     0.0000 
     43 H          44.1334   22.8059   43.5863 H         1 SAH1900     0.0000 
     44 H          44.1488   24.3360   43.0917 H         1 SAH1900     0.0000 
     45 H          46.0362   28.9542   44.6664 H         1 SAH1900     0.0000 
     46 H          44.4592   30.9237   44.3223 H         1 SAH1900     0.0000 
@<TRIPOS>BOND
     1    2    1 1    
     2   42    1 1    
     3   43    1 1    
     4   44    1 1    
     5    3    2 1    
     6    6    2 1    
     7   27    2 1    
     8    4    3 1    
     9   28    3 1    
    10   29    3 1    
    11    5    4 1    
    12   30    4 1    
    13   31    4 1    
    14    9    5 1    
    15    7    6 ar   
    16    8    6 ar   
    17   10    9 1    
    18   32    9 1    
    19   33    9 1    
    20   11   10 1    
    21   12   10 1    
    22   34   10 1    
    23   16   11 1    
    24   13   12 1    
    25   14   12 1    
    26   35   12 1    
    27   45   13 1    
    28   15   14 1    
    29   16   14 1    
    30   36   14 1    
    31   46   15 1    
    32   17   16 1    
    33   37   16 1    
    34   18   17 1    
    35   26   17 1    
    36   19   18 2    
    37   38   18 1    
    38   20   19 1    
    39   21   20 ar   
    40   26   20 ar   
    41   22   21 1    
    42   23   21 ar   
    43   39   22 1    
    44   40   22 1    
    45   24   23 ar   
    46   25   24 ar   
    47   41   24 1    
    48   26   25 ar   
@<TRIPOS>SUBSTRUCTURE
     1 SAH1900     1 GROUP   
@<TRIPOS>SET

