#    Name: 4asg_814_1_INTS_M
#    Modification time : Tue Mar 25 06:05:44 2014

@<TRIPOS>MOLECULE
4asg_814_1_INTS_M
   74     0     9     0     0
SMALL
NO_CHARGES


@<TRIPOS>ATOM
      1 N          24.8840  -31.3230    0.4350 N.am      2 SEC2        0.0000 
      2 N          25.5020  -32.0140   -0.5480 N.am      8 SEL2        0.0000 
      3 N          24.2660  -30.6320    1.4180 N.am      5 SEP2        0.0000 
      4 CA         27.0060  -35.7835   -0.6590 C.3       3 GLC5        0.0000 
      5 CA         25.0040  -34.9550   -0.6340 C.3       9 GLL5        0.0000 
      6 CA         29.0080  -36.6120   -0.6840 C.3       6 GLP5        0.0000 
      7 CA         25.3730  -35.3625    1.5265 C.3       3 GLC5        0.0000 
      8 CA         25.7420  -35.7700    3.6870 C.3       6 GLP5        0.0000 
      9 CA         19.9895  -36.4165   -3.3085 C.3       3 GLC5        0.0000 
     10 CA         21.2550  -35.0030   -2.5800 C.3       9 GLL5        0.0000 
     11 CA         18.7240  -37.8300   -4.0370 C.3       6 GLP5        0.0000 
     12 CA         20.5110  -33.5845   -0.5205 C.3       3 GLC5        0.0000 
     13 CA         20.5910  -33.7650   -2.7310 C.3       9 GLL5        0.0000 
     14 CA         20.4310  -33.4040    1.6900 C.3       6 GLP5        0.0000 
     15 CA         17.8540  -35.6545   -2.5025 C.3       3 GLC5        0.0000 
     16 CA         18.4250  -34.3650   -1.5420 C.3       9 GLL5        0.0000 
     17 CA         17.2830  -36.9440   -3.4630 C.3       6 GLP5        0.0000 
     18 CA         19.4280  -33.8845    0.0740 C.3       3 GLC5        0.0000 
     19 CA         16.9090  -35.5040   -0.8645 C.3       3 GLC5        0.0000 
     20 CA         15.3930  -36.6430   -0.1870 C.3       6 GLP5        0.0000 
     21 CA         16.9135  -33.2690   -0.8780 C.3       3 GLC5        0.0000 
     22 CA         15.4020  -32.1730   -0.2140 C.3       6 GLP5        0.0000 
     23 O          15.6190  -31.1110   -4.9930 O.2       1 ALC1        0.0000 
     24 O          16.8850  -31.5630   -4.5420 O.2       7 ALL1        0.0000 
     25 O          14.3530  -30.6590   -5.4440 O.2       4 ALP1        0.0000 
     26 CA         21.1340  -30.5430   -5.1440 C.3       3 GLC5        0.0000 
     27 CA         21.6270  -32.3360   -5.6040 C.3       9 GLL5        0.0000 
     28 CA         20.6410  -28.7500   -4.6840 C.3       6 GLP5        0.0000 
     29 CA         21.9620  -30.9035   -7.1005 C.3       3 GLC5        0.0000 
     30 CA         22.2970  -29.4710   -8.5970 C.3       6 GLP5        0.0000 
     31 CA         19.7695  -36.2035   -5.0135 C.3       3 GLC5        0.0000 
     32 CA         20.8150  -34.5770   -5.9900 C.3       9 GLL5        0.0000 
     33 CA         19.4400  -32.8630   -9.1840 C.3       3 GLC5        0.0000 
     34 CA         20.5310  -34.2280   -8.5830 C.3       9 GLL5        0.0000 
     35 CA         18.3490  -31.4980   -9.7850 C.3       6 GLP5        0.0000 
     36 CA         21.3215  -33.9580  -10.1520 C.3       3 GLC5        0.0000 
     37 CA         22.1120  -33.6880  -11.7210 C.3       6 GLP5        0.0000 
     38 CA         19.1795  -34.8700   -9.7785 C.3       3 GLC5        0.0000 
     39 CA         17.8280  -35.5120  -10.9740 C.3       6 GLP5        0.0000 
     40 N          23.2280  -34.9480   -9.5305 N.am      2 SEC2        0.0000 
     41 N          22.4520  -36.1180   -9.0170 N.am      8 SEL2        0.0000 
     42 N          24.0040  -33.7780  -10.0440 N.am      5 SEP2        0.0000 
     43 CA         19.8380  -38.7380   -6.3650 C.3       3 GLC5        0.0000 
     44 CA         21.6640  -39.1390   -7.1120 C.3       9 GLL5        0.0000 
     45 CA         18.0120  -38.3370   -5.6180 C.3       6 GLP5        0.0000 
     46 CA         20.7025  -40.7905   -6.6260 C.3       3 GLC5        0.0000 
     47 CA         19.7410  -42.4420   -6.1400 C.3       6 GLP5        0.0000 
     48 CA         27.6770  -36.4110   -3.9065 C.3       3 GLC5        0.0000 
     49 CA         26.4350  -36.1570   -5.6060 C.3       9 GLL5        0.0000 
     50 CA         28.9190  -36.6650   -2.2070 C.3       6 GLP5        0.0000 
     51 N          26.1025  -31.7225   -8.8210 N.am      2 SEC2        0.0000 
     52 N          26.1210  -31.6950   -7.4040 N.am      8 SEL2        0.0000 
     53 N          26.0840  -31.7500  -10.2380 N.am      5 SEP2        0.0000 
     54 CA         28.5940  -30.4525   -3.4015 C.3       3 GLC5        0.0000 
     55 CA         27.1480  -29.6280   -4.7580 C.3       9 GLL5        0.0000 
     56 CA         30.0400  -31.2770   -2.0450 C.3       6 GLP5        0.0000 
     57 CA         23.8727  -33.5872    0.2000 C.3       3 GLC5        0.0000 
     58 CA         22.9010  -32.7510    1.4600 C.3       6 GLP5        0.0000 
     59 CA         22.9325  -33.5780   -0.2720 C.3       3 GLC5        0.0000 
     60 CA         23.3620  -33.8250   -1.9540 C.3       9 GLL5        0.0000 
     61 CA         21.6352  -36.2185   -0.9375 C.3       3 GLC5        0.0000 
     62 CA         22.5660  -34.9850   -2.0540 C.3       9 GLL5        0.0000 
     63 CA         21.3600  -37.4430    0.4420 C.3       6 GLP5        0.0000 
     64 CA         20.4408  -31.4574   -3.8724 C.3       3 GLC5        0.0000 
     65 CA         20.3850  -29.4890   -3.3550 C.3       6 GLP5        0.0000 
     66 CA         24.1535  -38.5902   -4.1523 C.3       3 GLC5        0.0000 
     67 CA         24.2480  -36.8810   -4.3870 C.3       9 GLL5        0.0000 
     68 CA         23.6930  -40.3260   -3.2410 C.3       6 GLP5        0.0000 
     69 CA         22.6765  -28.9340   -4.9270 C.3       3 GLC5        0.0000 
     70 CA         24.7730  -29.8300   -5.2020 C.3       9 GLL5        0.0000 
     71 CA         23.5045  -29.2945   -6.8835 C.3       3 GLC5        0.0000 
     72 CA         24.6510  -28.4060   -5.1380 C.3       9 GLL5        0.0000 
     73 CA         24.0135  -26.3985   -4.6645 C.3       3 GLC5        0.0000 
     74 CA         22.8140  -24.7950   -4.3190 C.3       6 GLP5        0.0000 
@<TRIPOS>BOND
@<TRIPOS>SUBSTRUCTURE
     1 ALC1       23 GROUP        1 X    ALC  0     ROOT ALC X 1
     2 SEC2        1 GROUP        1 X    SEC  0     **** SEC X 2
     3 GLC5        4 GROUP        1 X    GLC  0     **** GLC X 6
     4 ALP1       25 GROUP        1 Y    ALP  0     ROOT ALP Y 8
     5 SEP2        3 GROUP        1 Y    SEP  0     **** SEP Y 9
     6 GLP5        6 GROUP        1 Y    GLP  0     **** GLP Y 13
     7 ALL1       24 GROUP        1 Z    ALL  0     ROOT ALL Z 15
     8 SEL2        2 GROUP        1 Z    SEL  0     **** SEL Z 16
     9 GLL5        5 GROUP        1 Z    GLL  0     **** GLL Z 20
@<TRIPOS>SET

