#    Name: 4asg_814_1_ligand
#    Modification time : Tue Mar 25 06:05:44 2014

@<TRIPOS>MOLECULE
4asg_814_1_ligand
   90    92     1     0     0
SMALL
NO_CHARGES


@<TRIPOS>ATOM
      1 OAK        26.4490  -34.8610   -3.1560 O.2       1 8141215     0.0000 
      2 CBM        26.3580  -34.1330   -4.1650 C.2       1 8141215     0.0000 
      3 CBJ        26.1970  -32.7330   -3.9830 C.2       1 8141215     0.0000 
      4 NAY        26.1780  -32.2030   -2.6470 N.am      1 8141215     0.0000 
      5 CBG        25.5220  -32.7570   -1.5080 C.2       1 8141215     0.0000 
      6 OAJ        25.5020  -32.0140   -0.5480 O.2       1 8141215     0.0000 
      7 CBE        24.6850  -33.8920   -1.4860 C.2       1 8141215     0.0000 
      8 CAD        25.0040  -34.9550   -0.6340 C.3       1 8141215     0.0000 
      9 CAO        23.3620  -33.8250   -1.9540 C.2       1 8141215     0.0000 
     10 CAN        22.5660  -34.9850   -2.0540 C.2       1 8141215     0.0000 
     11 CAP        21.2550  -35.0030   -2.5800 C.2       1 8141215     0.0000 
     12 CBQ        20.5910  -33.7650   -2.7310 C.3       1 8141215     0.0000 
     13 OBA        19.5790  -33.4430   -1.7210 O.3       1 8141215     0.0000 
     14 CAB        18.4250  -34.3650   -1.5420 C.3       1 8141215     0.0000 
     15 CBT        20.0490  -33.2420   -4.1000 C.3       1 8141215     0.0000 
     16 OBC        18.6510  -32.9240   -3.9730 O.3       1 8141215     0.0000 
     17 CBD        17.6680  -32.6340   -4.8530 C.2       1 8141215     0.0000 
     18 OAI        17.2570  -33.5430   -5.6020 O.2       1 8141215     0.0000 
     19 NAH        16.8850  -31.5630   -4.5420 N.am      1 8141215     0.0000 
     20 CBF        20.6730  -33.3480   -5.3640 C.2       1 8141215     0.0000 
     21 CAE        21.6270  -32.3360   -5.6040 C.3       1 8141215     0.0000 
     22 CAQ        20.8150  -34.5770   -5.9900 C.2       1 8141215     0.0000 
     23 CBP        20.7710  -35.0570   -7.3460 C.3       1 8141215     0.0000 
     24 CAG        20.5310  -34.2280   -8.5830 C.3       1 8141215     0.0000 
     25 OAM        22.4520  -36.1180   -9.0170 O.3       1 8141215     0.0000 
     26 CBS        22.6810  -36.8870   -6.7760 C.3       1 8141215     0.0000 
     27 OBB        22.8080  -38.2720   -7.2150 O.3       1 8141215     0.0000 
     28 CAC        21.6640  -39.1390   -7.1120 C.3       1 8141215     0.0000 
     29 CAX        24.0290  -36.1610   -6.7640 C.3       1 8141215     0.0000 
     30 CAF        24.2480  -36.8810   -4.3870 C.3       1 8141215     0.0000 
     31 CAW        26.4350  -36.1570   -5.6060 C.3       1 8141215     0.0000 
     32 CBI        26.3450  -34.7060   -5.4480 C.2       1 8141215     0.0000 
     33 CBK        26.2920  -33.8280   -6.5490 C.2       1 8141215     0.0000 
     34 OAZ        26.3160  -34.3360   -7.8470 O.3       1 8141215     0.0000 
     35 CAA        27.6240  -34.2470   -8.4880 C.3       1 8141215     0.0000 
     36 CBN        26.1790  -32.4270   -6.3990 C.2       1 8141215     0.0000 
     37 OAL        26.1210  -31.6950   -7.4040 O.2       1 8141215     0.0000 
     38 CBL        26.1190  -31.8700   -5.0990 C.2       1 8141215     0.0000 
     39 CBH        26.0130  -30.4560   -4.9930 C.ar      1 8141215     0.0000 
     40 CAU        24.7730  -29.8300   -5.2020 C.ar      1 8141215     0.0000 
     41 CAS        24.6510  -28.4060   -5.1380 C.ar      1 8141215     0.0000 
     42 CAR        25.7750  -27.5980   -4.8820 C.ar      1 8141215     0.0000 
     43 CAT        27.0220  -28.2040   -4.7090 C.ar      1 8141215     0.0000 
     44 CAV        27.1480  -29.6280   -4.7580 C.ar      1 8141215     0.0000 
     45 CBR        21.7280  -36.3000   -7.7980 C.3       1 8141215     0.0000 
     46 CBO        24.9800  -36.8280   -5.7400 C.3       1 8141215     0.0000 
     47 H          26.7159  -31.2935   -2.4944 H         1 8141215     0.0000 
     48 H          22.9648  -32.9153   -2.2291 H         1 8141215     0.0000 
     49 H          22.9727  -35.8931   -1.7164 H         1 8141215     0.0000 
     50 H          20.8102  -35.8660   -2.8378 H         1 8141215     0.0000 
     51 H          21.4210  -32.9137   -2.4956 H         1 8141215     0.0000 
     52 H          20.4402  -31.9618   -3.8270 H         1 8141215     0.0000 
     53 H          17.1331  -31.0626   -3.7125 H         1 8141215     0.0000 
     54 H          16.1312  -31.3717   -5.1706 H         1 8141215     0.0000 
     55 H          21.0173  -35.4290   -5.2628 H         1 8141215     0.0000 
     56 H          19.6953  -35.7378   -7.3723 H         1 8141215     0.0000 
     57 H          22.2215  -36.8419   -5.8192 H         1 8141215     0.0000 
     58 H          23.8815  -35.1260   -6.4830 H         1 8141215     0.0000 
     59 H          24.4790  -36.2147   -7.7471 H         1 8141215     0.0000 
     60 H          26.9128  -36.6334   -4.7474 H         1 8141215     0.0000 
     61 H          26.9844  -36.4373   -6.5071 H         1 8141215     0.0000 
     62 H          23.9386  -30.3904   -5.4036 H         1 8141215     0.0000 
     63 H          23.7311  -27.9791   -5.2814 H         1 8141215     0.0000 
     64 H          25.6756  -26.5866   -4.8246 H         1 8141215     0.0000 
     65 H          27.8592  -27.6383   -4.5454 H         1 8141215     0.0000 
     66 H          28.0673  -30.0553   -4.6221 H         1 8141215     0.0000 
     67 H          20.9684  -37.1560   -8.0061 H         1 8141215     0.0000 
     68 H          25.1347  -37.8698   -6.0593 H         1 8141215     0.0000 
     69 H          25.9024  -35.3415   -0.8427 H         1 8141215     0.0000 
     70 H          25.0229  -34.6700    0.3244 H         1 8141215     0.0000 
     71 H          24.3407  -35.7000   -0.7052 H         1 8141215     0.0000 
     72 H          18.7207  -35.2835   -1.2794 H         1 8141215     0.0000 
     73 H          17.7999  -34.0438   -0.8306 H         1 8141215     0.0000 
     74 H          17.8903  -34.4581   -2.3819 H         1 8141215     0.0000 
     75 H          22.3641  -32.3527   -4.9284 H         1 8141215     0.0000 
     76 H          22.0521  -32.4322   -6.5040 H         1 8141215     0.0000 
     77 H          21.2179  -31.4242   -5.5690 H         1 8141215     0.0000 
     78 H          21.2280  -33.5200   -8.6966 H         1 8141215     0.0000 
     79 H          20.5426  -34.7865   -9.4124 H         1 8141215     0.0000 
     80 H          19.6451  -33.7651   -8.5537 H         1 8141215     0.0000 
     81 H          21.8656  -40.0608   -7.4432 H         1 8141215     0.0000 
     82 H          21.3503  -39.2292   -6.1668 H         1 8141215     0.0000 
     83 H          20.8904  -38.7982   -7.6463 H         1 8141215     0.0000 
     84 H          24.8101  -37.3053   -3.6770 H         1 8141215     0.0000 
     85 H          24.0038  -35.9678   -4.0608 H         1 8141215     0.0000 
     86 H          23.4002  -37.4083   -4.4438 H         1 8141215     0.0000 
     87 H          28.3222  -34.7499   -7.9786 H         1 8141215     0.0000 
     88 H          27.6098  -34.6226   -9.4147 H         1 8141215     0.0000 
     89 H          27.9386  -33.3005   -8.5601 H         1 8141215     0.0000 
     90 H          23.0815  -36.8937   -9.0623 H         1 8141215     0.0000 
@<TRIPOS>BOND
     1    2    1 2    
     2    3    2 1    
     3   32    2 1    
     4    4    3 1    
     5   38    3 2    
     6    5    4 am   
     7   47    4 1    
     8    6    5 2    
     9    7    5 1    
    10    8    7 1    
    11    9    7 2    
    12   69    8 1    
    13   70    8 1    
    14   71    8 1    
    15   10    9 1    
    16   48    9 1    
    17   11   10 2    
    18   49   10 1    
    19   12   11 1    
    20   50   11 1    
    21   13   12 1    
    22   15   12 1    
    23   51   12 1    
    24   14   13 1    
    25   72   14 1    
    26   73   14 1    
    27   74   14 1    
    28   16   15 1    
    29   20   15 1    
    30   52   15 1    
    31   17   16 1    
    32   18   17 2    
    33   19   17 am   
    34   53   19 1    
    35   54   19 1    
    36   21   20 1    
    37   22   20 2    
    38   75   21 1    
    39   76   21 1    
    40   77   21 1    
    41   23   22 1    
    42   55   22 1    
    43   24   23 1    
    44   45   23 1    
    45   56   23 1    
    46   78   24 1    
    47   79   24 1    
    48   80   24 1    
    49   45   25 1    
    50   90   25 1    
    51   27   26 1    
    52   29   26 1    
    53   45   26 1    
    54   57   26 1    
    55   28   27 1    
    56   81   28 1    
    57   82   28 1    
    58   83   28 1    
    59   46   29 1    
    60   58   29 1    
    61   59   29 1    
    62   46   30 1    
    63   84   30 1    
    64   85   30 1    
    65   86   30 1    
    66   32   31 1    
    67   46   31 1    
    68   60   31 1    
    69   61   31 1    
    70   33   32 2    
    71   34   33 1    
    72   36   33 1    
    73   35   34 1    
    74   87   35 1    
    75   88   35 1    
    76   89   35 1    
    77   37   36 2    
    78   38   36 1    
    79   39   38 1    
    80   40   39 ar   
    81   44   39 ar   
    82   41   40 ar   
    83   62   40 1    
    84   42   41 ar   
    85   63   41 1    
    86   43   42 ar   
    87   64   42 1    
    88   44   43 ar   
    89   65   43 1    
    90   66   44 1    
    91   67   45 1    
    92   68   46 1    
@<TRIPOS>SUBSTRUCTURE
     1 8141215     1 GROUP   
@<TRIPOS>SET

