#    Name: 3h98_B5P_1_INTS_M
#    Modification time : Tue Mar 25 13:44:15 2014

@<TRIPOS>MOLECULE
3h98_B5P_1_INTS_M
   57     0     9     0     0
SMALL
NO_CHARGES


@<TRIPOS>ATOM
      1 CA          3.6575   -8.2225   -8.2740 C.3       3 GLC5        0.0000 
      2 CA          4.9820   -8.8960   -9.6940 C.3       9 GLL5        0.0000 
      3 CA          2.3330   -7.5490   -6.8540 C.3       6 GLP5        0.0000 
      4 CA          3.3900   -9.8700  -10.4150 C.3       3 GLC5        0.0000 
      5 CA          1.7980  -10.8440  -11.1360 C.3       6 GLP5        0.0000 
      6 CA          5.6325   -8.0755   -7.1470 C.3       3 GLC5        0.0000 
      7 CA          6.7380   -9.4220   -8.1300 C.3       9 GLL5        0.0000 
      8 CA          4.5270   -6.7290   -6.1640 C.3       6 GLP5        0.0000 
      9 CA          7.8365   -8.1375   -7.0520 C.3       3 GLC5        0.0000 
     10 CA          8.9350   -6.8530   -5.9740 C.3       6 GLP5        0.0000 
     11 CA          7.9395  -10.6500   -7.4925 C.3       3 GLC5        0.0000 
     12 CA          9.1410  -11.8780   -6.8550 C.3       6 GLP5        0.0000 
     13 CA          5.3080  -10.9895   -9.1540 C.3       3 GLC5        0.0000 
     14 CA          6.9480  -10.2690  -10.5070 C.3       9 GLL5        0.0000 
     15 CA          3.6680  -11.7100   -7.8010 C.3       6 GLP5        0.0000 
     16 CA          8.7960  -11.1515   -8.6910 C.3       3 GLC5        0.0000 
     17 CA          8.4510  -10.4250  -10.5270 C.3       9 GLL5        0.0000 
     18 CA          8.3555   -6.3385  -13.0740 C.3       3 GLC5        0.0000 
     19 CA          9.5850   -7.6880  -12.9660 C.3       9 GLL5        0.0000 
     20 CA          7.1260   -4.9890  -13.1820 C.3       6 GLP5        0.0000 
     21 N          10.5455   -4.5850  -12.7035 N.am      2 SEC2        0.0000 
     22 N          11.0670   -5.8580  -12.3880 N.am      8 SEL2        0.0000 
     23 N          10.0240   -3.3120  -13.0190 N.am      5 SEP2        0.0000 
     24 CA          7.1855  -10.6020  -16.2450 C.3       3 GLC5        0.0000 
     25 CA          8.7950   -9.6570  -17.2480 C.3       9 GLL5        0.0000 
     26 CA          5.5760  -11.5470  -15.2420 C.3       6 GLP5        0.0000 
     27 N          10.1220   -8.6975  -24.4185 N.am      2 SEC2        0.0000 
     28 N           9.8280   -8.7350  -23.0420 N.am      8 SEL2        0.0000 
     29 N          10.4160   -8.6600  -25.7950 N.am      5 SEP2        0.0000 
     30 N           8.5695   -9.7880  -23.0135 N.am      2 SEC2        0.0000 
     31 N           7.3110  -10.8410  -22.9850 N.am      5 SEP2        0.0000 
     32 CA         12.2490   -6.7310  -23.6955 C.3       3 GLC5        0.0000 
     33 CA         11.9790   -8.0910  -21.9570 C.3       9 GLL5        0.0000 
     34 CA         12.5190   -5.3710  -25.4340 C.3       6 GLP5        0.0000 
     35 CA         12.2140   -6.3680  -20.8950 C.3       3 GLC5        0.0000 
     36 CA         12.4490   -4.6450  -19.8330 C.3       6 GLP5        0.0000 
     37 O           9.6995  -10.5895  -21.1105 O.2       1 ALC1        0.0000 
     38 O           9.8640   -9.1420  -20.6380 O.2       7 ALL1        0.0000 
     39 O           9.5350  -12.0370  -21.5830 O.2       4 ALP1        0.0000 
     40 CA         11.4050   -6.2250  -19.2350 C.3       3 GLC5        0.0000 
     41 CA         10.3610   -7.8050  -18.6370 C.3       9 GLL5        0.0000 
     42 CA          7.6825  -11.5685  -18.7015 C.3       3 GLC5        0.0000 
     43 CA          8.9440   -9.7880  -18.6050 C.3       9 GLL5        0.0000 
     44 CA          6.4210  -13.3490  -18.7980 C.3       6 GLP5        0.0000 
     45 CA          6.4875   -7.2492   -9.2400 C.3       3 GLC5        0.0000 
     46 CA          7.2390   -5.4810   -8.8260 C.3       6 GLP5        0.0000 
     47 CA          5.9710   -7.3892  -11.0765 C.3       3 GLC5        0.0000 
     48 CA          6.4900   -9.1390   -9.6140 C.3       9 GLL5        0.0000 
     49 CA          6.2060   -5.7610  -12.4990 C.3       6 GLP5        0.0000 
     50 CA          4.9525  -10.4649   -8.3465 C.3       3 GLC5        0.0000 
     51 CA          6.9593  -11.3775  -12.1500 C.3       3 GLC5        0.0000 
     52 CA          6.2190  -12.4080  -13.7830 C.3       6 GLP5        0.0000 
     53 CA         10.0760   -6.4348   -7.9992 C.3       3 GLC5        0.0000 
     54 CA         10.8990   -7.6130   -8.6050 C.3       9 GLL5        0.0000 
     55 CA          9.1260   -5.6610   -6.8600 C.3       6 GLP5        0.0000 
     56 CA          6.7722   -9.6077  -17.9098 C.3       3 GLC5        0.0000 
     57 CA          4.6750   -9.4930  -17.8930 C.3       6 GLP5        0.0000 
@<TRIPOS>BOND
@<TRIPOS>SUBSTRUCTURE
     1 ALC1       37 GROUP        1 X    ALC  0     ROOT ALC X 1
     2 SEC2       21 GROUP        1 X    SEC  0     **** SEC X 2
     3 GLC5        1 GROUP        1 X    GLC  0     **** GLC X 6
     4 ALP1       39 GROUP        1 Y    ALP  0     ROOT ALP Y 8
     5 SEP2       23 GROUP        1 Y    SEP  0     **** SEP Y 9
     6 GLP5        3 GROUP        1 Y    GLP  0     **** GLP Y 13
     7 ALL1       38 GROUP        1 Z    ALL  0     ROOT ALL Z 15
     8 SEL2       22 GROUP        1 Z    SEL  0     **** SEL Z 16
     9 GLL5        2 GROUP        1 Z    GLL  0     **** GLL Z 20
@<TRIPOS>SET

