#    Name: 3h98_B5P_1_ligand
#    Modification time : Tue Mar 25 13:44:15 2014

@<TRIPOS>MOLECULE
3h98_B5P_1_ligand
   54    57     1     0     0
SMALL
NO_CHARGES


@<TRIPOS>ATOM
      1 C1          4.9820   -8.8960   -9.6940 C.3       1 B5P571      0.0000 
      2 C2          6.4900   -9.1390   -9.6140 C.3       1 B5P571      0.0000 
      3 C3          6.7380   -9.4220   -8.1300 C.3       1 B5P571      0.0000 
      4 C4          6.9480  -10.2690  -10.5070 C.3       1 B5P571      0.0000 
      5 C5          8.4510  -10.4250  -10.5270 C.3       1 B5P571      0.0000 
      6 C6          8.9780   -8.9450  -12.4630 C.2       1 B5P571      0.0000 
      7 C7          9.5850   -7.6880  -12.9660 C.2       1 B5P571      0.0000 
      8 N1          9.1090   -9.2310  -11.0890 N.am      1 B5P571      0.0000 
      9 N2         10.5130   -7.3420  -10.7180 N.pl3     1 B5P571      0.0000 
     10 O1          8.3030   -9.6340  -13.2290 O.2       1 B5P571      0.0000 
     11 C8         10.4530   -6.9730  -12.0070 C.2       1 B5P571      0.0000 
     12 O2         11.0670   -5.8580  -12.3880 O.co2     1 B5P571      0.0000 
     13 N3         10.1030   -8.6130   -9.0250 N.2       1 B5P571      0.0000 
     14 C9         11.1530   -6.8040   -9.6720 C.2       1 B5P571      0.0000 
     15 C10        10.8990   -7.6130   -8.6050 C.2       1 B5P571      0.0000 
     16 C11         9.8800   -8.4320  -10.3230 C.2       1 B5P571      0.0000 
     17 C12         9.6620   -7.4930  -14.3900 C.2       1 B5P571      0.0000 
     18 C13        10.1940   -7.6570  -17.2470 C.ar      1 B5P571      0.0000 
     19 C14         9.4050   -8.6440  -16.5240 C.ar      1 B5P571      0.0000 
     20 C15         8.7950   -9.6570  -17.2480 C.ar      1 B5P571      0.0000 
     21 O6          9.8280   -8.7350  -23.0420 O.2       1 B5P571      0.0000 
     22 S2         10.2940   -8.1480  -21.8190 S.o2      1 B5P571      0.0000 
     23 O5          9.7500   -6.9130  -21.4460 O.2       1 B5P571      0.0000 
     24 C18        11.9790   -8.0910  -21.9570 C.3       1 B5P571      0.0000 
     25 N6          9.8640   -9.1420  -20.6380 N.pl3     1 B5P571      0.0000 
     26 C17         9.7430   -8.8850  -19.3090 C.ar      1 B5P571      0.0000 
     27 C19        10.3610   -7.8050  -18.6370 C.ar      1 B5P571      0.0000 
     28 S1         10.7800   -6.3990  -16.3890 S.o2      1 B5P571      0.0000 
     29 O4          9.9780   -5.2130  -16.7360 O.2       1 B5P571      0.0000 
     30 O3         12.1460   -6.2550  -16.7680 O.2       1 B5P571      0.0000 
     31 N4         10.5410   -6.5750  -14.8100 N.2       1 B5P571      0.0000 
     32 C16         8.9440   -9.7880  -18.6050 C.ar      1 B5P571      0.0000 
     33 N5          9.1870   -8.4840  -15.1920 N.pl3     1 B5P571      0.0000 
     34 H           6.9876   -8.2222   -9.8635 H         1 B5P571      0.0000 
     35 H           6.5895  -10.0881  -11.5317 H         1 B5P571      0.0000 
     36 H           6.4913  -11.2094  -10.1631 H         1 B5P571      0.0000 
     37 H           8.7058  -11.3138  -11.1212 H         1 B5P571      0.0000 
     38 H           8.8011  -10.6035   -9.5006 H         1 B5P571      0.0000 
     39 H          11.6843   -6.0129   -9.6610 H         1 B5P571      0.0000 
     40 H          11.2341   -7.4832   -7.7143 H         1 B5P571      0.0000 
     41 H           8.1965  -10.3481  -16.7310 H         1 B5P571      0.0000 
     42 H           9.6636  -10.1156  -21.0353 H         1 B5P571      0.0000 
     43 H          10.9260   -7.1361  -19.1609 H         1 B5P571      0.0000 
     44 H           8.4714  -10.5484  -19.1148 H         1 B5P571      0.0000 
     45 H           8.5601   -9.2351  -14.7110 H         1 B5P571      0.0000 
     46 H           4.6996   -8.1234   -9.1254 H         1 B5P571      0.0000 
     47 H           4.6872   -8.6956  -10.6283 H         1 B5P571      0.0000 
     48 H           4.4607   -9.6921   -9.3866 H         1 B5P571      0.0000 
     49 H           7.7040   -9.5998   -7.9422 H         1 B5P571      0.0000 
     50 H           6.4645   -8.6515   -7.5542 H         1 B5P571      0.0000 
     51 H           6.2261  -10.2206   -7.8136 H         1 B5P571      0.0000 
     52 H          12.4048   -7.6913  -21.1453 H         1 B5P571      0.0000 
     53 H          12.3729   -9.0024  -22.0759 H         1 B5P571      0.0000 
     54 H          12.2691   -7.5418  -22.7407 H         1 B5P571      0.0000 
@<TRIPOS>BOND
     1    2    1 1    
     2   46    1 1    
     3   47    1 1    
     4   48    1 1    
     5    3    2 1    
     6    4    2 1    
     7   34    2 1    
     8   49    3 1    
     9   50    3 1    
    10   51    3 1    
    11    5    4 1    
    12   35    4 1    
    13   36    4 1    
    14    8    5 1    
    15   37    5 1    
    16   38    5 1    
    17    7    6 1    
    18    8    6 am   
    19   10    6 2    
    20   11    7 2    
    21   17    7 1    
    22   16    8 1    
    23   11    9 1    
    24   14    9 1    
    25   16    9 1    
    26   12   11 ar   
    27   15   13 1    
    28   16   13 2    
    29   15   14 2    
    30   39   14 1    
    31   40   15 1    
    32   31   17 2    
    33   33   17 1    
    34   19   18 ar   
    35   27   18 ar   
    36   28   18 1    
    37   20   19 ar   
    38   33   19 1    
    39   32   20 ar   
    40   41   20 1    
    41   22   21 2    
    42   23   22 2    
    43   24   22 1    
    44   25   22 1    
    45   52   24 1    
    46   53   24 1    
    47   54   24 1    
    48   26   25 1    
    49   42   25 1    
    50   27   26 ar   
    51   32   26 ar   
    52   43   27 1    
    53   29   28 2    
    54   30   28 2    
    55   31   28 1    
    56   44   32 1    
    57   45   33 1    
@<TRIPOS>SUBSTRUCTURE
     1 B5P571      1 GROUP   
@<TRIPOS>SET

