#    Name: 2xb5_I7T_1_INTS_M
#    Modification time : Tue Mar 25 05:47:36 2014

@<TRIPOS>MOLECULE
2xb5_I7T_1_INTS_M
   52     0    12     0     0
SMALL
NO_CHARGES


@<TRIPOS>ATOM
      1 Zn         23.1815   36.1945   31.7990 Zn        3 ZIC7        0.0000 
      2 Zn         22.5450   35.6700   32.3740 Zn       11 ZIL7        0.0000 
      3 Zn         23.8180   36.7190   31.2240 Zn        7 ZIP7        0.0000 
      4 Zn         23.4130   37.4535   31.6650 Zn        3 ZIC7        0.0000 
      5 Zn         23.0080   38.1880   32.1060 Zn       11 ZIL7        0.0000 
      6 CA         21.0155   40.1025   32.6345 C.3       4 GLC5        0.0000 
      7 CA         22.3510   39.6770   33.8750 C.3      12 GLL5        0.0000 
      8 CA         19.6800   40.5280   31.3940 C.3       8 GLP5        0.0000 
      9 CA         22.2915   42.4590   31.8065 C.3       4 GLC5        0.0000 
     10 CA         22.8520   42.0260   33.7930 C.3      12 GLL5        0.0000 
     11 CA         21.7310   42.8920   29.8200 C.3       8 GLP5        0.0000 
     12 CA         21.2660   41.2770   32.5935 C.3       4 GLC5        0.0000 
     13 CA         18.9625   39.0195   36.1315 C.3       4 GLC5        0.0000 
     14 CA         20.8690   38.7510   35.6360 C.3      12 GLL5        0.0000 
     15 CA         17.0560   39.2880   36.6270 C.3       8 GLP5        0.0000 
     16 O          22.0235   32.1725   38.5070 O.2       1 ALC1        0.0000 
     17 O          22.2910   33.0970   37.5760 O.2       9 ALL1        0.0000 
     18 O          21.7560   31.2480   39.4380 O.2       5 ALP1        0.0000 
     19 CA         22.6875   35.8615   39.0705 C.3       4 GLC5        0.0000 
     20 CA         22.7570   33.9320   38.7130 C.3      12 GLL5        0.0000 
     21 CA         22.6180   37.7910   39.4280 C.3       8 GLP5        0.0000 
     22 CA         24.6510   33.1620   39.6310 C.3       4 GLC5        0.0000 
     23 CA         26.5450   32.3920   40.5490 C.3       8 GLP5        0.0000 
     24 CA         24.4485   31.7160   35.7880 C.3       4 GLC5        0.0000 
     25 CA         23.4210   32.6430   36.7490 C.3      12 GLL5        0.0000 
     26 CA         25.4760   30.7890   34.8270 C.3       8 GLP5        0.0000 
     27 CA         24.9580   34.2480   36.5675 C.3       4 GLC5        0.0000 
     28 CA         26.4950   35.8530   36.3860 C.3       8 GLP5        0.0000 
     29 N          19.6060   30.7525   36.3715 N.am      2 SEC2        0.0000 
     30 N          19.6330   32.2160   36.9560 N.am     10 SEL2        0.0000 
     31 N          19.5790   29.2890   35.7870 N.am      6 SEP2        0.0000 
     32 N          19.6970   31.2500   38.0145 N.am      2 SEC2        0.0000 
     33 N          19.7610   30.2840   39.0730 N.am      6 SEP2        0.0000 
     34 N          18.5110   32.6730   37.7235 N.am      2 SEC2        0.0000 
     35 N          17.3890   33.1300   38.4910 N.am      6 SEP2        0.0000 
     36 CA         19.2760   31.2875   34.8160 C.3       4 GLC5        0.0000 
     37 CA         19.5390   33.4900   35.0770 C.3      12 GLL5        0.0000 
     38 CA         19.0130   29.0850   34.5550 C.3       8 GLP5        0.0000 
     39 N          17.4740   32.5985   36.8670 N.am      2 SEC2        0.0000 
     40 N          17.5590   32.0670   35.2430 N.am     10 SEL2        0.0000 
     41 CA         18.6430   40.5275   36.8855 C.3       4 GLC5        0.0000 
     42 CA         20.2300   41.7670   37.1440 C.3      12 GLL5        0.0000 
     43 CA         18.6350   42.1150   38.4165 C.3       4 GLC5        0.0000 
     44 CA         17.0400   42.4630   39.6890 C.3       8 GLP5        0.0000 
     45 CA         21.9185   42.5610   38.2395 C.3       4 GLC5        0.0000 
     46 CA         23.6070   43.3550   39.3350 C.3       8 GLP5        0.0000 
     47 CA         19.9273   39.7835   33.8972 C.3       4 GLC5        0.0000 
     48 CA         21.4120   41.2280   35.4860 C.3      12 GLL5        0.0000 
     49 CA         18.6770   39.9070   32.3560 C.3       8 GLP5        0.0000 
     50 CA         21.9625   37.9622   37.5067 C.3       4 GLC5        0.0000 
     51 CA         22.0255   36.7470   37.7710 C.3       4 GLC5        0.0000 
     52 CA         21.0660   36.3500   36.2620 C.3      12 GLL5        0.0000 
@<TRIPOS>BOND
@<TRIPOS>SUBSTRUCTURE
     1 ALC1       16 GROUP        1 X    ALC  0     ROOT ALC X 1
     2 SEC2       29 GROUP        1 X    SEC  0     **** SEC X 2
     3 ZIC7        1 GROUP        1 X    ZIC  0     **** ZIC X 5
     4 GLC5        6 GROUP        1 X    GLC  0     **** GLC X 6
     5 ALP1       18 GROUP        1 Y    ALP  0     ROOT ALP Y 8
     6 SEP2       31 GROUP        1 Y    SEP  0     **** SEP Y 9
     7 ZIP7        3 GROUP        1 Y    ZIP  0     **** ZIP Y 12
     8 GLP5        8 GROUP        1 Y    GLP  0     **** GLP Y 13
     9 ALL1       17 GROUP        1 Z    ALL  0     ROOT ALL Z 15
    10 SEL2       30 GROUP        1 Z    SEL  0     **** SEL Z 16
    11 ZIL7        2 GROUP        1 Z    ZIL  0     **** ZIL Z 19
    12 GLL5        7 GROUP        1 Z    GLL  0     **** GLL Z 20
@<TRIPOS>SET

