#    Name: 2xb5_I7T_1_ligand
#    Modification time : Tue Mar 25 05:47:36 2014

@<TRIPOS>MOLECULE
2xb5_I7T_1_ligand
   50    53     1     0     0
SMALL
NO_CHARGES


@<TRIPOS>ATOM
      1 O12        22.5450   35.6700   32.3740 O.co2     1 I7T222      0.0000 
      2 C12        22.1330   35.9310   33.6310 C.2       1 I7T222      0.0000 
      3 C1B        22.1250   37.1840   34.1050 C.2       1 I7T222      0.0000 
      4 C11        22.5800   38.3130   33.2950 C.2       1 I7T222      0.0000 
      5 O11        23.0080   38.1880   32.1060 O.2       1 I7T222      0.0000 
      6 C1A        22.3510   39.6770   33.8750 C.ar      1 I7T222      0.0000 
      7 C10        22.9960   40.7380   33.3160 C.ar      1 I7T222      0.0000 
      8 O10        23.7180   40.5080   32.2600 O.co2     1 I7T222      0.0000 
      9 C9         22.8520   42.0260   33.7930 C.ar      1 I7T222      0.0000 
     10 C8         22.0490   42.2760   34.8740 C.ar      1 I7T222      0.0000 
     11 C7         21.4120   41.2280   35.4860 C.ar      1 I7T222      0.0000 
     12 C61        21.5600   39.9100   34.9960 C.ar      1 I7T222      0.0000 
     13 C6         20.8690   38.7510   35.6360 C.3       1 I7T222      0.0000 
     14 C5         21.0660   36.3500   36.2620 C.3       1 I7T222      0.0000 
     15 C1C        21.6510   34.7810   34.4970 C.3       1 I7T222      0.0000 
     16 C1         20.1850   34.5120   34.2420 C.2       1 I7T222      0.0000 
     17 O1         19.6240   35.0290   33.2780 O.2       1 I7T222      0.0000 
     18 O1C        22.3950   33.5950   34.1730 O.3       1 I7T222      0.0000 
     19 C41        21.8000   35.0560   35.9660 C.3       1 I7T222      0.0000 
     20 C4         21.2660   33.9270   36.8610 C.3       1 I7T222      0.0000 
     21 N4         22.2910   33.0970   37.5760 N.4       1 I7T222      0.0000 
     22 C42        22.7570   33.9320   38.7130 C.3       1 I7T222      0.0000 
     23 C43        23.4210   32.6430   36.7490 C.3       1 I7T222      0.0000 
     24 C3         20.1350   33.1720   36.2330 C.2       1 I7T222      0.0000 
     25 O3         19.6330   32.2160   36.9560 O.co2     1 I7T222      0.0000 
     26 C2         19.5390   33.4900   35.0770 C.2       1 I7T222      0.0000 
     27 C21        18.2880   32.8150   34.5690 C.2       1 I7T222      0.0000 
     28 O21        17.5590   32.0670   35.2430 O.2       1 I7T222      0.0000 
     29 N21        17.8120   33.1530   33.3700 N.am      1 I7T222      0.0000 
     30 C5A        21.7450   37.5160   35.5350 C.3       1 I7T222      0.0000 
     31 I7         20.2300   41.7670   37.1440 I         1 I7T222      0.0000 
     32 H          23.3551   42.8022   33.3281 H         1 I7T222      0.0000 
     33 H          21.9255   43.2359   35.2218 H         1 I7T222      0.0000 
     34 H          19.9222   38.5577   35.1345 H         1 I7T222      0.0000 
     35 H          20.6755   38.9651   36.6858 H         1 I7T222      0.0000 
     36 H          21.0800   36.5423   37.3307 H         1 I7T222      0.0000 
     37 H          20.0370   36.2725   35.9238 H         1 I7T222      0.0000 
     38 H          22.8494   35.2137   36.1923 H         1 I7T222      0.0000 
     39 H          20.7298   34.5323   37.7365 H         1 I7T222      0.0000 
     40 H          21.7709   32.2301   38.0083 H         1 I7T222      0.0000 
     41 H          18.3608   33.8047   32.8464 H         1 I7T222      0.0000 
     42 H          16.9491   32.7244   33.1023 H         1 I7T222      0.0000 
     43 H          22.6788   37.7364   36.0940 H         1 I7T222      0.0000 
     44 H          23.4482   33.4608   39.2610 H         1 I7T222      0.0000 
     45 H          23.1652   34.7899   38.4009 H         1 I7T222      0.0000 
     46 H          22.0071   34.1715   39.3298 H         1 I7T222      0.0000 
     47 H          23.9323   33.4116   36.3646 H         1 I7T222      0.0000 
     48 H          24.0696   32.0936   37.2758 H         1 I7T222      0.0000 
     49 H          23.1163   32.0801   35.9807 H         1 I7T222      0.0000 
     50 H          23.3252   33.9144   33.9924 H         1 I7T222      0.0000 
@<TRIPOS>BOND
     1    2    1 ar   
     2    3    2 2    
     3   15    2 1    
     4    4    3 1    
     5   30    3 1    
     6    5    4 2    
     7    6    4 1    
     8    7    6 ar   
     9   12    6 ar   
    10    8    7 ar   
    11    9    7 ar   
    12   10    9 ar   
    13   32    9 1    
    14   11   10 ar   
    15   33   10 1    
    16   12   11 ar   
    17   31   11 1    
    18   13   12 1    
    19   30   13 1    
    20   34   13 1    
    21   35   13 1    
    22   19   14 1    
    23   30   14 1    
    24   36   14 1    
    25   37   14 1    
    26   16   15 1    
    27   18   15 1    
    28   19   15 1    
    29   17   16 2    
    30   26   16 1    
    31   50   18 1    
    32   20   19 1    
    33   38   19 1    
    34   21   20 1    
    35   24   20 1    
    36   39   20 1    
    37   22   21 1    
    38   23   21 1    
    39   40   21 1    
    40   44   22 1    
    41   45   22 1    
    42   46   22 1    
    43   47   23 1    
    44   48   23 1    
    45   49   23 1    
    46   25   24 ar   
    47   26   24 2    
    48   27   26 1    
    49   28   27 2    
    50   29   27 am   
    51   41   29 1    
    52   42   29 1    
    53   43   30 1    
@<TRIPOS>SUBSTRUCTURE
     1 I7T222      1 GROUP   
@<TRIPOS>SET

