#    Name: 3c4v_LIP_1_INTS_M
#    Modification time : Mon Mar 24 20:30:55 2014

@<TRIPOS>MOLECULE
3c4v_LIP_1_INTS_M
   46     0    12     0     0
SMALL
NO_CHARGES


@<TRIPOS>ATOM
      1 CA        100.2670   42.9450  -14.0150 C.3       4 GLC5        0.0000 
      2 CA         98.8110   42.5440  -12.4590 C.3      12 GLL5        0.0000 
      3 CA        101.7230   43.3460  -15.5710 C.3       8 GLP5        0.0000 
      4 CA        101.4785   41.5825  -10.2330 C.3       4 GLC5        0.0000 
      5 CA         99.4760   42.4080   -9.9760 C.3      12 GLL5        0.0000 
      6 CA        103.4810   40.7570  -10.4900 C.3       8 GLP5        0.0000 
      7 N         101.8890   42.9495  -12.6755 N.am      2 SEC2        0.0000 
      8 N         100.9190   43.4880  -11.6540 N.am     10 SEL2        0.0000 
      9 N         102.8590   42.4110  -13.6970 N.am      6 SEP2        0.0000 
     10 N          95.7710   40.3245  -13.4635 N.am      2 SEC2        0.0000 
     11 N          96.6090   41.5990  -13.1950 N.am     10 SEL2        0.0000 
     12 N          94.9330   39.0500  -13.7320 N.am      6 SEP2        0.0000 
     13 O          95.5970   42.8410  -13.3950 O.2       1 ALC1        0.0000 
     14 O          96.6090   41.5990  -13.1950 O.2       9 ALL1        0.0000 
     15 O          94.5850   44.0830  -13.5950 O.2       5 ALP1        0.0000 
     16 O          95.8735   42.2385  -14.3915 O.2       1 ALC1        0.0000 
     17 O          95.1380   42.8780  -15.5880 O.2       5 ALP1        0.0000 
     18 O          95.9950   41.2490   -8.9410 O.2       1 ALC1        0.0000 
     19 O          96.0600   40.7550  -10.4970 O.2       9 ALL1        0.0000 
     20 O          95.9300   41.7430   -7.3850 O.2       5 ALP1        0.0000 
     21 N          99.1650   40.4755   -7.7865 N.am      2 SEC2        0.0000 
     22 N          98.1690   40.9050   -8.5970 N.am     10 SEL2        0.0000 
     23 N         100.1610   40.0460   -6.9760 N.am      6 SEP2        0.0000 
     24 O          97.0495   41.3240   -7.9910 O.2       1 ALC1        0.0000 
     25 O          98.1690   40.9050   -8.5970 O.2       9 ALL1        0.0000 
     26 N         101.0895   44.2225   -8.1420 N.am      2 SEC2        0.0000 
     27 N          99.8740   43.1910   -8.8550 N.am     10 SEL2        0.0000 
     28 N         102.3050   45.2540   -7.4290 N.am      6 SEP2        0.0000 
     29 NZ        104.6950   44.4150  -11.4420 N.4       3 LYC4        0.0000 
     30 NZ        103.2200   44.7990  -11.9840 N.4      11 LYL4        0.0000 
     31 NZ        106.6910   43.0660  -11.6370 N.4       7 LYP4        0.0000 
     32 N         104.6950   44.4150  -11.4420 N.am      2 SEC2        0.0000 
     33 N         103.2200   44.7990  -11.9840 N.am     10 SEL2        0.0000 
     34 N         106.1700   44.0310  -10.9000 N.am      6 SEP2        0.0000 
     35 NZ        102.3780   44.6605   -8.5510 N.4       3 LYC4        0.0000 
     36 NZ        102.4510   44.0670   -9.6730 N.4      11 LYL4        0.0000 
     37 NZ        102.3050   45.2540   -7.4290 N.4       7 LYP4        0.0000 
     38 N         102.3780   44.6605   -8.5510 N.am      2 SEC2        0.0000 
     39 N         102.4510   44.0670   -9.6730 N.am     10 SEL2        0.0000 
     40 N         103.3555   43.1680   -9.2165 N.am      2 SEC2        0.0000 
     41 N         104.2600   42.2690   -8.7600 N.am      6 SEP2        0.0000 
     42 NZ        101.7230   45.6235   -9.1675 N.4       3 LYC4        0.0000 
     43 NZ        101.1410   45.9930  -10.9060 N.4      11 LYL4        0.0000 
     44 CA         97.1587   39.8725  -12.1055 C.3       4 GLC5        0.0000 
     45 CA         97.3540   42.1470  -12.0790 C.3      12 GLL5        0.0000 
     46 CA         96.9510   38.0820  -12.7360 C.3       8 GLP5        0.0000 
@<TRIPOS>BOND
@<TRIPOS>SUBSTRUCTURE
     1 ALC1       13 GROUP        1 X    ALC  0     ROOT ALC X 1
     2 SEC2        7 GROUP        1 X    SEC  0     **** SEC X 2
     3 LYC4       29 GROUP        1 X    LYC  0     **** LYC X 4
     4 GLC5        1 GROUP        1 X    GLC  0     **** GLC X 6
     5 ALP1       15 GROUP        1 Y    ALP  0     ROOT ALP Y 8
     6 SEP2        9 GROUP        1 Y    SEP  0     **** SEP Y 9
     7 LYP4       31 GROUP        1 Y    LYP  0     **** LYP Y 11
     8 GLP5        3 GROUP        1 Y    GLP  0     **** GLP Y 13
     9 ALL1       14 GROUP        1 Z    ALL  0     ROOT ALL Z 15
    10 SEL2        8 GROUP        1 Z    SEL  0     **** SEL Z 16
    11 LYL4       30 GROUP        1 Z    LYL  0     **** LYL Z 18
    12 GLL5        2 GROUP        1 Z    GLL  0     **** GLL Z 20
@<TRIPOS>SET

