#    Name: 3c4v_LIP_1_ligand
#    Modification time : Mon Mar 24 20:30:55 2014

@<TRIPOS>MOLECULE
3c4v_LIP_1_ligand
   27    27     1     0     0
SMALL
NO_CHARGES


@<TRIPOS>ATOM
      1 C1         99.5410   43.2520  -11.2770 C.3       1 LIP601      0.0000 
      2 C2         98.8110   42.5440  -12.4590 C.3       1 LIP601      0.0000 
      3 C3         97.3540   42.1470  -12.0790 C.3       1 LIP601      0.0000 
      4 C4         97.3790   41.1790  -10.8710 C.3       1 LIP601      0.0000 
      5 C5         98.0710   41.8480   -9.6650 C.3       1 LIP601      0.0000 
      6 C6         99.4760   42.4080   -9.9760 C.3       1 LIP601      0.0000 
      7 P1        101.9500   44.5660  -10.9780 P.3       1 LIP601      0.0000 
      8 O1        100.9190   43.4880  -11.6540 O.3       1 LIP601      0.0000 
      9 O2         99.5660   41.3800  -12.8820 O.3       1 LIP601      0.0000 
     10 O3         96.6090   41.5990  -13.1950 O.3       1 LIP601      0.0000 
     11 O4         96.0600   40.7550  -10.4970 O.3       1 LIP601      0.0000 
     12 O5         98.1690   40.9050   -8.5970 O.3       1 LIP601      0.0000 
     13 O6         99.8740   43.1910   -8.8550 O.3       1 LIP601      0.0000 
     14 O7        103.2200   44.7990  -11.9840 O.co2     1 LIP601      0.0000 
     15 O8        102.4510   44.0670   -9.6730 O.co2     1 LIP601      0.0000 
     16 O9        101.1410   45.9930  -10.9060 O.co2     1 LIP601      0.0000 
     17 H          99.0313   44.1886  -11.0952 H         1 LIP601      0.0000 
     18 H          98.7478   43.2669  -13.2746 H         1 LIP601      0.0000 
     19 H          96.8679   43.0739  -11.7189 H         1 LIP601      0.0000 
     20 H          97.9938   40.3222  -11.1542 H         1 LIP601      0.0000 
     21 H          97.4443   42.6916   -9.3536 H         1 LIP601      0.0000 
     22 H         100.1457   41.5568  -10.0944 H         1 LIP601      0.0000 
     23 H         100.5159   41.5893  -12.6496 H         1 LIP601      0.0000 
     24 H          95.9530   42.3118  -13.4430 H         1 LIP601      0.0000 
     25 H          95.9497   41.0576   -9.5503 H         1 LIP601      0.0000 
     26 H          97.3982   41.1145   -7.9954 H         1 LIP601      0.0000 
     27 H         100.7896   43.5222   -9.0828 H         1 LIP601      0.0000 
@<TRIPOS>BOND
     1    2    1 1    
     2    6    1 1    
     3    8    1 1    
     4   17    1 1    
     5    3    2 1    
     6    9    2 1    
     7   18    2 1    
     8    4    3 1    
     9   10    3 1    
    10   19    3 1    
    11    5    4 1    
    12   11    4 1    
    13   20    4 1    
    14    6    5 1    
    15   12    5 1    
    16   21    5 1    
    17   13    6 1    
    18   22    6 1    
    19    8    7 1    
    20   14    7 ar   
    21   15    7 ar   
    22   16    7 ar   
    23   23    9 1    
    24   24   10 1    
    25   25   11 1    
    26   26   12 1    
    27   27   13 1    
@<TRIPOS>SUBSTRUCTURE
     1 LIP601      1 GROUP   
@<TRIPOS>SET

