#    Name: 3l8p_0CE_1_INTS_M
#    Modification time : Mon Mar 24 21:08:20 2014

@<TRIPOS>MOLECULE
3l8p_0CE_1_INTS_M
   82     0     6     0     0
SMALL
NO_CHARGES


@<TRIPOS>ATOM
      1 N          16.7965   79.3260   41.4495 N.am      1 SEC2        0.0000 
      2 N          16.7930   78.0550   42.0270 N.am      5 SEL2        0.0000 
      3 N          16.8000   80.5970   40.8720 N.am      3 SEP2        0.0000 
      4 N          23.2225   71.6350   37.9900 N.am      1 SEC2        0.0000 
      5 N          23.8280   72.3800   39.0110 N.am      5 SEL2        0.0000 
      6 N          22.6170   70.8900   36.9690 N.am      3 SEP2        0.0000 
      7 CA         12.8730   76.8475   40.2060 C.3       2 GLC5        0.0000 
      8 CA         14.1050   76.7490   41.7770 C.3       6 GLL5        0.0000 
      9 CA         11.6410   76.9460   38.6350 C.3       4 GLP5        0.0000 
     10 CA         13.1960   78.9305   43.2310 C.3       2 GLC5        0.0000 
     11 CA         11.9020   77.7730   42.1030 C.3       6 GLL5        0.0000 
     12 CA         14.4900   80.0880   44.3590 C.3       4 GLP5        0.0000 
     13 CA         11.7715   77.3595   40.3690 C.3       2 GLC5        0.0000 
     14 CA         13.7330   73.9550   44.0715 C.3       2 GLC5        0.0000 
     15 CA         13.6110   73.1450   42.1910 C.3       6 GLL5        0.0000 
     16 CA         13.8550   74.7650   45.9520 C.3       4 GLP5        0.0000 
     17 CA         14.5920   72.5280   43.5665 C.3       2 GLC5        0.0000 
     18 CA         15.5730   71.9110   44.9420 C.3       4 GLP5        0.0000 
     19 CA         15.5125   73.7720   39.4985 C.3       2 GLC5        0.0000 
     20 CA         14.7820   72.6620   41.2800 C.3       6 GLL5        0.0000 
     21 CA         16.2430   74.8820   37.7170 C.3       4 GLP5        0.0000 
     22 CA         15.6800   68.3895   42.3465 C.3       2 GLC5        0.0000 
     23 CA         16.2460   69.4630   40.4940 C.3       6 GLL5        0.0000 
     24 CA         15.1140   67.3160   44.1990 C.3       4 GLP5        0.0000 
     25 CA         17.0800   67.8740   41.1820 C.3       2 GLC5        0.0000 
     26 CA         17.9140   66.2850   41.8700 C.3       4 GLP5        0.0000 
     27 CA         16.8810   70.6800   36.5390 C.3       2 GLC5        0.0000 
     28 CA         16.4840   71.1790   38.6170 C.3       6 GLL5        0.0000 
     29 CA         17.2780   70.1810   34.4610 C.3       4 GLP5        0.0000 
     30 CA         16.3635   73.0305   38.1670 C.3       2 GLC5        0.0000 
     31 CA         19.0745   74.4310   39.5305 C.3       2 GLC5        0.0000 
     32 CA         19.6940   72.8480   40.8960 C.3       6 GLL5        0.0000 
     33 CA         18.4550   76.0140   38.1650 C.3       4 GLP5        0.0000 
     34 CA         26.6615   72.6845   42.8655 C.3       2 GLC5        0.0000 
     35 CA         25.7500   73.1220   41.0420 C.3       6 GLL5        0.0000 
     36 CA         27.5730   72.2470   44.6890 C.3       4 GLP5        0.0000 
     37 CA         26.8360   73.4840   37.7635 C.3       2 GLC5        0.0000 
     38 CA         26.0430   73.3700   39.5340 C.3       6 GLL5        0.0000 
     39 CA         27.6290   73.5980   35.9930 C.3       4 GLP5        0.0000 
     40 CA         23.5270   72.6025   37.2755 C.3       2 GLC5        0.0000 
     41 CA         25.2450   72.3310   38.6880 C.3       6 GLL5        0.0000 
     42 CA         21.8090   72.8740   35.8630 C.3       4 GLP5        0.0000 
     43 CA         24.0895   70.9080   37.9190 C.3       2 GLC5        0.0000 
     44 CA         22.9340   69.4850   37.1500 C.3       4 GLP5        0.0000 
     45 CA         25.7880   72.9595   37.0950 C.3       2 GLC5        0.0000 
     46 CA         26.3310   73.5880   35.5020 C.3       4 GLP5        0.0000 
     47 CA         16.5068   74.0250   39.4595 C.3       2 GLC5        0.0000 
     48 CA         17.4210   72.8570   41.0900 C.3       6 GLL5        0.0000 
     49 CA         15.5120   72.4907   43.1195 C.3       2 GLC5        0.0000 
     50 CA         16.1200   73.4790   41.3140 C.3       6 GLL5        0.0000 
     51 CA         15.7873   75.0495   39.6980 C.3       2 GLC5        0.0000 
     52 CA         16.0380   74.9230   41.5700 C.3       6 GLL5        0.0000 
     53 CA         14.6191   76.0335   43.6595 C.3       2 GLC5        0.0000 
     54 CA         14.5200   76.0840   45.5910 C.3       4 GLP5        0.0000 
     55 CA         13.5122   71.6112   43.0712 C.3       2 GLC5        0.0000 
     56 CA         12.8280   70.3190   44.4070 C.3       4 GLP5        0.0000 
     57 CA         18.3383   76.1330   43.2745 C.3       2 GLC5        0.0000 
     58 CA         17.2500   75.6870   41.6030 C.3       6 GLL5        0.0000 
     59 CA         18.7930   76.8790   45.0490 C.3       4 GLP5        0.0000 
     60 CA         18.1788   75.5246   39.8008 C.3       2 GLC5        0.0000 
     61 CA         20.0508   72.6673   38.8323 C.3       2 GLC5        0.0000 
     62 CA         20.6750   73.1320   36.8620 C.3       4 GLP5        0.0000 
     63 CA         22.8380   70.7645   38.8092 C.3       2 GLC5        0.0000 
     64 CA         21.9800   71.9800   40.5320 C.3       6 GLL5        0.0000 
     65 CA         23.7065   71.2975   42.5635 C.3       2 GLC5        0.0000 
     66 CA         23.5040   72.1080   40.4050 C.3       6 GLL5        0.0000 
     67 CA         23.5520   69.9510   44.2790 C.3       4 GLP5        0.0000 
     68 CA         25.0015   74.4860   42.4007 C.3       2 GLC5        0.0000 
     69 CA         24.2180   73.1800   41.2910 C.3       6 GLL5        0.0000 
     70 CA         25.0190   75.8210   43.6350 C.3       4 GLP5        0.0000 
     71 CA         27.8712   72.9440   40.9335 C.3       2 GLC5        0.0000 
     72 CA         29.8460   72.6420   41.5790 C.3       4 GLP5        0.0000 
     73 CA         24.3990   74.5012   38.5735 C.3       2 GLC5        0.0000 
     74 CA         23.1540   76.1520   38.0360 C.3       4 GLP5        0.0000 
     75 CA         21.0813   72.3710   38.6859 C.3       2 GLC5        0.0000 
     76 CA         21.1020   73.0860   40.8130 C.3       6 GLL5        0.0000 
     77 CA         21.1830   69.6322   38.8225 C.3       2 GLC5        0.0000 
     78 CA         21.4340   70.6870   40.3470 C.3       6 GLL5        0.0000 
     79 CA         21.6280   68.6950   37.2560 C.3       4 GLP5        0.0000 
     80 CA         17.4765   74.1007   43.2958 C.3       2 GLC5        0.0000 
     81 CA         18.5170   75.0870   41.3970 C.3       6 GLL5        0.0000 
     82 CA         17.5000   73.4600   45.1700 C.3       4 GLP5        0.0000 
@<TRIPOS>BOND
@<TRIPOS>SUBSTRUCTURE
     1 SEC2        1 GROUP        1 X    SEC  0     ROOT SEC X 2
     2 GLC5        7 GROUP        1 X    GLC  0     **** GLC X 6
     3 SEP2        3 GROUP        1 Y    SEP  0     ROOT SEP Y 9
     4 GLP5        9 GROUP        1 Y    GLP  0     **** GLP Y 13
     5 SEL2        2 GROUP        1 Z    SEL  0     ROOT SEL Z 16
     6 GLL5        8 GROUP        1 Z    GLL  0     **** GLL Z 20
@<TRIPOS>SET

