#    Name: 3l8p_0CE_1_ligand
#    Modification time : Mon Mar 24 21:08:20 2014

@<TRIPOS>MOLECULE
3l8p_0CE_1_ligand
   62    68     1     0     0
SMALL
NO_CHARGES


@<TRIPOS>ATOM
      1 C1         18.5930   73.6800   41.1430 C.ar      1 0CE2207     0.0000 
      2 N1         12.4770   75.3710   42.2030 N.2       1 0CE2207     0.0000 
      3 O1         16.7930   78.0550   42.0270 O.2       1 0CE2207     0.0000 
      4 C2         17.4210   72.8570   41.0900 C.ar      1 0CE2207     0.0000 
      5 N2         12.8270   76.6560   42.0250 N.pl3     1 0CE2207     0.0000 
      6 O2         23.8280   72.3800   39.0110 O.3       1 0CE2207     0.0000 
      7 C3         16.1200   73.4790   41.3140 C.ar      1 0CE2207     0.0000 
      8 N3         18.9090   77.3270   41.7420 N.2       1 0CE2207     0.0000 
      9 C4         16.0380   74.9230   41.5700 C.ar      1 0CE2207     0.0000 
     10 N4         17.7850   71.5150   40.8190 N.pl3     1 0CE2207     0.0000 
     11 C5         14.6250   75.5110   41.7880 C.2       1 0CE2207     0.0000 
     12 C6         13.4900   74.6340   42.0790 C.2       1 0CE2207     0.0000 
     13 C7         14.1050   76.7490   41.7770 C.2       1 0CE2207     0.0000 
     14 C8         11.9020   77.7730   42.1030 C.3       1 0CE2207     0.0000 
     15 C9         13.6110   73.1450   42.1910 C.3       1 0CE2207     0.0000 
     16 C10        14.7820   72.6620   41.2800 C.3       1 0CE2207     0.0000 
     17 C11        17.2500   75.6870   41.6030 C.ar      1 0CE2207     0.0000 
     18 C12        18.5170   75.0870   41.3970 C.ar      1 0CE2207     0.0000 
     19 C13        19.6500   76.1110   41.4810 C.2       1 0CE2207     0.0000 
     20 C14        17.5920   77.1530   41.8170 C.2       1 0CE2207     0.0000 
     21 C15        17.1830   70.5250   39.8530 C.3       1 0CE2207     0.0000 
     22 C16        16.2460   69.4630   40.4940 C.3       1 0CE2207     0.0000 
     23 C17        16.4840   71.1790   38.6170 C.3       1 0CE2207     0.0000 
     24 C18        19.1590   71.5570   40.7090 C.ar      1 0CE2207     0.0000 
     25 C19        19.6940   72.8480   40.8960 C.ar      1 0CE2207     0.0000 
     26 C20        21.1020   73.0860   40.8130 C.ar      1 0CE2207     0.0000 
     27 C21        21.9800   71.9800   40.5320 C.ar      1 0CE2207     0.0000 
     28 C22        23.5040   72.1080   40.4050 C.3       1 0CE2207     0.0000 
     29 C23        24.2180   73.1800   41.2910 C.3       1 0CE2207     0.0000 
     30 C24        25.7500   73.1220   41.0420 C.3       1 0CE2207     0.0000 
     31 C25        26.0430   73.3700   39.5340 C.3       1 0CE2207     0.0000 
     32 C26        25.2450   72.3310   38.6880 C.3       1 0CE2207     0.0000 
     33 C27        21.4340   70.6870   40.3470 C.ar      1 0CE2207     0.0000 
     34 C28        20.0420   70.4520   40.4310 C.ar      1 0CE2207     0.0000 
     35 H          14.6135   77.5631   41.6102 H         1 0CE2207     0.0000 
     36 H          12.7033   72.6622   41.8576 H         1 0CE2207     0.0000 
     37 H          13.8339   72.8556   43.2083 H         1 0CE2207     0.0000 
     38 H          15.0161   71.6065   41.5411 H         1 0CE2207     0.0000 
     39 H          14.4202   72.6372   40.2286 H         1 0CE2207     0.0000 
     40 H          20.4928   75.9531   41.3894 H         1 0CE2207     0.0000 
     41 H          18.0409   69.9251   39.4073 H         1 0CE2207     0.0000 
     42 H          21.4769   74.0094   40.9481 H         1 0CE2207     0.0000 
     43 H          23.9481   71.1291   40.6652 H         1 0CE2207     0.0000 
     44 H          24.0170   72.9671   42.3269 H         1 0CE2207     0.0000 
     45 H          23.8501   74.1556   41.0233 H         1 0CE2207     0.0000 
     46 H          26.1173   72.1470   41.3169 H         1 0CE2207     0.0000 
     47 H          26.2335   73.8880   41.6257 H         1 0CE2207     0.0000 
     48 H          27.0932   73.2402   39.3512 H         1 0CE2207     0.0000 
     49 H          25.7223   74.3600   39.2690 H         1 0CE2207     0.0000 
     50 H          25.4248   72.5626   37.6337 H         1 0CE2207     0.0000 
     51 H          25.6707   71.3449   38.8973 H         1 0CE2207     0.0000 
     52 H          22.0671   69.8979   40.1462 H         1 0CE2207     0.0000 
     53 H          19.6595   69.5267   40.2999 H         1 0CE2207     0.0000 
     54 H          12.3609   78.6471   41.9435 H         1 0CE2207     0.0000 
     55 H          11.1709   77.6978   41.4249 H         1 0CE2207     0.0000 
     56 H          11.4646   77.8310   43.0004 H         1 0CE2207     0.0000 
     57 H          16.7232   68.9110   41.1778 H         1 0CE2207     0.0000 
     58 H          15.4642   69.8858   40.9523 H         1 0CE2207     0.0000 
     59 H          15.8790   68.8311   39.8113 H         1 0CE2207     0.0000 
     60 H          17.1204   71.7336   38.0808 H         1 0CE2207     0.0000 
     61 H          16.1022   70.4914   37.9994 H         1 0CE2207     0.0000 
     62 H          15.7313   71.7781   38.8899 H         1 0CE2207     0.0000 
@<TRIPOS>BOND
     1    4    1 ar   
     2   18    1 ar   
     3   25    1 1    
     4    5    2 1    
     5   12    2 2    
     6   20    3 2    
     7    7    4 ar   
     8   10    4 1    
     9   13    5 1    
    10   14    5 1    
    11   28    6 1    
    12   32    6 1    
    13    9    7 ar   
    14   16    7 1    
    15   19    8 2    
    16   20    8 1    
    17   11    9 1    
    18   17    9 ar   
    19   21   10 1    
    20   24   10 1    
    21   12   11 1    
    22   13   11 2    
    23   15   12 1    
    24   35   13 1    
    25   54   14 1    
    26   55   14 1    
    27   56   14 1    
    28   16   15 1    
    29   36   15 1    
    30   37   15 1    
    31   38   16 1    
    32   39   16 1    
    33   18   17 ar   
    34   20   17 1    
    35   19   18 1    
    36   40   19 1    
    37   22   21 1    
    38   23   21 1    
    39   41   21 1    
    40   57   22 1    
    41   58   22 1    
    42   59   22 1    
    43   60   23 1    
    44   61   23 1    
    45   62   23 1    
    46   25   24 ar   
    47   34   24 ar   
    48   26   25 ar   
    49   27   26 ar   
    50   42   26 1    
    51   28   27 1    
    52   33   27 ar   
    53   29   28 1    
    54   43   28 1    
    55   30   29 1    
    56   44   29 1    
    57   45   29 1    
    58   31   30 1    
    59   46   30 1    
    60   47   30 1    
    61   32   31 1    
    62   48   31 1    
    63   49   31 1    
    64   50   32 1    
    65   51   32 1    
    66   34   33 ar   
    67   52   33 1    
    68   53   34 1    
@<TRIPOS>SUBSTRUCTURE
     1 0CE2207     1 GROUP   
@<TRIPOS>SET

