#    Name: 2pqz_G0G_1_INTS_M
#    Modification time : Mon Mar 24 19:18:08 2014

@<TRIPOS>MOLECULE
2pqz_G0G_1_INTS_M
   86     0     9     0     0
SMALL
NO_CHARGES


@<TRIPOS>ATOM
      1 N          11.1285  -23.4220  -15.8085 N.am      1 SEC2        0.0000 
      2 N          11.2410  -22.8170  -17.3600 N.am      7 SEL2        0.0000 
      3 N          11.0160  -24.0270  -14.2570 N.am      4 SEP2        0.0000 
      4 OD1        14.6295  -16.9740  -18.6910 O.co2     2 ASC3        0.0000 
      5 OD1        13.9240  -18.3100  -18.6300 O.co2     8 ASL3        0.0000 
      6 OD1        15.3350  -15.6380  -18.7520 O.co2     5 ASP3        0.0000 
      7 OD1        14.4775  -17.5175  -17.7585 O.co2     2 ASC3        0.0000 
      8 OD1        15.0310  -16.7250  -16.8870 O.co2     5 ASP3        0.0000 
      9 OD1        14.7510  -17.7705  -19.7535 O.co2     2 ASC3        0.0000 
     10 OD1        15.5780  -17.2310  -20.8770 O.co2     5 ASP3        0.0000 
     11 OD1        13.8795  -18.3350  -20.0635 O.co2     2 ASC3        0.0000 
     12 OD1        13.8350  -18.3600  -21.4970 O.co2     5 ASP3        0.0000 
     13 CA         12.7955  -16.1930  -19.7210 C.3       3 GLC5        0.0000 
     14 CA         12.6150  -17.6520  -18.3440 C.3       9 GLL5        0.0000 
     15 CA         12.9760  -14.7340  -21.0980 C.3       6 GLP5        0.0000 
     16 CA         12.0385  -15.7965  -18.0315 C.3       3 GLC5        0.0000 
     17 CA         11.4620  -13.9410  -17.7190 C.3       6 GLP5        0.0000 
     18 CA          6.3430  -17.0740  -13.9055 C.3       3 GLC5        0.0000 
     19 CA          7.4950  -16.5340  -15.4930 C.3       9 GLL5        0.0000 
     20 CA          5.1910  -17.6140  -12.3180 C.3       6 GLP5        0.0000 
     21 CA          6.3810  -15.7555  -13.5465 C.3       3 GLC5        0.0000 
     22 CA          7.9830  -15.3590  -14.8910 C.3       9 GLL5        0.0000 
     23 CA          4.7790  -16.1520  -12.2020 C.3       6 GLP5        0.0000 
     24 CA         13.2745  -23.9155  -15.1760 C.3       3 GLC5        0.0000 
     25 CA         14.2470  -22.2880  -14.7550 C.3       9 GLL5        0.0000 
     26 CA         12.3020  -25.5430  -15.5970 C.3       6 GLP5        0.0000 
     27 N           9.1135  -23.8665  -18.8760 N.am      1 SEC2        0.0000 
     28 N           9.9520  -22.9130  -19.5530 N.am      7 SEL2        0.0000 
     29 N           8.2750  -24.8200  -18.1990 N.am      4 SEP2        0.0000 
     30 CA         13.0175  -24.5360  -17.2710 C.3       3 GLC5        0.0000 
     31 CA         13.7330  -23.5290  -18.9450 C.3       9 GLL5        0.0000 
     32 CA         14.3745  -26.2445  -21.3445 C.3       3 GLC5        0.0000 
     33 CA         14.8560  -24.0990  -21.0650 C.3       9 GLL5        0.0000 
     34 CA         13.8930  -28.3900  -21.6240 C.3       6 GLP5        0.0000 
     35 CA         14.0650  -22.2410  -23.2280 C.3       3 GLC5        0.0000 
     36 CA         13.6700  -23.7480  -21.7870 C.3       9 GLL5        0.0000 
     37 CA         14.4600  -20.7340  -24.6690 C.3       6 GLP5        0.0000 
     38 CA         12.2395  -22.0020  -22.7610 C.3       3 GLC5        0.0000 
     39 CA         12.5210  -23.3070  -21.0810 C.3       9 GLL5        0.0000 
     40 CA         11.9580  -20.6970  -24.4410 C.3       6 GLP5        0.0000 
     41 CA          7.5370  -21.1338  -18.4123 C.3       3 GLC5        0.0000 
     42 CA          8.6580  -19.7860  -19.3040 C.3       9 GLL5        0.0000 
     43 CA          7.0140  -22.8640  -17.5470 C.3       6 GLP5        0.0000 
     44 CA          7.4053  -20.3249  -20.6634 C.3       3 GLC5        0.0000 
     45 CA          7.1390  -21.9840  -21.6160 C.3       6 GLP5        0.0000 
     46 CA          9.7837  -17.0225  -22.4970 C.3       3 GLC5        0.0000 
     47 CA          8.2820  -17.6450  -21.1130 C.3       9 GLL5        0.0000 
     48 CA         10.6850  -16.0280  -23.8690 C.3       6 GLP5        0.0000 
     49 CA          8.6638  -18.4835  -23.1090 C.3       3 GLC5        0.0000 
     50 CA          9.4830  -18.3890  -21.1370 C.3       9 GLL5        0.0000 
     51 CA          8.4450  -18.9500  -25.0930 C.3       6 GLP5        0.0000 
     52 CA          8.5174  -20.5656  -21.1701 C.3       3 GLC5        0.0000 
     53 CA         10.9729  -19.2181  -22.3261 C.3       3 GLC5        0.0000 
     54 CA          9.6670  -19.4960  -20.2630 C.3       9 GLL5        0.0000 
     55 CA         12.0500  -19.2890  -23.9280 C.3       6 GLP5        0.0000 
     56 CA          8.2815  -13.5455  -13.8405 C.3       3 GLC5        0.0000 
     57 CA          7.9220  -11.7430  -13.0640 C.3       6 GLP5        0.0000 
     58 CA         11.0020  -14.9745  -15.4073 C.3       3 GLC5        0.0000 
     59 CA          9.2990  -15.3370  -14.3430 C.3       9 GLL5        0.0000 
     60 CA         12.2710  -14.0510  -16.4270 C.3       6 GLP5        0.0000 
     61 CA          9.9325  -15.5570  -12.6083 C.3       3 GLC5        0.0000 
     62 CA         10.1670  -16.4590  -14.4320 C.3       9 GLL5        0.0000 
     63 CA         10.1320  -15.2160  -10.8290 C.3       6 GLP5        0.0000 
     64 CA          8.5575  -16.6630  -12.7293 C.3       3 GLC5        0.0000 
     65 CA          7.3820  -17.4280  -11.0710 C.3       6 GLP5        0.0000 
     66 CA         14.8650  -18.2503  -14.2850 C.3       3 GLC5        0.0000 
     67 CA         13.3300  -18.5990  -15.4190 C.3       9 GLL5        0.0000 
     68 CA         16.0070  -17.2430  -13.2160 C.3       6 GLP5        0.0000 
     69 CA         15.0478  -20.4495  -13.3190 C.3       3 GLC5        0.0000 
     70 CA         14.1160  -19.9160  -15.2890 C.3       9 GLL5        0.0000 
     71 CA         16.3050  -20.3900  -11.5610 C.3       6 GLP5        0.0000 
     72 CA         12.1615  -22.5775  -13.9235 C.3       3 GLC5        0.0000 
     73 CA         13.4650  -21.1020  -14.8650 C.3       9 GLL5        0.0000 
     74 CA         10.4670  -23.4600  -13.0370 C.3       6 GLP5        0.0000 
     75 CA         15.6205  -21.3442  -13.2465 C.3       3 GLC5        0.0000 
     76 CA         17.5652  -19.3775  -15.2748 C.3       3 GLC5        0.0000 
     77 CA         16.3030  -21.1030  -15.4740 C.3       9 GLL5        0.0000 
     78 CA         19.2270  -18.2330  -15.0000 C.3       6 GLP5        0.0000 
     79 CA         16.1043  -20.4560  -13.5553 C.3       3 GLC5        0.0000 
     80 CA         15.9553  -18.8825  -14.3827 C.3       3 GLC5        0.0000 
     81 CA         14.3320  -25.0352  -22.9350 C.3       3 GLC5        0.0000 
     82 CA         14.4010  -26.1470  -24.4440 C.3       6 GLP5        0.0000 
     83 CA         15.5485  -22.4346  -21.4911 C.3       3 GLC5        0.0000 
     84 CA         16.8230  -20.9720  -21.9100 C.3       6 GLP5        0.0000 
     85 CA         12.4098  -24.9899  -20.9321 C.3       3 GLC5        0.0000 
     86 CA         11.2710  -26.3550  -21.0540 C.3       6 GLP5        0.0000 
@<TRIPOS>BOND
@<TRIPOS>SUBSTRUCTURE
     1 SEC2        1 GROUP        1 X    SEC  0     ROOT SEC X 2
     2 ASC3        4 GROUP        1 X    ASC  0     **** ASC X 3
     3 GLC5       13 GROUP        1 X    GLC  0     **** GLC X 6
     4 SEP2        3 GROUP        1 Y    SEP  0     ROOT SEP Y 9
     5 ASP3        6 GROUP        1 Y    ASP  0     **** ASP Y 10
     6 GLP5       15 GROUP        1 Y    GLP  0     **** GLP Y 13
     7 SEL2        2 GROUP        1 Z    SEL  0     ROOT SEL Z 16
     8 ASL3        5 GROUP        1 Z    ASL  0     **** ASL Z 17
     9 GLL5       14 GROUP        1 Z    GLL  0     **** GLL Z 20
@<TRIPOS>SET

