#    Name: 2pqz_G0G_1_ligand
#    Modification time : Mon Mar 24 19:18:08 2014

@<TRIPOS>MOLECULE
2pqz_G0G_1_ligand
   69    73     1     0     0
SMALL
NO_CHARGES


@<TRIPOS>ATOM
      1 O10        11.2410  -22.8170  -17.3600 O.2       1 G0G2501     0.0000 
      2 S8         11.1490  -22.5440  -18.7790 S.o2      1 G0G2501     0.0000 
      3 N28        11.4720  -20.8680  -19.0940 N.pl3     1 G0G2501     0.0000 
      4 C7         10.9500  -20.3150  -20.3600 C.3       1 G0G2501     0.0000 
      5 C12         9.6670  -19.4960  -20.2630 C.ar      1 G0G2501     0.0000 
      6 C13         8.6580  -19.7860  -19.3040 C.ar      1 G0G2501     0.0000 
      7 C29         7.4620  -19.0210  -19.2510 C.ar      1 G0G2501     0.0000 
      8 C31         7.2830  -17.9280  -20.1440 C.ar      1 G0G2501     0.0000 
      9 C30         8.2820  -17.6450  -21.1130 C.ar      1 G0G2501     0.0000 
     10 C14         9.4830  -18.3890  -21.1370 C.ar      1 G0G2501     0.0000 
     11 C23        12.3090  -20.1040  -18.1380 C.3       1 G0G2501     0.0000 
     12 C21        13.6900  -19.7650  -18.7680 C.3       1 G0G2501     0.0000 
     13 N22        13.9240  -18.3100  -18.6300 N.4       1 G0G2501     0.0000 
     14 C25        12.6150  -17.6520  -18.3440 C.3       1 G0G2501     0.0000 
     15 C24        11.7530  -18.7050  -17.6190 C.3       1 G0G2501     0.0000 
     16 N32        12.0140  -18.7490  -16.1130 N.pl3     1 G0G2501     0.0000 
     17 S9         10.6490  -19.0780  -15.1710 S.o2      1 G0G2501     0.0000 
     18 O11         9.8870  -20.2020  -15.7280 O.2       1 G0G2501     0.0000 
     19 C27         9.6740  -17.6360  -15.0480 C.ar      1 G0G2501     0.0000 
     20 C18         8.3470  -17.6650  -15.5880 C.ar      1 G0G2501     0.0000 
     21 C2          7.4950  -16.5340  -15.4930 C.ar      1 G0G2501     0.0000 
     22 C6          7.9830  -15.3590  -14.8910 C.ar      1 G0G2501     0.0000 
     23 C5          9.2990  -15.3370  -14.3430 C.ar      1 G0G2501     0.0000 
     24 C20        10.1670  -16.4590  -14.4320 C.ar      1 G0G2501     0.0000 
     25 O40        11.0800  -19.1760  -13.7600 O.2       1 G0G2501     0.0000 
     26 C33        13.3300  -18.5990  -15.4190 C.3       1 G0G2501     0.0000 
     27 C34        14.1160  -19.9160  -15.2890 C.ar      1 G0G2501     0.0000 
     28 C35        13.4650  -21.1020  -14.8650 C.ar      1 G0G2501     0.0000 
     29 C36        14.2470  -22.2880  -14.7550 C.ar      1 G0G2501     0.0000 
     30 C37        15.6250  -22.3090  -15.1090 C.ar      1 G0G2501     0.0000 
     31 C39        16.3030  -21.1030  -15.4740 C.ar      1 G0G2501     0.0000 
     32 C38        15.5040  -19.9410  -15.6250 C.ar      1 G0G2501     0.0000 
     33 O41         9.9520  -22.9130  -19.5530 O.2       1 G0G2501     0.0000 
     34 C26        12.5610  -23.1610  -19.6710 C.ar      1 G0G2501     0.0000 
     35 C19        13.7330  -23.5290  -18.9450 C.ar      1 G0G2501     0.0000 
     36 C3         14.9000  -23.9940  -19.6500 C.ar      1 G0G2501     0.0000 
     37 C4         14.8560  -24.0990  -21.0650 C.ar      1 G0G2501     0.0000 
     38 C1         13.6700  -23.7480  -21.7870 C.ar      1 G0G2501     0.0000 
     39 C17        12.5210  -23.3070  -21.0810 C.ar      1 G0G2501     0.0000 
     40 H          10.7728  -21.1445  -21.0899 H         1 G0G2501     0.0000 
     41 H          11.7302  -19.6740  -20.8424 H         1 G0G2501     0.0000 
     42 H           8.7956  -20.5562  -18.6433 H         1 G0G2501     0.0000 
     43 H           6.7367  -19.2529  -18.5782 H         1 G0G2501     0.0000 
     44 H           6.4473  -17.3555  -20.0881 H         1 G0G2501     0.0000 
     45 H           8.1285  -16.8994  -21.7945 H         1 G0G2501     0.0000 
     46 H          10.2301  -18.1322  -21.7880 H         1 G0G2501     0.0000 
     47 H          12.5338  -20.6932  -17.2442 H         1 G0G2501     0.0000 
     48 H          13.6645  -20.0579  -19.8089 H         1 G0G2501     0.0000 
     49 H          14.4463  -20.3322  -18.2425 H         1 G0G2501     0.0000 
     50 H          12.1234  -17.3720  -19.2549 H         1 G0G2501     0.0000 
     51 H          12.7474  -16.8087  -17.6950 H         1 G0G2501     0.0000 
     52 H          10.7669  -18.6420  -17.8533 H         1 G0G2501     0.0000 
     53 H           8.0143  -18.5167  -16.0478 H         1 G0G2501     0.0000 
     54 H           6.5489  -16.5771  -15.8553 H         1 G0G2501     0.0000 
     55 H           7.4040  -14.5227  -14.8430 H         1 G0G2501     0.0000 
     56 H           9.6284  -14.4830  -13.8696 H         1 G0G2501     0.0000 
     57 H          11.1028  -16.4167  -14.0680 H         1 G0G2501     0.0000 
     58 H          13.1755  -18.1893  -14.4057 H         1 G0G2501     0.0000 
     59 H          13.9607  -17.8744  -15.9627 H         1 G0G2501     0.0000 
     60 H          12.4858  -21.1093  -14.6487 H         1 G0G2501     0.0000 
     61 H          13.8034  -23.1504  -14.4109 H         1 G0G2501     0.0000 
     62 H          16.1381  -23.1916  -15.1036 H         1 G0G2501     0.0000 
     63 H          17.2871  -21.0866  -15.6137 H         1 G0G2501     0.0000 
     64 H          15.9392  -19.0765  -15.9922 H         1 G0G2501     0.0000 
     65 H          13.7504  -23.4654  -17.9334 H         1 G0G2501     0.0000 
     66 H          15.7329  -24.2394  -19.1364 H         1 G0G2501     0.0000 
     67 H          15.6755  -24.4276  -21.5784 H         1 G0G2501     0.0000 
     68 H          13.6574  -23.8164  -22.7993 H         1 G0G2501     0.0000 
     69 H          11.6623  -23.0941  -21.5904 H         1 G0G2501     0.0000 
@<TRIPOS>BOND
     1    2    1 2    
     2    3    2 1    
     3   33    2 2    
     4   34    2 1    
     5    4    3 1    
     6   11    3 1    
     7    5    4 1    
     8   40    4 1    
     9   41    4 1    
    10    6    5 ar   
    11   10    5 ar   
    12    7    6 ar   
    13   42    6 1    
    14    8    7 ar   
    15   43    7 1    
    16    9    8 ar   
    17   44    8 1    
    18   10    9 ar   
    19   45    9 1    
    20   46   10 1    
    21   12   11 1    
    22   15   11 1    
    23   47   11 1    
    24   13   12 1    
    25   48   12 1    
    26   49   12 1    
    27   14   13 1    
    28   15   14 1    
    29   50   14 1    
    30   51   14 1    
    31   16   15 1    
    32   52   15 1    
    33   17   16 1    
    34   26   16 1    
    35   18   17 2    
    36   19   17 1    
    37   25   17 2    
    38   20   19 ar   
    39   24   19 ar   
    40   21   20 ar   
    41   53   20 1    
    42   22   21 ar   
    43   54   21 1    
    44   23   22 ar   
    45   55   22 1    
    46   24   23 ar   
    47   56   23 1    
    48   57   24 1    
    49   27   26 1    
    50   58   26 1    
    51   59   26 1    
    52   28   27 ar   
    53   32   27 ar   
    54   29   28 ar   
    55   60   28 1    
    56   30   29 ar   
    57   61   29 1    
    58   31   30 ar   
    59   62   30 1    
    60   32   31 ar   
    61   63   31 1    
    62   64   32 1    
    63   35   34 ar   
    64   39   34 ar   
    65   36   35 ar   
    66   65   35 1    
    67   37   36 ar   
    68   66   36 1    
    69   38   37 ar   
    70   67   37 1    
    71   39   38 ar   
    72   68   38 1    
    73   69   39 1    
@<TRIPOS>SUBSTRUCTURE
     1 G0G2501     1 GROUP   
@<TRIPOS>SET

