#    Name: 3q87_SAM_1_INTS_M
#    Modification time : Tue Mar 25 09:03:35 2014

@<TRIPOS>MOLECULE
3q87_SAM_1_INTS_M
   73     0     9     0     0
SMALL
NO_CHARGES


@<TRIPOS>ATOM
      1 O          34.3000   16.9555   15.2280 O.2       1 ALC1        0.0000 
      2 O          33.9230   18.1800   14.7990 O.2       7 ALL1        0.0000 
      3 O          34.6770   15.7310   15.6570 O.2       4 ALP1        0.0000 
      4 O          33.7730   18.9675   16.3235 O.2       1 ALC1        0.0000 
      5 O          33.6230   19.7550   17.8480 O.2       4 ALP1        0.0000 
      6 O          32.6545   17.2050   14.8225 O.2       1 ALC1        0.0000 
      7 O          31.3860   16.2300   14.8460 O.2       4 ALP1        0.0000 
      8 N          33.1130   19.4445   11.4300 N.am      2 SEC2        0.0000 
      9 N          33.3890   19.9650   12.8290 N.am      8 SEL2        0.0000 
     10 N          32.8370   18.9240   10.0310 N.am      5 SEP2        0.0000 
     11 CA         33.5020   17.1515   11.6690 C.3       3 GLC5        0.0000 
     12 CA         35.4240   17.0240   12.0450 C.3       9 GLL5        0.0000 
     13 CA         31.5800   17.2790   11.2930 C.3       6 GLP5        0.0000 
     14 CA         37.7870   17.2225   10.7425 C.3       3 GLC5        0.0000 
     15 CA         36.6290   16.0250   11.0640 C.3       9 GLL5        0.0000 
     16 CA         38.9450   18.4200   10.4210 C.3       6 GLP5        0.0000 
     17 CA         37.2785   17.3320    8.7095 C.3       3 GLC5        0.0000 
     18 CA         35.9980   16.1820    9.3800 C.3       9 GLL5        0.0000 
     19 CA         38.5590   18.4820    8.0390 C.3       6 GLP5        0.0000 
     20 CA         34.3585   13.5050   10.6205 C.3       3 GLC5        0.0000 
     21 CA         36.1630   14.3150   11.4340 C.3       9 GLL5        0.0000 
     22 CA         32.5540   12.6950    9.8070 C.3       6 GLP5        0.0000 
     23 CA         35.4760   12.5625   10.6015 C.3       3 GLC5        0.0000 
     24 CA         34.7890   10.8100    9.7690 C.3       6 GLP5        0.0000 
     25 CA         35.6085   13.6560   14.4505 C.3       3 GLC5        0.0000 
     26 CA         36.6420   13.9620   12.8330 C.3       9 GLL5        0.0000 
     27 CA         34.5750   13.3500   16.0680 C.3       6 GLP5        0.0000 
     28 CA         38.9405   16.0105   12.3000 C.3       3 GLC5        0.0000 
     29 CA         38.1460   14.1190   13.0020 C.3       9 GLL5        0.0000 
     30 CA         39.7350   17.9020   11.5980 C.3       6 GLP5        0.0000 
     31 CA         39.8460   14.3650   11.9215 C.3       3 GLC5        0.0000 
     32 CA         41.5460   14.6110   10.8410 C.3       6 GLP5        0.0000 
     33 O          38.1330   14.4220   15.4585 O.2       1 ALC1        0.0000 
     34 O          38.3850   14.8370   14.1920 O.2       7 ALL1        0.0000 
     35 O          37.8810   14.0070   16.7250 O.2       4 ALP1        0.0000 
     36 CA         40.0340   12.4240   11.6705 C.3       3 GLC5        0.0000 
     37 CA         38.6650   12.7020   13.1420 C.3       9 GLL5        0.0000 
     38 CA         41.4030   12.1460   10.1990 C.3       6 GLP5        0.0000 
     39 O          39.5125   12.4505   15.2580 O.2       1 ALC1        0.0000 
     40 O          39.7750   12.5790   14.0010 O.2       7 ALL1        0.0000 
     41 O          39.2500   12.3220   16.5150 O.2       4 ALP1        0.0000 
     42 CA         36.0150   12.6775   14.8940 C.3       3 GLC5        0.0000 
     43 CA         37.4550   12.0050   13.7200 C.3       9 GLL5        0.0000 
     44 CA         36.2445    5.9145   15.9205 C.3       3 GLC5        0.0000 
     45 CA         36.3180    7.3720   14.2600 C.3       9 GLL5        0.0000 
     46 CA         36.1710    4.4570   17.5810 C.3       6 GLP5        0.0000 
     47 CA         34.3500    6.9155   14.0030 C.3       3 GLC5        0.0000 
     48 CA         32.3820    6.4590   13.7460 C.3       6 GLP5        0.0000 
     49 O          36.2160    4.8435   14.3195 O.2       1 ALC1        0.0000 
     50 O          36.3880    6.1680   13.7010 O.2       7 ALL1        0.0000 
     51 O          36.0440    3.5190   14.9380 O.2       4 ALP1        0.0000 
     52 N          34.9015    6.5220   16.1425 N.am      2 SEC2        0.0000 
     53 N          35.6880    7.5390   15.4820 N.am      8 SEL2        0.0000 
     54 N          34.1150    5.5050   16.8030 N.am      5 SEP2        0.0000 
     55 CA         33.5835    9.0730   16.8490 C.3       3 GLC5        0.0000 
     56 CA         35.5990    8.7870   16.0760 C.3       9 GLL5        0.0000 
     57 CA         31.5680    9.3590   17.6220 C.3       6 GLP5        0.0000 
     58 CA         36.5415   10.0580   17.4425 C.3       3 GLC5        0.0000 
     59 CA         37.4840   11.3290   18.8090 C.3       6 GLP5        0.0000 
     60 CA         37.6555    8.4300   16.0585 C.3       3 GLC5        0.0000 
     61 CA         39.7120    8.0730   16.0410 C.3       6 GLP5        0.0000 
     62 CA         34.1355    7.2255   16.3835 C.3       3 GLC5        0.0000 
     63 CA         32.6720    5.6640   16.6910 C.3       6 GLP5        0.0000 
     64 N          37.4870    9.7940   16.5140 N.am      2 SEC2        0.0000 
     65 N          36.1540    9.8710   15.4240 N.am      8 SEL2        0.0000 
     66 N          38.8200    9.7170   17.6040 N.am      5 SEP2        0.0000 
     67 CA         36.9333   18.0927   14.8245 C.3       3 GLC5        0.0000 
     68 CA         35.9430   17.7490   13.3120 C.3       9 GLL5        0.0000 
     69 CA         38.3630   17.9260   15.9500 C.3       6 GLP5        0.0000 
     70 CA         36.7883   18.3447   11.6372 C.3       3 GLC5        0.0000 
     71 CA         37.8930   19.3030   10.5960 C.3       6 GLP5        0.0000 
     72 CA         38.1991    8.4409   15.0617 C.3       3 GLC5        0.0000 
     73 CA         36.8750    8.4610   13.6140 C.3       9 GLL5        0.0000 
@<TRIPOS>BOND
@<TRIPOS>SUBSTRUCTURE
     1 ALC1        1 GROUP        1 X    ALC  0     ROOT ALC X 1
     2 SEC2        8 GROUP        1 X    SEC  0     **** SEC X 2
     3 GLC5       11 GROUP        1 X    GLC  0     **** GLC X 6
     4 ALP1        3 GROUP        1 Y    ALP  0     ROOT ALP Y 8
     5 SEP2       10 GROUP        1 Y    SEP  0     **** SEP Y 9
     6 GLP5       13 GROUP        1 Y    GLP  0     **** GLP Y 13
     7 ALL1        2 GROUP        1 Z    ALL  0     ROOT ALL Z 15
     8 SEL2        9 GROUP        1 Z    SEL  0     **** SEL Z 16
     9 GLL5       12 GROUP        1 Z    GLL  0     **** GLL Z 20
@<TRIPOS>SET

