#    Name: 3q87_SAM_1_ligand
#    Modification time : Tue Mar 25 09:03:35 2014

@<TRIPOS>MOLECULE
3q87_SAM_1_ligand
   50    52     1     0     0
SMALL
NO_CHARGES


@<TRIPOS>ATOM
      1 N          33.9230   18.1800   14.7990 N.4       1 SAM300      0.0000 
      2 CA         35.0640   18.7700   14.0860 C.3       1 SAM300      0.0000 
      3 C          34.5610   19.9160   13.1960 C.2       1 SAM300      0.0000 
      4 O          35.3050   20.8230   12.8210 O.co2     1 SAM300      0.0000 
      5 OXT        33.3890   19.9650   12.8290 O.co2     1 SAM300      0.0000 
      6 CB         35.9430   17.7490   13.3120 C.3       1 SAM300      0.0000 
      7 CG         35.4240   17.0240   12.0450 C.3       1 SAM300      0.0000 
      8 SD         36.6290   16.0250   11.0640 S.3       1 SAM300      0.0000 
      9 CE         35.9980   16.1820    9.3800 C.3       1 SAM300      0.0000 
     10 C5'        36.1630   14.3150   11.4340 C.3       1 SAM300      0.0000 
     11 C4'        36.6420   13.9620   12.8330 C.3       1 SAM300      0.0000 
     12 O4'        36.3280   12.6080   13.1150 O.3       1 SAM300      0.0000 
     13 C3'        38.1460   14.1190   13.0020 C.3       1 SAM300      0.0000 
     14 O3'        38.3850   14.8370   14.1920 O.3       1 SAM300      0.0000 
     15 C2'        38.6650   12.7020   13.1420 C.3       1 SAM300      0.0000 
     16 O2'        39.7750   12.5790   14.0010 O.3       1 SAM300      0.0000 
     17 C1'        37.4550   12.0050   13.7200 C.3       1 SAM300      0.0000 
     18 N9         37.3870   10.5880   13.3960 N.pl3     1 SAM300      0.0000 
     19 C8         37.8550    9.9230   12.2860 C.2       1 SAM300      0.0000 
     20 N7         37.5420    8.6160   12.4310 N.2       1 SAM300      0.0000 
     21 C5         36.8750    8.4610   13.6140 C.ar      1 SAM300      0.0000 
     22 C6         36.3180    7.3720   14.2600 C.ar      1 SAM300      0.0000 
     23 N6         36.3880    6.1680   13.7010 N.pl3     1 SAM300      0.0000 
     24 N1         35.6880    7.5390   15.4820 N.ar      1 SAM300      0.0000 
     25 C2         35.5990    8.7870   16.0760 C.ar      1 SAM300      0.0000 
     26 N3         36.1540    9.8710   15.4240 N.ar      1 SAM300      0.0000 
     27 C4         36.7760    9.7010   14.2280 C.ar      1 SAM300      0.0000 
     28 H          35.7327   19.2519   14.8456 H         1 SAM300      0.0000 
     29 H          36.2796   16.9574   14.0502 H         1 SAM300      0.0000 
     30 H          36.9132   18.2684   13.0404 H         1 SAM300      0.0000 
     31 H          35.0402   17.7108   11.2876 H         1 SAM300      0.0000 
     32 H          34.6515   16.2837   12.2634 H         1 SAM300      0.0000 
     33 H          36.6498   13.7748   10.6649 H         1 SAM300      0.0000 
     34 H          35.1095   14.3395   11.3348 H         1 SAM300      0.0000 
     35 H          36.1543   14.6182   13.5432 H         1 SAM300      0.0000 
     36 H          38.5436   14.5575   12.1411 H         1 SAM300      0.0000 
     37 H          38.8184   12.3098   12.1609 H         1 SAM300      0.0000 
     38 H          37.4354   12.1585   14.7779 H         1 SAM300      0.0000 
     39 H          38.3160   10.3252   11.5531 H         1 SAM300      0.0000 
     40 H          35.9812    5.4170   14.2212 H         1 SAM300      0.0000 
     41 H          36.8411    6.1219   12.8107 H         1 SAM300      0.0000 
     42 H          35.1326    8.9017   16.9771 H         1 SAM300      0.0000 
     43 H          34.2052   17.4256   15.3917 H         1 SAM300      0.0000 
     44 H          33.4602   18.8507   15.3786 H         1 SAM300      0.0000 
     45 H          33.2383   17.8162   14.1675 H         1 SAM300      0.0000 
     46 H          36.6480   15.8316    8.7057 H         1 SAM300      0.0000 
     47 H          35.1444   15.6764    9.2546 H         1 SAM300      0.0000 
     48 H          35.8122   17.1349    9.1403 H         1 SAM300      0.0000 
     49 H          38.1527   14.2018   14.9285 H         1 SAM300      0.0000 
     50 H          39.4673   12.9520   14.8763 H         1 SAM300      0.0000 
@<TRIPOS>BOND
     1    2    1 1    
     2   43    1 1    
     3   44    1 1    
     4   45    1 1    
     5    3    2 1    
     6    6    2 1    
     7   28    2 1    
     8    4    3 ar   
     9    5    3 ar   
    10    7    6 1    
    11   29    6 1    
    12   30    6 1    
    13    8    7 1    
    14   31    7 1    
    15   32    7 1    
    16    9    8 1    
    17   10    8 1    
    18   46    9 1    
    19   47    9 1    
    20   48    9 1    
    21   11   10 1    
    22   33   10 1    
    23   34   10 1    
    24   12   11 1    
    25   13   11 1    
    26   35   11 1    
    27   17   12 1    
    28   14   13 1    
    29   15   13 1    
    30   36   13 1    
    31   49   14 1    
    32   16   15 1    
    33   17   15 1    
    34   37   15 1    
    35   50   16 1    
    36   18   17 1    
    37   38   17 1    
    38   19   18 1    
    39   27   18 1    
    40   20   19 2    
    41   39   19 1    
    42   21   20 1    
    43   22   21 ar   
    44   27   21 ar   
    45   23   22 1    
    46   24   22 ar   
    47   40   23 1    
    48   41   23 1    
    49   25   24 ar   
    50   26   25 ar   
    51   42   25 1    
    52   27   26 ar   
@<TRIPOS>SUBSTRUCTURE
     1 SAM300      1 GROUP   
@<TRIPOS>SET

