#    Name: 3qtw_X3A_1_INTS_M
#    Modification time : Tue Mar 25 10:08:27 2014

@<TRIPOS>MOLECULE
3qtw_X3A_1_INTS_M
   57     0     9     0     0
SMALL
NO_CHARGES


@<TRIPOS>ATOM
      1 N          91.2970   11.1070  -88.0905 N.am      2 SEC2        0.0000 
      2 N          92.3700   10.3700  -86.9760 N.am      8 SEL2        0.0000 
      3 N          90.2240   11.8440  -89.2050 N.am      5 SEP2        0.0000 
      4 O          93.8060   10.4250  -89.7105 O.2       1 ALC1        0.0000 
      5 O          93.9080    9.7100  -88.5750 O.2       7 ALL1        0.0000 
      6 O          93.7040   11.1400  -90.8460 O.2       4 ALP1        0.0000 
      7 CA         96.2170    8.8980  -84.3295 C.3       3 GLC5        0.0000 
      8 CA         95.5550    7.0720  -85.2750 C.3       9 GLL5        0.0000 
      9 CA         96.8790   10.7240  -83.3840 C.3       6 GLP5        0.0000 
     10 CA         97.4405    7.9060  -83.4740 C.3       3 GLC5        0.0000 
     11 CA         96.9630    6.8970  -84.9710 C.3       9 GLL5        0.0000 
     12 CA         97.9180    8.9150  -81.9770 C.3       6 GLP5        0.0000 
     13 CA         98.9110    7.0085  -84.6400 C.3       3 GLC5        0.0000 
     14 CA        100.8590    7.1200  -84.3090 C.3       6 GLP5        0.0000 
     15 CA         97.0820    4.8550  -85.1405 C.3       3 GLC5        0.0000 
     16 CA         97.2010    2.8130  -85.3100 C.3       6 GLP5        0.0000 
     17 N          98.6955    5.4920  -83.6875 N.am      2 SEC2        0.0000 
     18 N          97.3350    6.0390  -83.9240 N.am      8 SEL2        0.0000 
     19 N         100.0560    4.9450  -83.4510 N.am      5 SEP2        0.0000 
     20 CA         97.3620    4.9280  -81.1765 C.3       3 GLC5        0.0000 
     21 CA         96.4100    5.3280  -83.1400 C.3       9 GLL5        0.0000 
     22 CA         98.3140    4.5280  -79.2130 C.3       6 GLP5        0.0000 
     23 CA         97.1640    7.1215  -82.5585 C.3       3 GLC5        0.0000 
     24 CA         92.5170    6.4620  -85.2355 C.3       3 GLC5        0.0000 
     25 CA         94.5920    6.3280  -84.4650 C.3       9 GLL5        0.0000 
     26 CA         90.4420    6.5960  -86.0060 C.3       6 GLP5        0.0000 
     27 CA         93.2705   10.8370  -84.0405 C.3       3 GLC5        0.0000 
     28 CA         93.0330    9.0570  -84.8740 C.3       9 GLL5        0.0000 
     29 CA         93.5080   12.6170  -83.2070 C.3       6 GLP5        0.0000 
     30 CA         94.9560    9.8905  -84.1290 C.3       3 GLC5        0.0000 
     31 CA         91.7375    7.8265  -85.4400 C.3       3 GLC5        0.0000 
     32 O          89.9750   11.3755  -86.0340 O.2       1 ALC1        0.0000 
     33 O          90.9390   10.8670  -85.1920 O.2       7 ALL1        0.0000 
     34 O          89.0110   11.8840  -86.8760 O.2       4 ALP1        0.0000 
     35 CA         87.8325   12.2005  -85.1000 C.3       3 GLC5        0.0000 
     36 CA         89.2110   11.7450  -83.7240 C.3       9 GLL5        0.0000 
     37 CA         86.4540   12.6560  -86.4760 C.3       6 GLP5        0.0000 
     38 CA         94.6623   10.7308  -86.9772 C.3       3 GLC5        0.0000 
     39 CA         93.9520    8.8320  -86.3000 C.3       9 GLL5        0.0000 
     40 CA         95.6310   12.2270  -87.1420 C.3       6 GLP5        0.0000 
     41 CA         92.6493    8.1508  -87.4952 C.3       3 GLC5        0.0000 
     42 CA         93.4350    9.6370  -87.3250 C.3       9 GLL5        0.0000 
     43 CA         91.6050    7.0670  -88.1780 C.3       6 GLP5        0.0000 
     44 CA         94.4652    5.4535  -86.4605 C.3       3 GLC5        0.0000 
     45 CA         93.8570    4.2070  -88.0510 C.3       6 GLP5        0.0000 
     46 CA         96.1764    4.3370  -84.5886 C.3       3 GLC5        0.0000 
     47 CA         95.0130    5.4600  -83.3990 C.3       9 GLL5        0.0000 
     48 CA         87.3162   10.6753  -83.7395 C.3       3 GLC5        0.0000 
     49 CA         85.7540    9.5820  -84.3910 C.3       6 GLP5        0.0000 
     50 CA         91.1905   11.7003  -81.1100 C.3       3 GLC5        0.0000 
     51 CA         88.9940   10.9480  -81.3650 C.3       9 GLL5        0.0000 
     52 CA         92.8300   12.8990  -80.7650 C.3       6 GLP5        0.0000 
     53 CA         88.5975    9.7988  -79.7790 C.3       3 GLC5        0.0000 
     54 CA         90.1080   10.0550  -81.5450 C.3       9 GLL5        0.0000 
     55 CA         87.6440    9.0960  -78.1030 C.3       6 GLP5        0.0000 
     56 CA         91.8926   11.6353  -83.2634 C.3       3 GLC5        0.0000 
     57 CA         90.7770   10.0070  -82.8090 C.3       9 GLL5        0.0000 
@<TRIPOS>BOND
@<TRIPOS>SUBSTRUCTURE
     1 ALC1        4 GROUP        1 X    ALC  0     ROOT ALC X 1
     2 SEC2        1 GROUP        1 X    SEC  0     **** SEC X 2
     3 GLC5        7 GROUP        1 X    GLC  0     **** GLC X 6
     4 ALP1        6 GROUP        1 Y    ALP  0     ROOT ALP Y 8
     5 SEP2        3 GROUP        1 Y    SEP  0     **** SEP Y 9
     6 GLP5        9 GROUP        1 Y    GLP  0     **** GLP Y 13
     7 ALL1        5 GROUP        1 Z    ALL  0     ROOT ALL Z 15
     8 SEL2        2 GROUP        1 Z    SEL  0     **** SEL Z 16
     9 GLL5        8 GROUP        1 Z    GLL  0     **** GLL Z 20
@<TRIPOS>SET

