#    Name: 3qtw_X3A_1_ligand
#    Modification time : Tue Mar 25 10:08:27 2014

@<TRIPOS>MOLECULE
3qtw_X3A_1_ligand
   33    35     1     0     0
SMALL
NO_CHARGES


@<TRIPOS>ATOM
      1 N1         92.3700   10.3700  -86.9760 N.2       1 X3A451      0.0000 
      2 C2         93.4350    9.6370  -87.3250 C.2       1 X3A451      0.0000 
      3 N3         93.9080    9.7100  -88.5750 N.pl3     1 X3A451      0.0000 
      4 C4         93.9520    8.8320  -86.3000 C.2       1 X3A451      0.0000 
      5 C5         95.0470    7.9600  -86.3890 C.2       1 X3A451      0.0000 
      6 C6         95.5550    7.0720  -85.2750 C.ar      1 X3A451      0.0000 
      7 C7         96.9630    6.8970  -84.9710 C.ar      1 X3A451      0.0000 
      8 N8         97.3350    6.0390  -83.9240 N.ar      1 X3A451      0.0000 
      9 C9         96.4100    5.3280  -83.1400 C.ar      1 X3A451      0.0000 
     10 C10        95.0130    5.4600  -83.3990 C.ar      1 X3A451      0.0000 
     11 C11        94.5920    6.3280  -84.4650 C.ar      1 X3A451      0.0000 
     12 O12        95.7190    7.8530  -87.5460 O.2       1 X3A451      0.0000 
     13 S13        93.0330    9.0570  -84.8740 S.3       1 X3A451      0.0000 
     14 C14        92.0250   10.1750  -85.7000 C.2       1 X3A451      0.0000 
     15 N15        90.9390   10.8670  -85.1920 N.pl3     1 X3A451      0.0000 
     16 C16        90.3440   10.8550  -83.9370 C.ar      1 X3A451      0.0000 
     17 C17        89.2110   11.7450  -83.7240 C.ar      1 X3A451      0.0000 
     18 C18        88.5460   11.7920  -82.4520 C.ar      1 X3A451      0.0000 
     19 C19        88.9940   10.9480  -81.3650 C.ar      1 X3A451      0.0000 
     20 C20        90.1080   10.0550  -81.5450 C.ar      1 X3A451      0.0000 
     21 C21        90.7770   10.0070  -82.8090 C.ar      1 X3A451      0.0000 
     22 H          94.7171    9.1565  -88.7723 H         1 X3A451      0.0000 
     23 H          93.4099   10.3115  -89.1995 H         1 X3A451      0.0000 
     24 H          97.6503    7.3956  -85.5181 H         1 X3A451      0.0000 
     25 H          96.7260    4.7188  -82.3881 H         1 X3A451      0.0000 
     26 H          94.3358    4.9604  -82.8523 H         1 X3A451      0.0000 
     27 H          93.5974    6.4344  -84.6695 H         1 X3A451      0.0000 
     28 H          90.4548   11.5570  -85.9181 H         1 X3A451      0.0000 
     29 H          88.8951   12.3340  -84.4872 H         1 X3A451      0.0000 
     30 H          87.7610   12.4157  -82.3103 H         1 X3A451      0.0000 
     31 H          88.5167   10.9889  -80.4708 H         1 X3A451      0.0000 
     32 H          90.4129    9.4674  -80.7819 H         1 X3A451      0.0000 
     33 H          91.5672    9.3837  -82.9522 H         1 X3A451      0.0000 
@<TRIPOS>BOND
     1    2    1 1    
     2   14    1 2    
     3    3    2 1    
     4    4    2 2    
     5   22    3 1    
     6   23    3 1    
     7    5    4 1    
     8   13    4 1    
     9    6    5 1    
    10   12    5 2    
    11    7    6 ar   
    12   11    6 ar   
    13    8    7 ar   
    14   24    7 1    
    15    9    8 ar   
    16   10    9 ar   
    17   25    9 1    
    18   11   10 ar   
    19   26   10 1    
    20   27   11 1    
    21   14   13 1    
    22   15   14 1    
    23   16   15 1    
    24   28   15 1    
    25   17   16 ar   
    26   21   16 ar   
    27   18   17 ar   
    28   29   17 1    
    29   19   18 ar   
    30   30   18 1    
    31   20   19 ar   
    32   31   19 1    
    33   21   20 ar   
    34   32   20 1    
    35   33   21 1    
@<TRIPOS>SUBSTRUCTURE
     1 X3A451      1 GROUP   
@<TRIPOS>SET

