#    Name: 2xpc_051_1_INTS_M
#    Modification time : Tue Mar 25 06:29:06 2014

@<TRIPOS>MOLECULE
2xpc_051_1_INTS_M
   63     0     9     0     0
SMALL
NO_CHARGES


@<TRIPOS>ATOM
      1 N          21.9645   35.6820   45.8085 N.am      1 SEC2        0.0000 
      2 N          21.6620   34.4520   46.6590 N.am      7 SEL2        0.0000 
      3 N          22.2670   36.9120   44.9580 N.am      4 SEP2        0.0000 
      4 CA         22.1915   33.8685   48.1335 C.3       3 GLC5        0.0000 
      5 CA         20.5700   34.4340   47.0450 C.3       9 GLL5        0.0000 
      6 CA         23.8130   33.3030   49.2220 C.3       6 GLP5        0.0000 
      7 CA         21.6720   36.1875   47.0680 C.3       3 GLC5        0.0000 
      8 CA         22.7740   37.9410   47.0910 C.3       6 GLP5        0.0000 
      9 CA         21.6805   34.4155   45.2200 C.3       3 GLC5        0.0000 
     10 CA         22.7910   34.3970   43.3950 C.3       6 GLP5        0.0000 
     11 CA         21.6790   32.5560   46.4965 C.3       3 GLC5        0.0000 
     12 CA         22.7880   30.6780   45.9480 C.3       6 GLP5        0.0000 
     13 CA          8.7385   32.2380   47.4720 C.3       3 GLC5        0.0000 
     14 CA          7.8240   31.3700   48.9230 C.3       9 GLL5        0.0000 
     15 CA          9.6530   33.1060   46.0210 C.3       6 GLP5        0.0000 
     16 CA          4.6605   31.5600   50.3770 C.3       3 GLC5        0.0000 
     17 CA          6.3610   30.9510   49.1420 C.3       9 GLL5        0.0000 
     18 CA          2.9600   32.1690   51.6120 C.3       6 GLP5        0.0000 
     19 N           4.1395   33.7740   49.2125 N.am      1 SEC2        0.0000 
     20 N           5.2820   33.0190   49.3070 N.am      7 SEL2        0.0000 
     21 N           2.9970   34.5290   49.1180 N.am      4 SEP2        0.0000 
     22 N           4.5080   31.5530   46.0815 N.am      1 SEC2        0.0000 
     23 N           4.8720   31.7690   47.4960 N.am      7 SEL2        0.0000 
     24 N           4.1440   31.3370   44.6670 N.am      4 SEP2        0.0000 
     25 N           4.3460   32.8775   46.8090 N.am      1 SEC2        0.0000 
     26 N           3.8200   33.9860   46.1220 N.am      4 SEP2        0.0000 
     27 CA          4.1815   28.8570   48.5585 C.3       3 GLC5        0.0000 
     28 CA          6.0340   29.5550   48.5770 C.3       9 GLL5        0.0000 
     29 CA          2.3290   28.1590   48.5400 C.3       6 GLP5        0.0000 
     30 CA          6.0125   29.1970   46.6785 C.3       3 GLC5        0.0000 
     31 CA          5.9910   28.8390   44.7800 C.3       6 GLP5        0.0000 
     32 NZ          6.5045   25.5430   47.9720 N.4       2 LYC4        0.0000 
     33 NZ          7.0870   26.3140   49.6110 N.4       8 LYL4        0.0000 
     34 NZ          5.9220   24.7720   46.3330 N.4       5 LYP4        0.0000 
     35 NZ          6.1365   25.9120   47.0105 N.4       2 LYC4        0.0000 
     36 NZ          6.3510   27.0520   47.6880 N.4       8 LYL4        0.0000 
     37 N           6.1365   25.9120   47.0105 N.am      1 SEC2        0.0000 
     38 N           6.3510   27.0520   47.6880 N.am      7 SEL2        0.0000 
     39 N           5.9220   24.7720   46.3330 N.am      4 SEP2        0.0000 
     40 CA         20.3897   35.2830   49.1875 C.3       3 GLC5        0.0000 
     41 CA         19.3770   34.3900   47.5450 C.3       9 GLL5        0.0000 
     42 CA         20.8060   36.1540   51.0800 C.3       6 GLP5        0.0000 
     43 CA         16.5569   36.6912   46.1097 C.3       3 GLC5        0.0000 
     44 CA         15.9530   35.2620   46.6420 C.3       9 GLL5        0.0000 
     45 CA         16.3090   38.3320   45.3610 C.3       6 GLP5        0.0000 
     46 CA         19.6755   35.0183   50.0917 C.3       3 GLC5        0.0000 
     47 CA         17.9060   33.8680   49.3770 C.3       9 GLL5        0.0000 
     48 CA         18.9595   33.1187   50.6883 C.3       3 GLC5        0.0000 
     49 CA         19.1840   33.8970   48.8300 C.3       9 GLL5        0.0000 
     50 CA         19.3740   32.3550   52.2730 C.3       6 GLP5        0.0000 
     51 CA         17.1085   32.0540   49.1770 C.3       3 GLC5        0.0000 
     52 CA         16.8450   30.0050   49.3520 C.3       6 GLP5        0.0000 
     53 CA         15.5612   31.2662   49.4792 C.3       3 GLC5        0.0000 
     54 CA         14.5590   32.6010   50.2460 C.3       9 GLL5        0.0000 
     55 CA         14.9340   30.4413   49.2590 C.3       3 GLC5        0.0000 
     56 CA         13.1540   31.3640   48.6680 C.3       9 GLL5        0.0000 
     57 CA         10.9127   31.8923   46.6360 C.3       3 GLC5        0.0000 
     58 CA         12.6000   31.2170   47.3910 C.3       9 GLL5        0.0000 
     59 CA         14.9730   30.3027   52.6162 C.3       3 GLC5        0.0000 
     60 CA         13.4820   30.5350   50.9100 C.3       9 GLL5        0.0000 
     61 CA         16.0490   29.5230   54.1690 C.3       6 GLP5        0.0000 
     62 CA         15.3710   30.5437   50.2077 C.3       3 GLC5        0.0000 
     63 CA         14.3120   31.6300   51.2170 C.3       9 GLL5        0.0000 
@<TRIPOS>BOND
@<TRIPOS>SUBSTRUCTURE
     1 SEC2        1 GROUP        1 X    SEC  0     ROOT SEC X 2
     2 LYC4       32 GROUP        1 X    LYC  0     **** LYC X 4
     3 GLC5        4 GROUP        1 X    GLC  0     **** GLC X 6
     4 SEP2        3 GROUP        1 Y    SEP  0     ROOT SEP Y 9
     5 LYP4       34 GROUP        1 Y    LYP  0     **** LYP Y 11
     6 GLP5        6 GROUP        1 Y    GLP  0     **** GLP Y 13
     7 SEL2        2 GROUP        1 Z    SEL  0     ROOT SEL Z 16
     8 LYL4       33 GROUP        1 Z    LYL  0     **** LYL Z 18
     9 GLL5        5 GROUP        1 Z    GLL  0     **** GLL Z 20
@<TRIPOS>SET

