#    Name: 2xpc_051_1_ligand
#    Modification time : Tue Mar 25 06:29:07 2014

@<TRIPOS>MOLECULE
2xpc_051_1_ligand
   58    61     1     0     0
SMALL
NO_CHARGES


@<TRIPOS>ATOM
      1 N30        21.6620   34.4520   46.6590 N.1       1 051500      0.0000 
      2 C30        20.5700   34.4340   47.0450 C.1       1 051500      0.0000 
      3 C27        19.3770   34.3900   47.5450 C.ar      1 051500      0.0000 
      4 C26        18.2940   34.8570   46.8040 C.ar      1 051500      0.0000 
      5 C25        17.0190   34.8210   47.3460 C.ar      1 051500      0.0000 
      6 F25        15.9530   35.2620   46.6420 F         1 051500      0.0000 
      7 C28        19.1840   33.8970   48.8300 C.ar      1 051500      0.0000 
      8 C29        17.9060   33.8680   49.3770 C.ar      1 051500      0.0000 
      9 C24        16.8380   34.3380   48.6270 C.ar      1 051500      0.0000 
     10 C23        15.4910   34.3480   49.2360 C.3       1 051500      0.0000 
     11 O22        15.2960   33.7410   50.5430 O.3       1 051500      0.0000 
     12 C20        14.5590   32.6010   50.2460 C.ar      1 051500      0.0000 
     13 C21        13.9960   32.4540   48.9670 C.ar      1 051500      0.0000 
     14 C15        13.1540   31.3640   48.6680 C.ar      1 051500      0.0000 
     15 C14        12.6000   31.2170   47.3910 C.ar      1 051500      0.0000 
     16 C13        11.7450   30.1400   47.1110 C.ar      1 051500      0.0000 
     17 C19        14.3120   31.6300   51.2170 C.ar      1 051500      0.0000 
     18 C18        13.4820   30.5350   50.9100 C.ar      1 051500      0.0000 
     19 C16        12.8920   30.3910   49.6640 C.ar      1 051500      0.0000 
     20 C17        12.0870   29.2850   49.3450 C.ar      1 051500      0.0000 
     21 C12        11.4910   29.1560   48.0770 C.ar      1 051500      0.0000 
     22 S11        10.4330   27.9730   47.6600 S.o2      1 051500      0.0000 
     23 O32        10.5270   27.5510   46.2550 O.2       1 051500      0.0000 
     24 O33        10.4780   26.8760   48.6560 O.2       1 051500      0.0000 
     25 N           9.0530   28.6860   47.7600 N.pl3     1 051500      0.0000 
     26 C1          8.3880   28.9830   49.0400 C.3       1 051500      0.0000 
     27 C3          8.6760   30.3440   49.6830 C.3       1 051500      0.0000 
     28 C6          7.8240   31.3700   48.9230 C.3       1 051500      0.0000 
     29 C4          6.3610   30.9510   49.1420 C.3       1 051500      0.0000 
     30 C8          5.4350   31.9900   48.5960 C.2       1 051500      0.0000 
     31 O4          5.2820   33.0190   49.3070 O.co2     1 051500      0.0000 
     32 O3          4.8720   31.7690   47.4960 O.co2     1 051500      0.0000 
     33 C5          6.0340   29.5550   48.5770 C.3       1 051500      0.0000 
     34 C2          6.9940   28.5430   49.2020 C.3       1 051500      0.0000 
     35 C7          6.7950   27.2520   48.8220 C.2       1 051500      0.0000 
     36 O1          7.0870   26.3140   49.6110 O.co2     1 051500      0.0000 
     37 O2          6.3510   27.0520   47.6880 O.co2     1 051500      0.0000 
     38 H          18.4435   35.2273   45.8567 H         1 051500      0.0000 
     39 H          19.9848   33.5542   49.3756 H         1 051500      0.0000 
     40 H          17.7567   33.5040   50.3217 H         1 051500      0.0000 
     41 H          14.7647   33.8755   48.4954 H         1 051500      0.0000 
     42 H          15.1265   35.4275   49.2702 H         1 051500      0.0000 
     43 H          14.2000   33.1505   48.2375 H         1 051500      0.0000 
     44 H          12.8189   31.8986   46.6555 H         1 051500      0.0000 
     45 H          11.2993   30.0721   46.1853 H         1 051500      0.0000 
     46 H          14.7282   31.7080   52.1469 H         1 051500      0.0000 
     47 H          13.3126   29.8195   51.6445 H         1 051500      0.0000 
     48 H          11.9289   28.5516   50.0543 H         1 051500      0.0000 
     49 H           8.6182   28.9450   46.8828 H         1 051500      0.0000 
     50 H           8.9731   28.2450   49.8209 H         1 051500      0.0000 
     51 H           9.7114   30.5838   49.5682 H         1 051500      0.0000 
     52 H           8.3815   30.3255   50.7104 H         1 051500      0.0000 
     53 H           8.0554   31.3279   47.8823 H         1 051500      0.0000 
     54 H           7.9821   32.3421   49.3335 H         1 051500      0.0000 
     55 H           6.2008   30.9030   50.2388 H         1 051500      0.0000 
     56 H           6.1649   29.5666   47.5078 H         1 051500      0.0000 
     57 H           5.0195   29.2985   48.8330 H         1 051500      0.0000 
     58 H           6.7876   28.6359   50.3312 H         1 051500      0.0000 
@<TRIPOS>BOND
     1    2    1 3    
     2    3    2 1    
     3    4    3 ar   
     4    7    3 ar   
     5    5    4 ar   
     6   38    4 1    
     7    6    5 1    
     8    9    5 ar   
     9    8    7 ar   
    10   39    7 1    
    11    9    8 ar   
    12   40    8 1    
    13   10    9 1    
    14   11   10 1    
    15   41   10 1    
    16   42   10 1    
    17   12   11 1    
    18   13   12 ar   
    19   17   12 ar   
    20   14   13 ar   
    21   43   13 1    
    22   15   14 ar   
    23   19   14 ar   
    24   16   15 ar   
    25   44   15 1    
    26   21   16 ar   
    27   45   16 1    
    28   18   17 ar   
    29   46   17 1    
    30   19   18 ar   
    31   47   18 1    
    32   20   19 ar   
    33   21   20 ar   
    34   48   20 1    
    35   22   21 1    
    36   23   22 2    
    37   24   22 2    
    38   25   22 1    
    39   26   25 1    
    40   49   25 1    
    41   27   26 1    
    42   34   26 1    
    43   50   26 1    
    44   28   27 1    
    45   51   27 1    
    46   52   27 1    
    47   29   28 1    
    48   53   28 1    
    49   54   28 1    
    50   30   29 1    
    51   33   29 1    
    52   55   29 1    
    53   31   30 ar   
    54   32   30 ar   
    55   34   33 1    
    56   56   33 1    
    57   57   33 1    
    58   35   34 1    
    59   58   34 1    
    60   36   35 ar   
    61   37   35 ar   
@<TRIPOS>SUBSTRUCTURE
     1 051500      1 GROUP   
@<TRIPOS>SET

