#    Name: 1v93_FAD_1_INTS_M
#    Modification time : Tue Mar 25 07:32:42 2014

@<TRIPOS>MOLECULE
1v93_FAD_1_INTS_M
  107     0    12     0     0
SMALL
NO_CHARGES


@<TRIPOS>ATOM
      1 NZ         79.6295  107.3785   54.2755 N.4       3 LYC4        0.0000 
      2 NZ         80.0030  107.4550   52.9380 N.4      11 LYL4        0.0000 
      3 NZ         79.2560  107.3020   55.6130 N.4       7 LYP4        0.0000 
      4 N          79.6295  107.3785   54.2755 N.am      2 SEC2        0.0000 
      5 N          80.0030  107.4550   52.9380 N.am     10 SEL2        0.0000 
      6 N          79.2560  107.3020   55.6130 N.am      6 SEP2        0.0000 
      7 N          80.1765  104.5610   50.9850 N.am      2 SEC2        0.0000 
      8 N          80.7110  105.9280   51.0210 N.am     10 SEL2        0.0000 
      9 N          79.6420  103.1940   50.9490 N.am      6 SEP2        0.0000 
     10 CA         83.5160  106.4360   49.7745 C.3       4 GLC5        0.0000 
     11 CA         82.7770  108.1980   50.3740 C.3      12 GLL5        0.0000 
     12 CA         84.2550  104.6740   49.1750 C.3       8 GLP5        0.0000 
     13 CA         83.6755  111.2755   51.2975 C.3       4 GLC5        0.0000 
     14 CA         82.3170  110.7770   50.0750 C.3      12 GLL5        0.0000 
     15 CA         85.0340  111.7740   52.5200 C.3       8 GLP5        0.0000 
     16 N          82.5460  113.1860   50.0130 N.am      2 SEC2        0.0000 
     17 N          83.0890  111.8600   49.6110 N.am     10 SEL2        0.0000 
     18 N          82.0030  114.5120   50.4150 N.am      6 SEP2        0.0000 
     19 O          84.4015  111.8275   50.4660 O.2       1 ALC1        0.0000 
     20 O          83.0890  111.8600   49.6110 O.2       9 ALL1        0.0000 
     21 O          85.7140  111.7950   51.3210 O.2       5 ALP1        0.0000 
     22 CA         78.8320  111.2240   49.9100 C.3       4 GLC5        0.0000 
     23 CA         80.8530  110.8890   49.7440 C.3      12 GLL5        0.0000 
     24 CA         76.8110  111.5590   50.0760 C.3       8 GLP5        0.0000 
     25 N          79.2070  112.3875   48.9570 N.am      2 SEC2        0.0000 
     26 N          80.2980  112.2080   49.7530 N.am     10 SEL2        0.0000 
     27 N          78.1160  112.5670   48.1610 N.am      6 SEP2        0.0000 
     28 O          81.1505  113.3600   50.0840 O.2       1 ALC1        0.0000 
     29 O          80.2980  112.2080   49.7530 O.2       9 ALL1        0.0000 
     30 O          82.0030  114.5120   50.4150 O.2       5 ALP1        0.0000 
     31 CA         78.8360  111.1705   48.5490 C.3       4 GLC5        0.0000 
     32 CA         80.7510  110.1910   48.3920 C.3      12 GLL5        0.0000 
     33 CA         76.9210  112.1500   48.7060 C.3       8 GLP5        0.0000 
     34 CA         76.3815  110.5900   46.8350 C.3       4 GLC5        0.0000 
     35 CA         76.7890  108.7790   45.9000 C.3      12 GLL5        0.0000 
     36 CA         75.9740  112.4010   47.7700 C.3       8 GLP5        0.0000 
     37 CA         77.1500  111.2660   46.2435 C.3       4 GLC5        0.0000 
     38 CA         78.3260  110.1310   44.7170 C.3      12 GLL5        0.0000 
     39 O          89.6420   99.8530   58.3245 O.2       1 ALC1        0.0000 
     40 O          88.8870  101.0870   58.2840 O.2       9 ALL1        0.0000 
     41 O          90.3970   98.6190   58.3650 O.2       5 ALP1        0.0000 
     42 N          88.4840   99.3730   60.6120 N.am      2 SEC2        0.0000 
     43 N          87.9350  100.6060   60.3220 N.am     10 SEL2        0.0000 
     44 N          89.0330   98.1400   60.9020 N.am      6 SEP2        0.0000 
     45 CA         83.3170  107.1235   64.3730 C.3       4 GLC5        0.0000 
     46 CA         84.1960  106.5930   62.8820 C.3      12 GLL5        0.0000 
     47 CA         82.4380  107.6540   65.8640 C.3       8 GLP5        0.0000 
     48 CA         85.6610  107.4940   64.1345 C.3       4 GLC5        0.0000 
     49 CA         87.1260  108.3950   65.3870 C.3       8 GLP5        0.0000 
     50 CA         84.9470  109.7110   58.8710 C.3       4 GLC5        0.0000 
     51 CA         84.8320  108.5850   60.6240 C.3      12 GLL5        0.0000 
     52 CA         85.0620  110.8370   57.1180 C.3       8 GLP5        0.0000 
     53 CA         85.2425  110.1905   61.3870 C.3       4 GLC5        0.0000 
     54 CA         85.6530  111.7960   62.1500 C.3       8 GLP5        0.0000 
     55 CA         85.2105  104.7815   57.1515 C.3       4 GLC5        0.0000 
     56 CA         86.8380  105.7990   55.9900 C.3      12 GLL5        0.0000 
     57 CA         83.5830  103.7640   58.3130 C.3       8 GLP5        0.0000 
     58 CA         87.1345  104.1840   54.5485 C.3       4 GLC5        0.0000 
     59 CA         87.4310  102.5690   53.1070 C.3       8 GLP5        0.0000 
     60 O          85.7690  108.3740   55.9280 O.2       1 ALC1        0.0000 
     61 O          87.0300  108.1220   55.4490 O.2       9 ALL1        0.0000 
     62 O          84.5080  108.6260   56.4070 O.2       5 ALP1        0.0000 
     63 CA         87.0520  104.6015   53.3365 C.3       4 GLC5        0.0000 
     64 CA         86.6730  106.6340   53.5660 C.3      12 GLL5        0.0000 
     65 CA         88.3610  105.7540   52.5825 C.3       4 GLC5        0.0000 
     66 CA         90.0490  104.8740   51.5990 C.3       8 GLP5        0.0000 
     67 N          87.1810  107.2575   51.1620 N.am      2 SEC2        0.0000 
     68 N          87.4250  107.3940   52.5970 N.am     10 SEL2        0.0000 
     69 N          86.9370  107.1210   49.7270 N.am      6 SEP2        0.0000 
     70 N          86.8605  108.6910   52.4555 N.am      2 SEC2        0.0000 
     71 N          86.2960  109.9880   52.3140 N.am      6 SEP2        0.0000 
     72 O          88.7465  107.4585   52.8265 O.2       1 ALC1        0.0000 
     73 O          87.4250  107.3940   52.5970 O.2       9 ALL1        0.0000 
     74 O          90.0680  107.5230   53.0560 O.2       5 ALP1        0.0000 
     75 CA         84.3815  105.3075   52.4570 C.3       4 GLC5        0.0000 
     76 CA         85.2060  107.0250   53.5370 C.3      12 GLL5        0.0000 
     77 CA         83.5570  103.5900   51.3770 C.3       8 GLP5        0.0000 
     78 CA         84.6785  108.4845   55.0565 C.3       4 GLC5        0.0000 
     79 CA         84.1510  109.9440   56.5760 C.3       8 GLP5        0.0000 
     80 NZ         80.7690  106.1365   55.2680 N.4       3 LYC4        0.0000 
     81 NZ         82.2820  104.9710   54.9230 N.4      11 LYL4        0.0000 
     82 N          82.7765  103.7635   54.2635 N.am      2 SEC2        0.0000 
     83 N          82.2820  104.9710   54.9230 N.am     10 SEL2        0.0000 
     84 N          83.2710  102.5560   53.6040 N.am      6 SEP2        0.0000 
     85 NZ         80.9365  107.3920   55.3210 N.4       3 LYC4        0.0000 
     86 NZ         82.6170  107.4820   55.0290 N.4      11 LYL4        0.0000 
     87 N          83.5625  108.0540   55.7180 N.am      2 SEC2        0.0000 
     88 N          82.6170  107.4820   55.0290 N.am     10 SEL2        0.0000 
     89 N          84.5080  108.6260   56.4070 N.am      6 SEP2        0.0000 
     90 CA         77.5755  110.6968   47.8323 C.3       4 GLC5        0.0000 
     91 CA         78.8100  109.6140   46.8860 C.3      12 GLL5        0.0000 
     92 CA         85.9555  102.8725   61.8060 C.3       4 GLC5        0.0000 
     93 CA         86.3540  104.4870   60.4980 C.3      12 GLL5        0.0000 
     94 CA         85.9560  101.0380   62.5680 C.3       8 GLP5        0.0000 
     95 CA         84.3085  103.7475   61.7255 C.3       4 GLC5        0.0000 
     96 CA         85.5560  104.9270   61.5900 C.3      12 GLL5        0.0000 
     97 CA         82.6620  102.7880   62.4070 C.3       8 GLP5        0.0000 
     98 CA         84.7690  104.2355   59.6785 C.3       4 GLC5        0.0000 
     99 CA         83.6428  104.5980   62.3387 C.3       4 GLC5        0.0000 
    100 CA         85.0510  106.2230   61.6590 C.3      12 GLL5        0.0000 
    101 CA         84.3872  105.2265   59.7268 C.3       4 GLC5        0.0000 
    102 CA         84.9860  104.9153   58.8900 C.3       4 GLC5        0.0000 
    103 CA         86.1320  106.7150   59.5160 C.3      12 GLL5        0.0000 
    104 CA         83.9304  107.2845   59.4491 C.3       4 GLC5        0.0000 
    105 CA         82.2890  107.3930   58.6990 C.3       8 GLP5        0.0000 
    106 CA         85.6713  108.7283   53.3457 C.3       4 GLC5        0.0000 
    107 CA         85.4030  110.6270   53.1400 C.3       8 GLP5        0.0000 
@<TRIPOS>BOND
@<TRIPOS>SUBSTRUCTURE
     1 ALC1       19 GROUP        1 X    ALC  0     ROOT ALC X 1
     2 SEC2        4 GROUP        1 X    SEC  0     **** SEC X 2
     3 LYC4        1 GROUP        1 X    LYC  0     **** LYC X 4
     4 GLC5       10 GROUP        1 X    GLC  0     **** GLC X 6
     5 ALP1       21 GROUP        1 Y    ALP  0     ROOT ALP Y 8
     6 SEP2        6 GROUP        1 Y    SEP  0     **** SEP Y 9
     7 LYP4        3 GROUP        1 Y    LYP  0     **** LYP Y 11
     8 GLP5       12 GROUP        1 Y    GLP  0     **** GLP Y 13
     9 ALL1       20 GROUP        1 Z    ALL  0     ROOT ALL Z 15
    10 SEL2        5 GROUP        1 Z    SEL  0     **** SEL Z 16
    11 LYL4        2 GROUP        1 Z    LYL  0     **** LYL Z 18
    12 GLL5       11 GROUP        1 Z    GLL  0     **** GLL Z 20
@<TRIPOS>SET

