#    Name: 1v93_FAD_1_ligand
#    Modification time : Tue Mar 25 07:32:42 2014

@<TRIPOS>MOLECULE
1v93_FAD_1_ligand
   84    89     1     0     0
SMALL
NO_CHARGES


@<TRIPOS>ATOM
      1 PA         81.0640  106.9750   52.0310 P.3       1 FAD300      0.0000 
      2 O1A        80.0030  107.4550   52.9380 O.co2     1 FAD300      0.0000 
      3 O2A        80.7110  105.9280   51.0210 O.co2     1 FAD300      0.0000 
      4 O5B        81.6770  108.2570   51.3200 O.3       1 FAD300      0.0000 
      5 C5B        82.7770  108.1980   50.3740 C.3       1 FAD300      0.0000 
      6 C4B        82.7160  109.4300   49.4300 C.3       1 FAD300      0.0000 
      7 O4B        81.6940  109.1250   48.4520 O.3       1 FAD300      0.0000 
      8 C3B        82.3170  110.7770   50.0750 C.3       1 FAD300      0.0000 
      9 O3B        83.0890  111.8600   49.6110 O.3       1 FAD300      0.0000 
     10 C2B        80.8530  110.8890   49.7440 C.3       1 FAD300      0.0000 
     11 O2B        80.2980  112.2080   49.7530 O.3       1 FAD300      0.0000 
     12 C1B        80.7510  110.1910   48.3920 C.3       1 FAD300      0.0000 
     13 N9A        79.4720  109.5620   48.0740 N.pl3     1 FAD300      0.0000 
     14 C8A        78.6820  108.7860   48.8990 C.2       1 FAD300      0.0000 
     15 N7A        77.5840  108.3570   48.3130 N.2       1 FAD300      0.0000 
     16 C5A        77.6500  108.8730   47.0310 C.ar      1 FAD300      0.0000 
     17 C6A        76.7890  108.7790   45.9000 C.ar      1 FAD300      0.0000 
     18 N6A        75.6450  108.0810   45.9420 N.pl3     1 FAD300      0.0000 
     19 N1A        77.1470  109.4140   44.7580 N.ar      1 FAD300      0.0000 
     20 C2A        78.3260  110.1310   44.7170 C.ar      1 FAD300      0.0000 
     21 N3A        79.2070  110.2790   45.7280 N.ar      1 FAD300      0.0000 
     22 C4A        78.8100  109.6140   46.8860 C.ar      1 FAD300      0.0000 
     23 N1         88.6680  103.2370   57.2400 N.2       1 FAD300      0.0000 
     24 C2         89.1390  101.9560   57.2240 C.2       1 FAD300      0.0000 
     25 O2         89.8350  101.5130   56.2620 O.2       1 FAD300      0.0000 
     26 N3         88.8870  101.0870   58.2840 N.am      1 FAD300      0.0000 
     27 C4         88.1230  101.4440   59.4020 C.2       1 FAD300      0.0000 
     28 O4         87.9350  100.6060   60.3220 O.2       1 FAD300      0.0000 
     29 C4X        87.6090  102.7710   59.4060 C.2       1 FAD300      0.0000 
     30 N5         86.8250  103.1920   60.5020 N.2       1 FAD300      0.0000 
     31 C5X        86.3540  104.4870   60.4980 C.ar      1 FAD300      0.0000 
     32 C6         85.5560  104.9270   61.5900 C.ar      1 FAD300      0.0000 
     33 C7         85.0510  106.2230   61.6590 C.ar      1 FAD300      0.0000 
     34 C7M        84.1960  106.5930   62.8820 C.3       1 FAD300      0.0000 
     35 C8         85.3320  107.1550   60.6220 C.ar      1 FAD300      0.0000 
     36 C8M        84.8320  108.5850   60.6240 C.3       1 FAD300      0.0000 
     37 C9         86.1320  106.7150   59.5160 C.ar      1 FAD300      0.0000 
     38 C9A        86.6460  105.4180   59.4180 C.ar      1 FAD300      0.0000 
     39 N10        87.4410  104.9570   58.3210 N.pl3     1 FAD300      0.0000 
     40 C10        87.9320  103.6100   58.3020 C.2       1 FAD300      0.0000 
     41 C1'        87.8040  105.8200   57.1660 C.3       1 FAD300      0.0000 
     42 C2'        86.8380  105.7990   55.9900 C.3       1 FAD300      0.0000 
     43 O2'        86.7580  104.4490   55.4690 O.3       1 FAD300      0.0000 
     44 C3'        87.3160  106.8170   54.9450 C.3       1 FAD300      0.0000 
     45 O3'        87.0300  108.1220   55.4490 O.3       1 FAD300      0.0000 
     46 C4'        86.6730  106.6340   53.5660 C.3       1 FAD300      0.0000 
     47 O4'        87.4250  107.3940   52.5970 O.3       1 FAD300      0.0000 
     48 C5'        85.2060  107.0250   53.5370 C.3       1 FAD300      0.0000 
     49 O5'        84.3940  105.9790   54.1360 O.3       1 FAD300      0.0000 
     50 P          82.8310  106.1830   54.3120 P.3       1 FAD300      0.0000 
     51 O1P        82.2820  104.9710   54.9230 O.co2     1 FAD300      0.0000 
     52 O2P        82.6170  107.4820   55.0290 O.co2     1 FAD300      0.0000 
     53 O3P        82.3310  106.4020   52.8090 O.3       1 FAD300      0.0000 
     54 H          82.7245  107.3047   49.7522 H         1 FAD300      0.0000 
     55 H          83.7424  108.2183   50.8788 H         1 FAD300      0.0000 
     56 H          83.6610  109.5377   48.9371 H         1 FAD300      0.0000 
     57 H          82.3925  110.6247   51.1492 H         1 FAD300      0.0000 
     58 H          80.3236  110.2210   50.4528 H         1 FAD300      0.0000 
     59 H          81.0463  110.8793   47.6225 H         1 FAD300      0.0000 
     60 H          78.9468  108.5895   49.8404 H         1 FAD300      0.0000 
     61 H          75.4483  107.6099   46.8019 H         1 FAD300      0.0000 
     62 H          75.0908  108.0940   45.1097 H         1 FAD300      0.0000 
     63 H          78.5547  110.6165   43.7785 H         1 FAD300      0.0000 
     64 H          89.2875  100.1187   58.2452 H         1 FAD300      0.0000 
     65 H          85.3512  104.2534   62.3510 H         1 FAD300      0.0000 
     66 H          86.3307  107.4024   58.7602 H         1 FAD300      0.0000 
     67 H          88.8153  105.5337   56.7900 H         1 FAD300      0.0000 
     68 H          87.9105  106.8769   57.5092 H         1 FAD300      0.0000 
     69 H          85.8718  106.1277   56.3596 H         1 FAD300      0.0000 
     70 H          88.3948  106.6922   54.8363 H         1 FAD300      0.0000 
     71 H          86.7434  105.5652   53.3179 H         1 FAD300      0.0000 
     72 H          84.9157  107.1980   52.4943 H         1 FAD300      0.0000 
     73 H          85.0902  107.9703   54.0796 H         1 FAD300      0.0000 
     74 H          84.7058  106.4909   63.7362 H         1 FAD300      0.0000 
     75 H          83.8796  107.5408   62.8410 H         1 FAD300      0.0000 
     76 H          83.3829  106.0155   62.9551 H         1 FAD300      0.0000 
     77 H          85.1600  109.0920   61.4211 H         1 FAD300      0.0000 
     78 H          85.1351  109.0856   59.8131 H         1 FAD300      0.0000 
     79 H          83.8331  108.6291   60.6393 H         1 FAD300      0.0000 
     80 H          83.7436  112.0440   50.3443 H         1 FAD300      0.0000 
     81 H          81.0556  112.8056   50.0155 H         1 FAD300      0.0000 
     82 H          87.6776  104.0728   55.5828 H         1 FAD300      0.0000 
     83 H          86.0707  108.0866   55.7291 H         1 FAD300      0.0000 
     84 H          88.1933  107.7779   53.1092 H         1 FAD300      0.0000 
@<TRIPOS>BOND
     1    2    1 ar   
     2    3    1 ar   
     3    4    1 1    
     4   53    1 1    
     5    5    4 1    
     6    6    5 1    
     7   54    5 1    
     8   55    5 1    
     9    7    6 1    
    10    8    6 1    
    11   56    6 1    
    12   12    7 1    
    13    9    8 1    
    14   10    8 1    
    15   57    8 1    
    16   80    9 1    
    17   11   10 1    
    18   12   10 1    
    19   58   10 1    
    20   81   11 1    
    21   13   12 1    
    22   59   12 1    
    23   14   13 1    
    24   22   13 1    
    25   15   14 2    
    26   60   14 1    
    27   16   15 1    
    28   17   16 ar   
    29   22   16 ar   
    30   18   17 1    
    31   19   17 ar   
    32   61   18 1    
    33   62   18 1    
    34   20   19 ar   
    35   21   20 ar   
    36   63   20 1    
    37   22   21 ar   
    38   24   23 1    
    39   40   23 2    
    40   25   24 2    
    41   26   24 am   
    42   27   26 am   
    43   64   26 1    
    44   28   27 2    
    45   29   27 1    
    46   30   29 2    
    47   40   29 1    
    48   31   30 1    
    49   32   31 ar   
    50   38   31 ar   
    51   33   32 ar   
    52   65   32 1    
    53   34   33 1    
    54   35   33 ar   
    55   74   34 1    
    56   75   34 1    
    57   76   34 1    
    58   36   35 1    
    59   37   35 ar   
    60   77   36 1    
    61   78   36 1    
    62   79   36 1    
    63   38   37 ar   
    64   66   37 1    
    65   39   38 1    
    66   40   39 1    
    67   41   39 1    
    68   42   41 1    
    69   67   41 1    
    70   68   41 1    
    71   43   42 1    
    72   44   42 1    
    73   69   42 1    
    74   82   43 1    
    75   45   44 1    
    76   46   44 1    
    77   70   44 1    
    78   83   45 1    
    79   47   46 1    
    80   48   46 1    
    81   71   46 1    
    82   84   47 1    
    83   49   48 1    
    84   72   48 1    
    85   73   48 1    
    86   50   49 1    
    87   51   50 ar   
    88   52   50 ar   
    89   53   50 1    
@<TRIPOS>SUBSTRUCTURE
     1 FAD300      1 GROUP   
@<TRIPOS>SET

