#    Name: 2dph_NAD_1_INTS_M
#    Modification time : Tue Mar 25 10:11:14 2014

@<TRIPOS>MOLECULE
2dph_NAD_1_INTS_M
  112     0    12     0     0
SMALL
NO_CHARGES


@<TRIPOS>ATOM
      1 NZ         14.0575   73.6245   44.7540 N.4       3 LYC4        0.0000 
      2 NZ         13.0450   73.1140   45.4810 N.4      11 LYL4        0.0000 
      3 NZ         16.2540   74.5190   44.4950 N.4       7 LYP4        0.0000 
      4 N          14.0575   73.6245   44.7540 N.am      2 SEC2        0.0000 
      5 N          13.0450   73.1140   45.4810 N.am     10 SEL2        0.0000 
      6 N          15.0700   74.1350   44.0270 N.am      6 SEP2        0.0000 
      7 CA          9.3115   71.7865   41.5715 C.3       4 GLC5        0.0000 
      8 CA         11.1030   72.6330   42.4500 C.3      12 GLL5        0.0000 
      9 CA          7.5200   70.9400   40.6930 C.3       8 GLP5        0.0000 
     10 CA         12.0425   71.7925   39.6935 C.3       4 GLC5        0.0000 
     11 CA         12.0040   73.0920   41.3010 C.3      12 GLL5        0.0000 
     12 CA         12.0810   70.4930   38.0860 C.3       8 GLP5        0.0000 
     13 CA         13.5905   71.7615   42.1175 C.3       4 GLC5        0.0000 
     14 CA         15.1770   70.4310   42.9340 C.3       8 GLP5        0.0000 
     15 N          14.5735   74.2025   42.7255 N.am      2 SEC2        0.0000 
     16 N          14.0770   74.2700   41.4240 N.am     10 SEL2        0.0000 
     17 O          14.3820   73.7930   40.1140 O.2       1 ALC1        0.0000 
     18 O          14.0770   74.2700   41.4240 O.2       9 ALL1        0.0000 
     19 O          14.6870   73.3160   38.8040 O.2       5 ALP1        0.0000 
     20 O          13.9040   75.8410   39.0750 O.2       1 ALC1        0.0000 
     21 O          13.0980   76.2900   40.0340 O.2       9 ALL1        0.0000 
     22 O          14.7100   75.3920   38.1160 O.2       5 ALP1        0.0000 
     23 CA         11.8585   72.4730   38.7695 C.3       4 GLC5        0.0000 
     24 CA         11.6360   74.4530   39.4530 C.3      12 GLL5        0.0000 
     25 CA          9.5210   73.8900   39.6705 C.3       4 GLC5        0.0000 
     26 CA          7.4060   73.3270   39.8880 C.3       8 GLP5        0.0000 
     27 N           9.4760   76.8460   36.6720 N.am      2 SEC2        0.0000 
     28 N           8.7240   75.9650   37.8400 N.am     10 SEL2        0.0000 
     29 N          10.2280   77.7270   35.5040 N.am      6 SEP2        0.0000 
     30 N           7.6640   76.9880   38.0650 N.am      2 SEC2        0.0000 
     31 N           6.6040   78.0110   38.2900 N.am      6 SEP2        0.0000 
     32 CA          8.2420   74.1800   38.4055 C.3       4 GLC5        0.0000 
     33 CA          9.0780   75.0330   36.9230 C.3      12 GLL5        0.0000 
     34 CA         10.0900   74.6105   34.3300 C.3       4 GLC5        0.0000 
     35 CA          8.5560   74.6570   35.6800 C.3      12 GLL5        0.0000 
     36 CA         11.6240   74.5640   32.9800 C.3       8 GLP5        0.0000 
     37 CA          8.4495   73.1190   37.0335 C.3       4 GLC5        0.0000 
     38 CA          8.3430   71.5810   38.3870 C.3       8 GLP5        0.0000 
     39 CA          6.8890   73.3350   35.8870 C.3       4 GLC5        0.0000 
     40 CA          5.2220   72.0130   36.0940 C.3       8 GLP5        0.0000 
     41 O           6.9655   76.5235   35.4130 O.2       1 ALC1        0.0000 
     42 O           7.4480   75.2200   35.2180 O.2       9 ALL1        0.0000 
     43 O           6.4830   77.8270   35.6080 O.2       5 ALP1        0.0000 
     44 CA          9.4580   71.3875   35.1795 C.3       4 GLC5        0.0000 
     45 CA         10.2700   72.9990   35.4660 C.3      12 GLL5        0.0000 
     46 CA          8.6460   69.7760   34.8930 C.3       8 GLP5        0.0000 
     47 CA         11.1755   71.7460   36.7760 C.3       4 GLC5        0.0000 
     48 CA         12.3940   73.5975   35.4190 C.3       4 GLC5        0.0000 
     49 CA         14.5180   74.1960   35.3720 C.3       8 GLP5        0.0000 
     50 CA         10.9470   73.7815   34.2230 C.3       4 GLC5        0.0000 
     51 CA          9.3065   72.2900   36.9265 C.3       4 GLC5        0.0000 
     52 CA         11.1395   72.4345   37.7480 C.3       4 GLC5        0.0000 
     53 CA         10.1980   74.3760   37.4100 C.3      12 GLL5        0.0000 
     54 CA          9.2705   72.9785   37.8985 C.3       4 GLC5        0.0000 
     55 N          11.7310   69.6780   48.3830 N.am      2 SEC2        0.0000 
     56 N          12.2360   69.2260   47.0590 N.am     10 SEL2        0.0000 
     57 N          11.2260   70.1300   49.7070 N.am      6 SEP2        0.0000 
     58 N          13.2275   67.9515   44.5185 N.am      2 SEC2        0.0000 
     59 N          12.5260   69.3940   44.5260 N.am     10 SEL2        0.0000 
     60 N          13.9290   66.5090   44.5110 N.am      6 SEP2        0.0000 
     61 CA         10.5085   67.6255   44.3215 C.3       4 GLC5        0.0000 
     62 CA          9.5220   69.3220   44.3690 C.3      12 GLL5        0.0000 
     63 CA         11.4950   65.9290   44.2740 C.3       8 GLP5        0.0000 
     64 CA          6.5100   68.2060   43.6570 C.3       4 GLC5        0.0000 
     65 CA          8.0460   69.0220   44.6050 C.3      12 GLL5        0.0000 
     66 CA          4.9740   67.3900   42.7090 C.3       8 GLP5        0.0000 
     67 O           5.7990   71.3980   46.2615 O.2       1 ALC1        0.0000 
     68 O           6.2470   70.4340   45.2570 O.2       9 ALL1        0.0000 
     69 O           5.3510   72.3620   47.2660 O.2       5 ALP1        0.0000 
     70 CA          8.8170   70.0345   47.9375 C.3       4 GLC5        0.0000 
     71 CA          7.2210   68.9160   46.8410 C.3      12 GLL5        0.0000 
     72 CA         10.4130   71.1530   49.0340 C.3       8 GLP5        0.0000 
     73 CA          7.2195   69.5240   48.8420 C.3       4 GLC5        0.0000 
     74 CA          7.2180   70.1320   50.8430 C.3       8 GLP5        0.0000 
     75 N           6.3560   68.6870   48.7925 N.am      2 SEC2        0.0000 
     76 N           6.1710   69.3680   47.6660 N.am     10 SEL2        0.0000 
     77 N           6.5410   68.0060   49.9190 N.am      6 SEP2        0.0000 
     78 O           5.7610   70.8650   47.4660 O.2       1 ALC1        0.0000 
     79 O           6.1710   69.3680   47.6660 O.2       9 ALL1        0.0000 
     80 CA          5.9410   67.5115   44.3910 C.3       4 GLC5        0.0000 
     81 CA          6.9080   67.6330   46.0730 C.3      12 GLL5        0.0000 
     82 N           4.5260   60.6510   47.1880 N.am      2 SEC2        0.0000 
     83 N           5.4560   61.7170   47.4710 N.am     10 SEL2        0.0000 
     84 N           3.5960   59.5850   46.9050 N.am      6 SEP2        0.0000 
     85 O           4.7425   64.0050   44.9025 O.2       1 ALC1        0.0000 
     86 O           4.5510   63.0230   45.6910 O.2       9 ALL1        0.0000 
     87 O           4.9340   64.9870   44.1140 O.2       5 ALP1        0.0000 
     88 O           3.1705   62.2695   45.1715 O.2       1 ALC1        0.0000 
     89 O           1.7900   61.5160   44.6520 O.2       5 ALP1        0.0000 
     90 CA         10.2745   64.5220   48.5585 C.3       4 GLC5        0.0000 
     91 CA          8.0630   64.9050   48.4200 C.3      12 GLL5        0.0000 
     92 CA         12.4860   64.1390   48.6970 C.3       8 GLP5        0.0000 
     93 CA          7.4085   67.3985   49.4160 C.3       4 GLC5        0.0000 
     94 CA          8.0110   66.1060   47.7090 C.3      12 GLL5        0.0000 
     95 CA          6.8060   68.6910   51.1230 C.3       8 GLP5        0.0000 
     96 CA          8.1520   70.0560   42.5900 C.3       4 GLC5        0.0000 
     97 CA          6.2203   70.8113   47.4410 C.3       4 GLC5        0.0000 
     98 CA          7.4680   69.8950   45.7070 C.3      12 GLL5        0.0000 
     99 CA          5.0960   72.2170   48.6080 C.3       8 GLP5        0.0000 
    100 CA          5.1828   67.9472   46.9210 C.3       4 GLC5        0.0000 
    101 CA          3.3010   67.6200   47.3850 C.3       8 GLP5        0.0000 
    102 CA          7.0665   63.4500   46.1275 C.3       4 GLC5        0.0000 
    103 CA          5.9880   65.4060   46.6750 C.3      12 GLL5        0.0000 
    104 CA          8.1370   62.1060   45.2370 C.3       8 GLP5        0.0000 
    105 CA          4.6485   66.2070   47.2015 C.3       4 GLC5        0.0000 
    106 CA          6.0040   64.1820   47.3610 C.3      12 GLL5        0.0000 
    107 CA          7.8490   63.2680   46.7860 C.3       4 GLC5        0.0000 
    108 CA          7.0590   63.9550   48.2500 C.3      12 GLL5        0.0000 
    109 CA          9.2450   66.3423   49.1822 C.3       4 GLC5        0.0000 
    110 CA         10.4530   67.1790   50.3000 C.3       8 GLP5        0.0000 
    111 CA          9.6350   65.7417   46.9203 C.3       4 GLC5        0.0000 
    112 CA         11.2330   65.9780   45.7760 C.3       8 GLP5        0.0000 
@<TRIPOS>BOND
@<TRIPOS>SUBSTRUCTURE
     1 ALC1       17 GROUP        1 X    ALC  0     ROOT ALC X 1
     2 SEC2        4 GROUP        1 X    SEC  0     **** SEC X 2
     3 LYC4        1 GROUP        1 X    LYC  0     **** LYC X 4
     4 GLC5        7 GROUP        1 X    GLC  0     **** GLC X 6
     5 ALP1       19 GROUP        1 Y    ALP  0     ROOT ALP Y 8
     6 SEP2        6 GROUP        1 Y    SEP  0     **** SEP Y 9
     7 LYP4        3 GROUP        1 Y    LYP  0     **** LYP Y 11
     8 GLP5        9 GROUP        1 Y    GLP  0     **** GLP Y 13
     9 ALL1       18 GROUP        1 Z    ALL  0     ROOT ALL Z 15
    10 SEL2        5 GROUP        1 Z    SEL  0     **** SEL Z 16
    11 LYL4        2 GROUP        1 Z    LYL  0     **** LYL Z 18
    12 GLL5        8 GROUP        1 Z    GLL  0     **** GLL Z 20
@<TRIPOS>SET

