#    Name: 2dph_NAD_1_ligand
#    Modification time : Tue Mar 25 10:11:14 2014

@<TRIPOS>MOLECULE
2dph_NAD_1_ligand
   70    74     1     0     0
SMALL
NO_CHARGES


@<TRIPOS>ATOM
      1 PA         11.7840   72.5200   45.0060 P.3       1 NAD1403     0.0000 
      2 O1A        10.6810   73.4720   45.1800 O.co2     1 NAD1403     0.0000 
      3 O2A        13.0450   73.1140   45.4810 O.co2     1 NAD1403     0.0000 
      4 O5B        11.8900   72.0410   43.4690 O.3       1 NAD1403     0.0000 
      5 C5B        11.1030   72.6330   42.4500 C.3       1 NAD1403     0.0000 
      6 C4B        12.0040   73.0920   41.3010 C.3       1 NAD1403     0.0000 
      7 O4B        11.2410   73.2590   40.1210 O.3       1 NAD1403     0.0000 
      8 C3B        12.6820   74.4320   41.5760 C.3       1 NAD1403     0.0000 
      9 O3B        14.0770   74.2700   41.4240 O.3       1 NAD1403     0.0000 
     10 C2B        12.1220   75.3990   40.5400 C.3       1 NAD1403     0.0000 
     11 O2B        13.0980   76.2900   40.0340 O.3       1 NAD1403     0.0000 
     12 C1B        11.6360   74.4530   39.4530 C.3       1 NAD1403     0.0000 
     13 N9A        10.5080   74.9290   38.6260 N.pl3     1 NAD1403     0.0000 
     14 C8A         9.5880   75.9130   38.8850 C.2       1 NAD1403     0.0000 
     15 N7A         8.7240   75.9650   37.8400 N.2       1 NAD1403     0.0000 
     16 C5A         9.0780   75.0330   36.9230 C.ar      1 NAD1403     0.0000 
     17 C6A         8.5560   74.6570   35.6800 C.ar      1 NAD1403     0.0000 
     18 N6A         7.4480   75.2200   35.2180 N.pl3     1 NAD1403     0.0000 
     19 N1A         9.1560   73.6400   34.9560 N.ar      1 NAD1403     0.0000 
     20 C2A        10.2700   72.9990   35.4660 C.ar      1 NAD1403     0.0000 
     21 N3A        10.7800   73.3790   36.6950 N.ar      1 NAD1403     0.0000 
     22 C4A        10.1980   74.3760   37.4100 C.ar      1 NAD1403     0.0000 
     23 O3         11.3860   71.2490   45.9070 O.3       1 NAD1403     0.0000 
     24 PN         11.7400   69.6820   45.7390 P.3       1 NAD1403     0.0000 
     25 O1N        12.2360   69.2260   47.0590 O.co2     1 NAD1403     0.0000 
     26 O2N        12.5260   69.3940   44.5260 O.co2     1 NAD1403     0.0000 
     27 O5D        10.2630   69.0930   45.5510 O.3       1 NAD1403     0.0000 
     28 C5D         9.5220   69.3220   44.3690 C.3       1 NAD1403     0.0000 
     29 C4D         8.0460   69.0220   44.6050 C.3       1 NAD1403     0.0000 
     30 O4D         7.8570   67.6770   45.0160 O.3       1 NAD1403     0.0000 
     31 C3D         7.4680   69.8950   45.7070 C.3       1 NAD1403     0.0000 
     32 O3D         6.2470   70.4340   45.2570 O.3       1 NAD1403     0.0000 
     33 C2D         7.2210   68.9160   46.8410 C.3       1 NAD1403     0.0000 
     34 O2D         6.1710   69.3680   47.6660 O.3       1 NAD1403     0.0000 
     35 C1D         6.9080   67.6330   46.0730 C.3       1 NAD1403     0.0000 
     36 N1N         6.9740   66.3590   46.8440 N.pl3     1 NAD1403     0.0000 
     37 C2N         5.9880   65.4060   46.6750 C.ar      1 NAD1403     0.0000 
     38 C3N         6.0040   64.1820   47.3610 C.ar      1 NAD1403     0.0000 
     39 C7N         5.2990   62.9550   46.8020 C.2       1 NAD1403     0.0000 
     40 O7N         5.4560   61.7170   47.4710 O.2       1 NAD1403     0.0000 
     41 N7N         4.5510   63.0230   45.6910 N.am      1 NAD1403     0.0000 
     42 C4N         7.0590   63.9550   48.2500 C.ar      1 NAD1403     0.0000 
     43 C5N         8.0630   64.9050   48.4200 C.ar      1 NAD1403     0.0000 
     44 C6N         8.0110   66.1060   47.7090 C.ar      1 NAD1403     0.0000 
     45 H          10.5544   73.5123   42.8108 H         1 NAD1403     0.0000 
     46 H          10.3699   71.9302   42.0341 H         1 NAD1403     0.0000 
     47 H          12.7792   72.3520   41.1520 H         1 NAD1403     0.0000 
     48 H          12.3938   74.7568   42.5424 H         1 NAD1403     0.0000 
     49 H          11.2681   75.8738   40.9597 H         1 NAD1403     0.0000 
     50 H          12.4919   74.2235   38.8096 H         1 NAD1403     0.0000 
     51 H           9.5667   76.4623   39.6687 H         1 NAD1403     0.0000 
     52 H           6.8964   74.6620   34.5980 H         1 NAD1403     0.0000 
     53 H           7.2642   76.1517   35.5314 H         1 NAD1403     0.0000 
     54 H          10.7191   72.2412   34.9333 H         1 NAD1403     0.0000 
     55 H           9.8617   68.6841   43.5392 H         1 NAD1403     0.0000 
     56 H           9.5983   70.3662   44.0302 H         1 NAD1403     0.0000 
     57 H           7.4979   69.2284   43.6980 H         1 NAD1403     0.0000 
     58 H           8.1815   70.5960   45.9981 H         1 NAD1403     0.0000 
     59 H           8.1518   68.7759   47.3445 H         1 NAD1403     0.0000 
     60 H           5.9068   67.7656   45.6453 H         1 NAD1403     0.0000 
     61 H           5.2004   65.5943   46.0166 H         1 NAD1403     0.0000 
     62 H           4.4900   63.9213   45.2559 H         1 NAD1403     0.0000 
     63 H           4.1212   62.1693   45.3970 H         1 NAD1403     0.0000 
     64 H           7.0919   63.0733   48.7848 H         1 NAD1403     0.0000 
     65 H           8.8397   64.7248   49.0655 H         1 NAD1403     0.0000 
     66 H           8.7626   66.8027   47.8415 H         1 NAD1403     0.0000 
     67 H          14.1983   73.9354   40.4895 H         1 NAD1403     0.0000 
     68 H          13.5753   75.7740   39.3227 H         1 NAD1403     0.0000 
     69 H           5.9773   71.0887   45.9631 H         1 NAD1403     0.0000 
     70 H           5.9936   70.3060   47.3682 H         1 NAD1403     0.0000 
@<TRIPOS>BOND
     1    2    1 ar   
     2    3    1 ar   
     3    4    1 1    
     4   23    1 1    
     5    5    4 1    
     6    6    5 1    
     7   45    5 1    
     8   46    5 1    
     9    7    6 1    
    10    8    6 1    
    11   47    6 1    
    12   12    7 1    
    13    9    8 1    
    14   10    8 1    
    15   48    8 1    
    16   67    9 1    
    17   11   10 1    
    18   12   10 1    
    19   49   10 1    
    20   68   11 1    
    21   13   12 1    
    22   50   12 1    
    23   14   13 1    
    24   22   13 1    
    25   15   14 2    
    26   51   14 1    
    27   16   15 1    
    28   17   16 ar   
    29   22   16 ar   
    30   18   17 1    
    31   19   17 ar   
    32   52   18 1    
    33   53   18 1    
    34   20   19 ar   
    35   21   20 ar   
    36   54   20 1    
    37   22   21 ar   
    38   24   23 1    
    39   25   24 ar   
    40   26   24 ar   
    41   27   24 1    
    42   28   27 1    
    43   29   28 1    
    44   55   28 1    
    45   56   28 1    
    46   30   29 1    
    47   31   29 1    
    48   57   29 1    
    49   35   30 1    
    50   32   31 1    
    51   33   31 1    
    52   58   31 1    
    53   69   32 1    
    54   34   33 1    
    55   35   33 1    
    56   59   33 1    
    57   70   34 1    
    58   36   35 1    
    59   60   35 1    
    60   37   36 ar   
    61   44   36 ar   
    62   38   37 ar   
    63   61   37 1    
    64   39   38 1    
    65   42   38 ar   
    66   40   39 2    
    67   41   39 am   
    68   62   41 1    
    69   63   41 1    
    70   43   42 ar   
    71   64   42 1    
    72   44   43 ar   
    73   65   43 1    
    74   66   44 1    
@<TRIPOS>SUBSTRUCTURE
     1 NAD1403     1 GROUP   
@<TRIPOS>SET

