#    Name: 4b0o_15F_1_INTS_M
#    Modification time : Tue Mar 25 06:27:16 2014

@<TRIPOS>MOLECULE
4b0o_15F_1_INTS_M
   33     0     3     0     0
SMALL
NO_CHARGES


@<TRIPOS>ATOM
      1 CA        -22.3865  -44.8870  -25.4940 C.3       1 GLC5        0.0000 
      2 CA        -21.5400  -43.3170  -24.1430 C.3       3 GLL5        0.0000 
      3 CA        -23.2330  -46.4570  -26.8450 C.3       2 GLP5        0.0000 
      4 CA        -24.5115  -40.8325  -23.7955 C.3       1 GLC5        0.0000 
      5 CA        -22.9180  -41.3860  -23.3990 C.3       3 GLL5        0.0000 
      6 CA        -26.1050  -40.2790  -24.1920 C.3       2 GLP5        0.0000 
      7 CA        -17.1695  -39.7740  -25.7430 C.3       1 GLC5        0.0000 
      8 CA        -16.6150  -41.2130  -24.2190 C.3       3 GLL5        0.0000 
      9 CA        -17.7240  -38.3350  -27.2670 C.3       2 GLP5        0.0000 
     10 CA        -15.4120  -40.1555  -25.1365 C.3       1 GLC5        0.0000 
     11 CA        -14.2090  -39.0980  -26.0540 C.3       2 GLP5        0.0000 
     12 CA        -15.8335  -39.6160  -23.2165 C.3       1 GLC5        0.0000 
     13 CA        -15.0520  -38.0190  -22.2140 C.3       2 GLP5        0.0000 
     14 CA        -13.9315  -43.5410  -22.2725 C.3       1 GLC5        0.0000 
     15 CA        -14.6250  -43.2640  -24.1390 C.3       3 GLL5        0.0000 
     16 CA        -13.2380  -43.8180  -20.4060 C.3       2 GLP5        0.0000 
     17 CA        -12.7325  -44.2890  -23.5350 C.3       1 GLC5        0.0000 
     18 CA        -10.8400  -45.3140  -22.9310 C.3       2 GLP5        0.0000 
     19 CA        -17.6240  -43.2955  -28.0155 C.3       1 GLC5        0.0000 
     20 CA        -16.8900  -43.4470  -26.0000 C.3       3 GLL5        0.0000 
     21 CA        -18.3580  -43.1440  -30.0310 C.3       2 GLP5        0.0000 
     22 CA        -20.0670  -46.6105  -21.8555 C.3       1 GLC5        0.0000 
     23 CA        -18.7620  -45.1040  -22.5460 C.3       3 GLL5        0.0000 
     24 CA        -21.3720  -48.1170  -21.1650 C.3       2 GLP5        0.0000 
     25 CA        -21.5500  -38.3637  -20.3800 C.3       1 GLC5        0.0000 
     26 CA        -22.9880  -39.6710  -21.7100 C.3       3 GLL5        0.0000 
     27 CA        -19.8780  -37.2820  -19.6650 C.3       2 GLP5        0.0000 
     28 CA        -25.2595  -40.6203  -18.3198 C.3       1 GLC5        0.0000 
     29 CA        -24.3170  -40.0280  -19.7390 C.3       3 GLL5        0.0000 
     30 CA        -26.0020  -40.5870  -16.6700 C.3       2 GLP5        0.0000 
     31 CA        -23.4349  -40.9443  -18.5419 C.3       1 GLC5        0.0000 
     32 CA        -24.7170  -41.2790  -20.2000 C.3       3 GLL5        0.0000 
     33 CA        -22.5680  -41.4370  -16.9290 C.3       2 GLP5        0.0000 
@<TRIPOS>BOND
@<TRIPOS>SUBSTRUCTURE
     1 GLC5        1 GROUP        1 X    GLC  0     ROOT GLC X 6
     2 GLP5        3 GROUP        1 Y    GLP  0     ROOT GLP Y 13
     3 GLL5        2 GROUP        1 Z    GLL  0     ROOT GLL Z 20
@<TRIPOS>SET

