#    Name: 4b0o_15F_1_ligand
#    Modification time : Tue Mar 25 06:27:16 2014

@<TRIPOS>MOLECULE
4b0o_15F_1_ligand
   34    35     1     0     0
SMALL
NO_CHARGES


@<TRIPOS>ATOM
      1 CAR       -19.7980  -44.1860  -22.7110 C.ar      1 15F1307     0.0000 
      2 CAK       -20.5170  -44.2230  -23.9020 C.ar      1 15F1307     0.0000 
      3 CAM       -21.5400  -43.3170  -24.1430 C.ar      1 15F1307     0.0000 
      4 CAJ       -20.0820  -43.2380  -21.7380 C.ar      1 15F1307     0.0000 
      5 CAL       -21.1000  -42.3290  -21.9700 C.ar      1 15F1307     0.0000 
      6 NAT       -21.8340  -42.3620  -23.1700 N.pl3     1 15F1307     0.0000 
      7 CAO       -22.9180  -41.3860  -23.3990 C.3       1 15F1307     0.0000 
      8 CAS       -23.3840  -40.9240  -22.1790 C.ar      1 15F1307     0.0000 
      9 CAH       -22.9880  -39.6710  -21.7100 C.ar      1 15F1307     0.0000 
     10 CAF       -23.4560  -39.2200  -20.4800 C.ar      1 15F1307     0.0000 
     11 CAE       -24.3170  -40.0280  -19.7390 C.ar      1 15F1307     0.0000 
     12 CAG       -24.7170  -41.2790  -20.2000 C.ar      1 15F1307     0.0000 
     13 CAI       -24.2470  -41.7240  -21.4300 C.ar      1 15F1307     0.0000 
     14 CLB       -16.6150  -41.2130  -24.2190 Cl        1 15F1307     0.0000 
     15 CAU       -16.3510  -42.9410  -24.3800 C.3       1 15F1307     0.0000 
     16 CLC       -14.6250  -43.2640  -24.1390 Cl        1 15F1307     0.0000 
     17 CLD       -16.8900  -43.4470  -26.0000 Cl        1 15F1307     0.0000 
     18 CAQ       -17.1760  -43.6310  -23.2920 C.2       1 15F1307     0.0000 
     19 NAA       -17.0420  -43.1070  -22.0700 N.2       1 15F1307     0.0000 
     20 OAP       -17.8490  -44.7780  -23.6080 O.3       1 15F1307     0.0000 
     21 CAN       -18.7620  -45.1040  -22.5460 C.3       1 15F1307     0.0000 
     22 H         -20.2846  -44.9352  -24.6151 H         1 15F1307     0.0000 
     23 H         -22.0688  -43.3462  -25.0141 H         1 15F1307     0.0000 
     24 H         -19.5488  -43.2128  -20.8673 H         1 15F1307     0.0000 
     25 H         -21.3307  -41.6155  -21.2613 H         1 15F1307     0.0000 
     26 H         -23.7128  -41.8805  -23.9862 H         1 15F1307     0.0000 
     27 H         -22.5225  -40.5684  -24.0284 H         1 15F1307     0.0000 
     28 H         -22.3573  -39.0889  -22.2686 H         1 15F1307     0.0000 
     29 H         -23.1720  -38.3049  -20.1218 H         1 15F1307     0.0000 
     30 H         -24.6673  -39.6883  -18.8229 H         1 15F1307     0.0000 
     31 H         -25.3453  -41.8594  -19.6431 H         1 15F1307     0.0000 
     32 H         -24.5343  -42.6431  -21.7900 H         1 15F1307     0.0000 
     33 H         -19.1080  -46.1274  -22.6544 H         1 15F1307     0.0000 
     34 H         -18.2702  -44.9897  -21.5849 H         1 15F1307     0.0000 
@<TRIPOS>BOND
     1    2    1 ar   
     2    4    1 ar   
     3   21    1 1    
     4    3    2 ar   
     5   22    2 1    
     6    6    3 ar   
     7   23    3 1    
     8    5    4 ar   
     9   24    4 1    
    10    6    5 ar   
    11   25    5 1    
    12    7    6 1    
    13    8    7 1    
    14   26    7 1    
    15   27    7 1    
    16    9    8 ar   
    17   13    8 ar   
    18   10    9 ar   
    19   28    9 1    
    20   11   10 ar   
    21   29   10 1    
    22   12   11 ar   
    23   30   11 1    
    24   13   12 ar   
    25   31   12 1    
    26   32   13 1    
    27   15   14 1    
    28   16   15 1    
    29   17   15 1    
    30   18   15 1    
    31   19   18 2    
    32   20   18 1    
    33   21   20 1    
    34   33   21 1    
    35   34   21 1    
@<TRIPOS>SUBSTRUCTURE
     1 15F1307     1 GROUP   
@<TRIPOS>SET

