#    Name: 4isa_GVR_1_INTS_M
#    Modification time : Tue Mar 25 04:28:06 2014

@<TRIPOS>MOLECULE
4isa_GVR_1_INTS_M
   66     0    12     0     0
SMALL
NO_CHARGES


@<TRIPOS>ATOM
      1 Zn          3.6505  -32.5845  -12.6185 Zn        3 ZIC7        0.0000 
      2 Zn          4.6530  -32.2680  -12.9030 Zn       11 ZIL7        0.0000 
      3 Zn          2.6480  -32.9010  -12.3340 Zn        7 ZIP7        0.0000 
      4 N           4.9925  -31.3070  -13.6915 N.am      2 SEC2        0.0000 
      5 N           4.6530  -32.2680  -12.9030 N.am     10 SEL2        0.0000 
      6 N           5.3320  -30.3460  -14.4800 N.am      6 SEP2        0.0000 
      7 O           5.3360  -35.7615  -12.5235 O.2       1 ALC1        0.0000 
      8 O           5.1560  -34.3920  -12.3590 O.2       9 ALL1        0.0000 
      9 O           5.5160  -37.1310  -12.6880 O.2       5 ALP1        0.0000 
     10 Zn          3.3305  -33.7060  -11.9870 Zn        3 ZIC7        0.0000 
     11 Zn          4.0130  -34.5110  -11.6400 Zn       11 ZIL7        0.0000 
     12 N           4.0340  -34.9660  -10.4305 N.am      2 SEC2        0.0000 
     13 N           4.0130  -34.5110  -11.6400 N.am     10 SEL2        0.0000 
     14 N           4.0550  -35.4210   -9.2210 N.am      6 SEP2        0.0000 
     15 CA          5.4455  -31.7085  -14.5795 C.3       4 GLC5        0.0000 
     16 CA          6.6800  -33.1350  -13.7840 C.3      12 GLL5        0.0000 
     17 CA          4.2110  -30.2820  -15.3750 C.3       8 GLP5        0.0000 
     18 CA         14.3275  -28.7690  -16.0775 C.3       4 GLC5        0.0000 
     19 CA         12.5720  -29.8670  -16.2860 C.3      12 GLL5        0.0000 
     20 CA         16.0830  -27.6710  -15.8690 C.3       8 GLP5        0.0000 
     21 O           8.4010  -35.0640  -13.8345 O.2       1 ALC1        0.0000 
     22 O           7.2580  -34.4280  -14.1700 O.2       9 ALL1        0.0000 
     23 O           9.5440  -35.7000  -13.4990 O.2       5 ALP1        0.0000 
     24 Zn          4.9530  -33.6645  -13.2520 Zn        3 ZIC7        0.0000 
     25 Zn          7.2580  -34.4280  -14.1700 Zn       11 ZIL7        0.0000 
     26 CA         11.7570  -30.0210  -19.3880 C.3       4 GLC5        0.0000 
     27 CA         10.6240  -31.7210  -19.0210 C.3      12 GLL5        0.0000 
     28 CA         12.8900  -28.3210  -19.7550 C.3       8 GLP5        0.0000 
     29 CA          8.2330  -34.5555  -18.3275 C.3       4 GLC5        0.0000 
     30 CA          7.4810  -33.1040  -17.6870 C.3      12 GLL5        0.0000 
     31 CA          8.9850  -36.0070  -18.9680 C.3       8 GLP5        0.0000 
     32 CA          5.9490  -34.1655  -18.4445 C.3       4 GLC5        0.0000 
     33 CA          4.4170  -35.2270  -19.2020 C.3       8 GLP5        0.0000 
     34 CA         11.3122  -34.2855  -13.2707 C.3       4 GLC5        0.0000 
     35 CA         11.3870  -32.1070  -13.6500 C.3      12 GLL5        0.0000 
     36 CA         11.8340  -36.2610  -13.1860 C.3       8 GLP5        0.0000 
     37 CA         14.1610  -31.4180  -16.4190 C.3       4 GLC5        0.0000 
     38 CA         12.5900  -30.7910  -15.2540 C.3      12 GLL5        0.0000 
     39 CA         15.7410  -32.5070  -17.0680 C.3       8 GLP5        0.0000 
     40 CA         10.4695  -27.8473  -15.8768 C.3       4 GLC5        0.0000 
     41 CA         11.3630  -29.3400  -16.7280 C.3      12 GLL5        0.0000 
     42 CA         10.1820  -26.1580  -15.3130 C.3       8 GLP5        0.0000 
     43 CA         12.4288  -28.9623  -18.1310 C.3       4 GLC5        0.0000 
     44 CA          9.2147  -34.8099  -17.9246 C.3       4 GLC5        0.0000 
     45 CA          9.3450  -34.0060  -16.4290 C.3      12 GLL5        0.0000 
     46 CA          9.7398  -33.4025  -19.8733 C.3       4 GLC5        0.0000 
     47 CA          9.7370  -32.4570  -18.2320 C.3      12 GLL5        0.0000 
     48 CA          9.2990  -34.7160  -21.1200 C.3       8 GLP5        0.0000 
     49 CA         11.8543  -33.5692  -18.7007 C.3       4 GLC5        0.0000 
     50 CA         13.4050  -34.8470  -19.0300 C.3       8 GLP5        0.0000 
     51 CA          8.7108  -33.3405  -20.0495 C.3       4 GLC5        0.0000 
     52 CA          8.3690  -32.3710  -18.4700 C.3      12 GLL5        0.0000 
     53 CA          6.2973  -31.3286  -17.7836 C.3       4 GLC5        0.0000 
     54 CA          4.6940  -30.5090  -16.7840 C.3       8 GLP5        0.0000 
     55 CA          7.3230  -31.5078  -21.4342 C.3       4 GLC5        0.0000 
     56 CA          7.8760  -31.5590  -19.4880 C.3      12 GLL5        0.0000 
     57 CA          6.3300  -31.8260  -22.9840 C.3       8 GLP5        0.0000 
     58 CA          7.3805  -29.6467  -19.7482 C.3       4 GLC5        0.0000 
     59 CA          8.7560  -30.8200  -20.2810 C.3      12 GLL5        0.0000 
     60 CA          6.4450  -28.1040  -19.6120 C.3       8 GLP5        0.0000 
     61 CA          9.3707  -32.7905  -20.6397 C.3       4 GLC5        0.0000 
     62 CA         10.5563  -29.2015  -20.2142 C.3       4 GLC5        0.0000 
     63 CA         11.6700  -27.5380  -20.2690 C.3       8 GLP5        0.0000 
     64 CA          9.7843  -31.5290  -21.8678 C.3       4 GLC5        0.0000 
     65 CA         10.1290  -30.9100  -20.0380 C.3      12 GLL5        0.0000 
     66 CA         10.1260  -32.1930  -23.5760 C.3       8 GLP5        0.0000 
@<TRIPOS>BOND
@<TRIPOS>SUBSTRUCTURE
     1 ALC1        7 GROUP        1 X    ALC  0     ROOT ALC X 1
     2 SEC2        4 GROUP        1 X    SEC  0     **** SEC X 2
     3 ZIC7        1 GROUP        1 X    ZIC  0     **** ZIC X 5
     4 GLC5       15 GROUP        1 X    GLC  0     **** GLC X 6
     5 ALP1        9 GROUP        1 Y    ALP  0     ROOT ALP Y 8
     6 SEP2        6 GROUP        1 Y    SEP  0     **** SEP Y 9
     7 ZIP7        3 GROUP        1 Y    ZIP  0     **** ZIP Y 12
     8 GLP5       17 GROUP        1 Y    GLP  0     **** GLP Y 13
     9 ALL1        8 GROUP        1 Z    ALL  0     ROOT ALL Z 15
    10 SEL2        5 GROUP        1 Z    SEL  0     **** SEL Z 16
    11 ZIL7        2 GROUP        1 Z    ZIL  0     **** ZIL Z 19
    12 GLL5       16 GROUP        1 Z    GLL  0     **** GLL Z 20
@<TRIPOS>SET

