#    Name: 4isa_GVR_1_ligand
#    Modification time : Tue Mar 25 04:28:06 2014

@<TRIPOS>MOLECULE
4isa_GVR_1_ligand
   49    52     1     0     0
SMALL
NO_CHARGES


@<TRIPOS>ATOM
      1 O28         4.6530  -32.2680  -12.9030 O.2       1 GVR402      0.0000 
      2 C27         5.3900  -33.2450  -12.9810 C.2       1 GVR402      0.0000 
      3 N29         5.1560  -34.3920  -12.3590 N.am      1 GVR402      0.0000 
      4 O30         4.0130  -34.5110  -11.6400 O.3       1 GVR402      0.0000 
      5 C26         6.6800  -33.1350  -13.7840 C.3       1 GVR402      0.0000 
      6 C25         7.6440  -32.4180  -12.8430 C.3       1 GVR402      0.0000 
      7 C15         8.9760  -32.0080  -13.5070 C.ar      1 GVR402      0.0000 
      8 C16        10.1940  -32.5130  -13.0610 C.ar      1 GVR402      0.0000 
      9 C17        11.3870  -32.1070  -13.6500 C.ar      1 GVR402      0.0000 
     10 C20        11.3750  -31.1810  -14.6810 C.ar      1 GVR402      0.0000 
     11 C21        12.5900  -30.7910  -15.2540 C.ar      1 GVR402      0.0000 
     12 C19        10.1620  -30.6580  -15.1220 C.ar      1 GVR402      0.0000 
     13 C24        10.1510  -29.7330  -16.1530 C.ar      1 GVR402      0.0000 
     14 C23        11.3630  -29.3400  -16.7280 C.ar      1 GVR402      0.0000 
     15 C22        12.5720  -29.8670  -16.2860 C.ar      1 GVR402      0.0000 
     16 C18         8.9590  -31.0670  -14.5310 C.ar      1 GVR402      0.0000 
     17 N1          7.2580  -34.4280  -14.1700 N.pl3     1 GVR402      0.0000 
     18 S2          6.8930  -34.8410  -15.6930 S.o2      1 GVR402      0.0000 
     19 O13         5.4860  -34.4830  -16.0840 O.2       1 GVR402      0.0000 
     20 O14         7.2070  -36.2970  -15.8890 O.2       1 GVR402      0.0000 
     21 C3          7.9750  -33.9110  -16.6720 C.ar      1 GVR402      0.0000 
     22 C4          9.3450  -34.0060  -16.4290 C.ar      1 GVR402      0.0000 
     23 C5         10.2290  -33.2670  -17.2120 C.ar      1 GVR402      0.0000 
     24 C8          9.7370  -32.4570  -18.2320 C.ar      1 GVR402      0.0000 
     25 C9         10.6240  -31.7210  -19.0210 C.ar      1 GVR402      0.0000 
     26 C7          8.3690  -32.3710  -18.4700 C.ar      1 GVR402      0.0000 
     27 C6          7.4810  -33.1040  -17.6870 C.ar      1 GVR402      0.0000 
     28 C12         7.8760  -31.5590  -19.4880 C.ar      1 GVR402      0.0000 
     29 C11         8.7560  -30.8200  -20.2810 C.ar      1 GVR402      0.0000 
     30 C10        10.1290  -30.9100  -20.0380 C.ar      1 GVR402      0.0000 
     31 H           5.8187  -35.1832  -12.4121 H         1 GVR402      0.0000 
     32 H           6.5141  -32.4984  -14.6220 H         1 GVR402      0.0000 
     33 H           7.8670  -33.0712  -11.9860 H         1 GVR402      0.0000 
     34 H           7.1581  -31.5138  -12.4464 H         1 GVR402      0.0000 
     35 H          10.2117  -33.1948  -12.2863 H         1 GVR402      0.0000 
     36 H          12.2806  -32.4970  -13.3173 H         1 GVR402      0.0000 
     37 H          13.4671  -31.1822  -14.9148 H         1 GVR402      0.0000 
     38 H           9.2712  -29.3395  -16.4930 H         1 GVR402      0.0000 
     39 H          11.3575  -28.6454  -17.4949 H         1 GVR402      0.0000 
     40 H          13.4526  -29.5686  -16.7277 H         1 GVR402      0.0000 
     41 H           8.0710  -30.6707  -14.8560 H         1 GVR402      0.0000 
     42 H           7.7781  -34.9961  -13.6618 H         1 GVR402      0.0000 
     43 H           9.6961  -34.6117  -15.6841 H         1 GVR402      0.0000 
     44 H          11.2385  -33.3196  -17.0375 H         1 GVR402      0.0000 
     45 H          11.6322  -31.7793  -18.8504 H         1 GVR402      0.0000 
     46 H           6.4734  -33.0466  -17.8603 H         1 GVR402      0.0000 
     47 H           6.8642  -31.5024  -19.6571 H         1 GVR402      0.0000 
     48 H           8.4018  -30.2223  -21.0278 H         1 GVR402      0.0000 
     49 H          10.7844  -30.3656  -20.6231 H         1 GVR402      0.0000 
@<TRIPOS>BOND
     1    2    1 2    
     2    3    2 am   
     3    5    2 1    
     4    4    3 1    
     5   31    3 1    
     6    6    5 1    
     7   17    5 1    
     8   32    5 1    
     9    7    6 1    
    10   33    6 1    
    11   34    6 1    
    12    8    7 ar   
    13   16    7 ar   
    14    9    8 ar   
    15   35    8 1    
    16   10    9 ar   
    17   36    9 1    
    18   11   10 ar   
    19   12   10 ar   
    20   15   11 ar   
    21   37   11 1    
    22   13   12 ar   
    23   16   12 ar   
    24   14   13 ar   
    25   38   13 1    
    26   15   14 ar   
    27   39   14 1    
    28   40   15 1    
    29   41   16 1    
    30   18   17 1    
    31   42   17 1    
    32   19   18 2    
    33   20   18 2    
    34   21   18 1    
    35   22   21 ar   
    36   27   21 ar   
    37   23   22 ar   
    38   43   22 1    
    39   24   23 ar   
    40   44   23 1    
    41   25   24 ar   
    42   26   24 ar   
    43   30   25 ar   
    44   45   25 1    
    45   27   26 ar   
    46   28   26 ar   
    47   46   27 1    
    48   29   28 ar   
    49   47   28 1    
    50   30   29 ar   
    51   48   29 1    
    52   49   30 1    
@<TRIPOS>SUBSTRUCTURE
     1 GVR402      1 GROUP   
@<TRIPOS>SET

