#    Name: 2ivt_AMP_1_INTS_M
#    Modification time : Tue Mar 25 18:46:08 2014

@<TRIPOS>MOLECULE
2ivt_AMP_1_INTS_M
   49     0    12     0     0
SMALL
NO_CHARGES


@<TRIPOS>ATOM
      1 NZ         63.2215    2.7655    6.7235 N.4       3 LYC4        0.0000 
      2 NZ         64.3220    3.9430    6.5900 N.4      11 LYL4        0.0000 
      3 NZ         62.1210    1.5880    6.8570 N.4       7 LYP4        0.0000 
      4 NZ         62.6410    2.4860    7.8140 N.4       3 LYC4        0.0000 
      5 NZ         63.1610    3.3840    8.7710 N.4      11 LYL4        0.0000 
      6 N          62.6410    2.4860    7.8140 N.am      2 SEC2        0.0000 
      7 N          63.1610    3.3840    8.7710 N.am     10 SEL2        0.0000 
      8 N          62.1210    1.5880    6.8570 N.am      6 SEP2        0.0000 
      9 CA         65.8030    7.1920    5.8075 C.3       4 GLC5        0.0000 
     10 CA         65.1560    6.5910    7.7800 C.3      12 GLL5        0.0000 
     11 CA         66.4500    7.7930    3.8350 C.3       8 GLP5        0.0000 
     12 CA         66.2700    5.5230    6.6075 C.3       4 GLC5        0.0000 
     13 CA         67.3840    4.4550    5.4350 C.3       8 GLP5        0.0000 
     14 CA         65.1645    9.4120    7.1000 C.3       4 GLC5        0.0000 
     15 CA         65.1170    7.9290    8.5070 C.3      12 GLL5        0.0000 
     16 CA         65.2120   10.8950    5.6930 C.3       8 GLP5        0.0000 
     17 O          66.9025    6.7625   11.7605 O.2       1 ALC1        0.0000 
     18 O          66.5450    7.6350   10.5130 O.2       9 ALL1        0.0000 
     19 O          67.2600    5.8900   13.0080 O.2       5 ALP1        0.0000 
     20 CA         65.6825    9.1745   12.3250 C.3       4 GLC5        0.0000 
     21 CA         64.5350    9.0510   10.5410 C.3      12 GLL5        0.0000 
     22 CA         66.8300    9.2980   14.1090 C.3       8 GLP5        0.0000 
     23 CA         63.4850    8.5520   12.1830 C.3       4 GLC5        0.0000 
     24 CA         62.4350    8.0530   13.8250 C.3       8 GLP5        0.0000 
     25 CA         62.3275   10.8615    8.5780 C.3       4 GLC5        0.0000 
     26 CA         63.4100    9.2110    9.5330 C.3      12 GLL5        0.0000 
     27 CA         61.2450   12.5120    7.6230 C.3       8 GLP5        0.0000 
     28 CA         62.0645    8.6535    7.8740 C.3       4 GLC5        0.0000 
     29 CA         60.7190    8.0960    6.2150 C.3       8 GLP5        0.0000 
     30 O          56.7175    7.4065   12.5305 O.2       1 ALC1        0.0000 
     31 O          58.0040    7.5510   11.9960 O.2       9 ALL1        0.0000 
     32 O          55.4310    7.2620   13.0650 O.2       5 ALP1        0.0000 
     33 N          57.9145    9.9670   13.4050 N.am      2 SEC2        0.0000 
     34 N          58.8570    9.7210   12.0800 N.am     10 SEL2        0.0000 
     35 N          56.9720   10.2130   14.7300 N.am      6 SEP2        0.0000 
     36 CA         59.3980   11.5840   10.2735 C.3       4 GLC5        0.0000 
     37 CA         59.7940   10.6540   11.8210 C.3      12 GLL5        0.0000 
     38 CA         59.0020   12.5140    8.7260 C.3       8 GLP5        0.0000 
     39 CA         61.1145    9.3535   12.8230 C.3       4 GLC5        0.0000 
     40 CA         61.8050    8.5700   12.2665 C.3       4 GLC5        0.0000 
     41 CA         61.1750    9.0870   10.7080 C.3      12 GLL5        0.0000 
     42 CA         60.1448    8.5998    8.9552 C.3       4 GLC5        0.0000 
     43 CA         59.6060    8.6450    7.0730 C.3       8 GLP5        0.0000 
     44 CA         57.9450    8.5715   10.3510 C.3       4 GLC5        0.0000 
     45 CA         60.1920    8.0220   10.9670 C.3      12 GLL5        0.0000 
     46 CA         56.3090    8.9160    9.3720 C.3       8 GLP5        0.0000 
     47 CA         60.1405    7.2250   12.6675 C.3       4 GLC5        0.0000 
     48 CA         58.9700    8.4320   11.6930 C.3      12 GLL5        0.0000 
     49 CA         60.7000    6.2230   14.0050 C.3       8 GLP5        0.0000 
@<TRIPOS>BOND
@<TRIPOS>SUBSTRUCTURE
     1 ALC1       17 GROUP        1 X    ALC  0     ROOT ALC X 1
     2 SEC2        6 GROUP        1 X    SEC  0     **** SEC X 2
     3 LYC4        1 GROUP        1 X    LYC  0     **** LYC X 4
     4 GLC5        9 GROUP        1 X    GLC  0     **** GLC X 6
     5 ALP1       19 GROUP        1 Y    ALP  0     ROOT ALP Y 8
     6 SEP2        8 GROUP        1 Y    SEP  0     **** SEP Y 9
     7 LYP4        3 GROUP        1 Y    LYP  0     **** LYP Y 11
     8 GLP5       11 GROUP        1 Y    GLP  0     **** GLP Y 13
     9 ALL1       18 GROUP        1 Z    ALL  0     ROOT ALL Z 15
    10 SEL2        7 GROUP        1 Z    SEL  0     **** SEL Z 16
    11 LYL4        2 GROUP        1 Z    LYL  0     **** LYL Z 18
    12 GLL5       10 GROUP        1 Z    GLL  0     **** GLL Z 20
@<TRIPOS>SET

