#    Name: 2ivt_AMP_1_ligand
#    Modification time : Tue Mar 25 18:46:08 2014

@<TRIPOS>MOLECULE
2ivt_AMP_1_ligand
   35    37     1     0     0
SMALL
NO_CHARGES


@<TRIPOS>ATOM
      1 P          64.3490    4.0510    8.1120 P.3       1 AMP3015     0.0000 
      2 O1P        64.3220    3.9430    6.5900 O.co2     1 AMP3015     0.0000 
      3 O2P        65.6520    3.6970    8.8370 O.co2     1 AMP3015     0.0000 
      4 O3P        63.1610    3.3840    8.7710 O.co2     1 AMP3015     0.0000 
      5 O5'        64.1850    5.6600    8.2860 O.3       1 AMP3015     0.0000 
      6 C5'        65.1560    6.5910    7.7800 C.3       1 AMP3015     0.0000 
      7 C4'        65.1170    7.9290    8.5070 C.3       1 AMP3015     0.0000 
      8 O4'        63.9050    8.6780    8.2770 O.3       1 AMP3015     0.0000 
      9 C3'        65.2020    7.7860   10.0330 C.3       1 AMP3015     0.0000 
     10 O3'        66.5450    7.6350   10.5130 O.3       1 AMP3015     0.0000 
     11 C2'        64.5350    9.0510   10.5410 C.3       1 AMP3015     0.0000 
     12 O2'        65.3990   10.1650   10.3530 O.3       1 AMP3015     0.0000 
     13 C1'        63.4100    9.2110    9.5330 C.3       1 AMP3015     0.0000 
     14 N9         62.1790    8.5090   10.0270 N.pl3     1 AMP3015     0.0000 
     15 C8         61.8670    7.2030    9.8620 C.2       1 AMP3015     0.0000 
     16 N7         60.6700    6.8830   10.4100 N.2       1 AMP3015     0.0000 
     17 C5         60.1920    8.0220   10.9670 C.ar      1 AMP3015     0.0000 
     18 C6         58.9700    8.4320   11.6930 C.ar      1 AMP3015     0.0000 
     19 N6         58.0040    7.5510   11.9960 N.pl3     1 AMP3015     0.0000 
     20 N1         58.8570    9.7210   12.0800 N.ar      1 AMP3015     0.0000 
     21 C2         59.7940   10.6540   11.8210 C.ar      1 AMP3015     0.0000 
     22 N3         60.9110   10.3510   11.1470 N.ar      1 AMP3015     0.0000 
     23 C4         61.1750    9.0870   10.7080 C.ar      1 AMP3015     0.0000 
     24 H          64.9961    6.7884    6.7023 H         1 AMP3015     0.0000 
     25 H          66.1827    6.1870    7.8728 H         1 AMP3015     0.0000 
     26 H          65.9770    8.5282    8.2034 H         1 AMP3015     0.0000 
     27 H          64.5639    6.9562   10.3054 H         1 AMP3015     0.0000 
     28 H          64.1560    8.9200   11.4727 H         1 AMP3015     0.0000 
     29 H          63.2113   10.2694    9.4385 H         1 AMP3015     0.0000 
     30 H          62.4481    6.5525    9.3931 H         1 AMP3015     0.0000 
     31 H          57.2155    7.9156   12.4913 H         1 AMP3015     0.0000 
     32 H          58.1591    6.6087   11.6994 H         1 AMP3015     0.0000 
     33 H          59.6417   11.6404   12.1568 H         1 AMP3015     0.0000 
     34 H          66.4735    7.0082   11.2889 H         1 AMP3015     0.0000 
     35 H          66.2809    9.7684   10.0981 H         1 AMP3015     0.0000 
@<TRIPOS>BOND
     1    2    1 ar   
     2    3    1 ar   
     3    4    1 ar   
     4    5    1 1    
     5    6    5 1    
     6    7    6 1    
     7   24    6 1    
     8   25    6 1    
     9    8    7 1    
    10    9    7 1    
    11   26    7 1    
    12   13    8 1    
    13   10    9 1    
    14   11    9 1    
    15   27    9 1    
    16   34   10 1    
    17   12   11 1    
    18   13   11 1    
    19   28   11 1    
    20   35   12 1    
    21   14   13 1    
    22   29   13 1    
    23   15   14 1    
    24   23   14 1    
    25   16   15 2    
    26   30   15 1    
    27   17   16 1    
    28   18   17 ar   
    29   23   17 ar   
    30   19   18 1    
    31   20   18 ar   
    32   31   19 1    
    33   32   19 1    
    34   21   20 ar   
    35   22   21 ar   
    36   33   21 1    
    37   23   22 ar   
@<TRIPOS>SUBSTRUCTURE
     1 AMP3015     1 GROUP   
@<TRIPOS>SET

