#    Name: 3d2k_AK4_1_INTS_M
#    Modification time : Mon Mar 24 22:35:56 2014

@<TRIPOS>MOLECULE
3d2k_AK4_1_INTS_M
   83     0     9     0     0
SMALL
NO_CHARGES


@<TRIPOS>ATOM
      1 CA         17.1855    2.3500   21.5730 C.3       3 GLC5        0.0000 
      2 CA         16.2720    4.2790   21.4760 C.3       9 GLL5        0.0000 
      3 CA         18.0990    0.4210   21.6700 C.3       6 GLP5        0.0000 
      4 CA         15.3145    2.2515   21.5940 C.3       3 GLC5        0.0000 
      5 CA         14.3570    0.2240   21.7120 C.3       6 GLP5        0.0000 
      6 CA         25.9780   15.0810   19.0640 C.3       3 GLC5        0.0000 
      7 CA         24.4520   16.1920   19.3930 C.3       9 GLL5        0.0000 
      8 CA         27.5040   13.9700   18.7350 C.3       6 GLP5        0.0000 
      9 CA         23.0210   16.1045   18.3100 C.3       3 GLC5        0.0000 
     10 CA         21.5900   16.0170   17.2270 C.3       6 GLP5        0.0000 
     11 CA         25.8780   17.0495   18.2690 C.3       3 GLC5        0.0000 
     12 CA         27.3040   17.9070   17.1450 C.3       6 GLP5        0.0000 
     13 CA         24.2525   18.3490   19.4630 C.3       3 GLC5        0.0000 
     14 CA         24.0530   20.5060   19.5330 C.3       6 GLP5        0.0000 
     15 CA         22.8175   16.9190   19.8480 C.3       3 GLC5        0.0000 
     16 CA         21.1830   17.6460   20.3030 C.3       6 GLP5        0.0000 
     17 CA         24.5140   18.7635   20.5080 C.3       3 GLC5        0.0000 
     18 CA         24.9750   17.0210   21.4830 C.3       9 GLL5        0.0000 
     19 CA         17.9790   12.3450   18.6775 C.3       3 GLC5        0.0000 
     20 CA         20.1030   12.6690   18.3940 C.3       9 GLL5        0.0000 
     21 CA         15.8550   12.0210   18.9610 C.3       6 GLP5        0.0000 
     22 CA         21.1350   15.5685   20.4450 C.3       3 GLC5        0.0000 
     23 CA         21.0870   13.4910   20.5870 C.3       9 GLL5        0.0000 
     24 CA         24.1660   12.3845   21.4985 C.3       3 GLC5        0.0000 
     25 CA         22.4170   12.8830   21.0570 C.3       9 GLL5        0.0000 
     26 CA         25.9150   11.8860   21.9400 C.3       6 GLP5        0.0000 
     27 CA         26.0210   15.1570   24.6590 C.3       3 GLC5        0.0000 
     28 CA         24.1290   15.5280   24.6530 C.3       9 GLL5        0.0000 
     29 CA         27.9130   14.7860   24.6650 C.3       6 GLP5        0.0000 
     30 CA         24.7395   14.1030   26.2555 C.3       3 GLC5        0.0000 
     31 CA         25.3500   12.6780   27.8580 C.3       6 GLP5        0.0000 
     32 CA         24.3120   13.3945   24.2870 C.3       3 GLC5        0.0000 
     33 CA         24.4950   11.2610   23.9210 C.3       6 GLP5        0.0000 
     34 CA         22.6115   16.9715   25.3465 C.3       3 GLC5        0.0000 
     35 CA         21.0940   18.4150   26.0400 C.3       6 GLP5        0.0000 
     36 N          25.5490   18.2585   19.3820 N.am      2 SEC2        0.0000 
     37 N          25.0420   17.1380   20.1410 N.am      8 SEL2        0.0000 
     38 N          26.0560   19.3790   18.6230 N.am      5 SEP2        0.0000 
     39 CA         21.3635    9.8265   21.1535 C.3       3 GLC5        0.0000 
     40 CA         19.8000   11.1420   20.2710 C.3       9 GLL5        0.0000 
     41 CA         22.9270    8.5110   22.0360 C.3       6 GLP5        0.0000 
     42 CA         17.7775   11.6075   20.3840 C.3       3 GLC5        0.0000 
     43 CA         15.7550   12.0730   20.4970 C.3       6 GLP5        0.0000 
     44 N          17.9585   12.4555   18.1945 N.am      2 SEC2        0.0000 
     45 N          19.4780   11.6510   17.9530 N.am      8 SEL2        0.0000 
     46 N          16.4390   13.2600   18.4360 N.am      5 SEP2        0.0000 
     47 O          17.7670    9.4100   17.4155 O.2       1 ALC1        0.0000 
     48 O          18.5780    9.5450   18.6010 O.2       7 ALL1        0.0000 
     49 O          16.9560    9.2750   16.2300 O.2       4 ALP1        0.0000 
     50 N          19.4650    8.6500   21.6690 N.am      2 SEC2        0.0000 
     51 N          18.5000    8.7700   20.7100 N.am      8 SEL2        0.0000 
     52 N          20.4300    8.5300   22.6280 N.am      5 SEP2        0.0000 
     53 O          17.1010    7.3295   17.8525 O.2       1 ALC1        0.0000 
     54 O          17.6080    7.5150   19.1010 O.2       7 ALL1        0.0000 
     55 O          16.5940    7.1440   16.6040 O.2       4 ALP1        0.0000 
     56 O          17.2820    8.3950   17.6655 O.2       1 ALC1        0.0000 
     57 CA         14.7315    1.5865   20.5345 C.3       3 GLC5        0.0000 
     58 CA         15.1060    2.9490   19.3570 C.3       9 GLL5        0.0000 
     59 CA         13.3975    2.5800   18.4505 C.3       3 GLC5        0.0000 
     60 CA         11.6890    2.2110   17.5440 C.3       6 GLP5        0.0000 
     61 CA         15.9285    2.3550   17.7780 C.3       3 GLC5        0.0000 
     62 CA         16.7510    1.7610   16.1990 C.3       6 GLP5        0.0000 
     63 CA         14.9808    6.6050   18.8765 C.3       3 GLC5        0.0000 
     64 CA         16.4650    5.3820   19.3320 C.3       9 GLL5        0.0000 
     65 CA         13.1440    7.3000   18.1300 C.3       6 GLP5        0.0000 
     66 CA         17.6318    4.0935   23.2662 C.3       3 GLC5        0.0000 
     67 CA         18.6390    3.3850   24.7620 C.3       6 GLP5        0.0000 
     68 CA         26.6635   15.9592   22.0753 C.3       3 GLC5        0.0000 
     69 CA         24.3510   15.9720   22.0700 C.3       9 GLL5        0.0000 
     70 CA         28.6640   15.4220   22.3740 C.3       6 GLP5        0.0000 
     71 CA         24.9782   13.6825   21.8138 C.3       3 GLC5        0.0000 
     72 CA         22.6902   16.6936   20.9219 C.3       3 GLC5        0.0000 
     73 CA         23.7320   14.9860   21.3050 C.3       9 GLL5        0.0000 
     74 CA         21.1230   14.5272   18.5232 C.3       3 GLC5        0.0000 
     75 CA         20.3470   12.4990   19.7100 C.3       9 GLL5        0.0000 
     76 CA         22.4640   12.3340   19.2150 C.3       3 GLC5        0.0000 
     77 CA         23.1760   11.4810   17.6080 C.3       6 GLP5        0.0000 
     78 CA         19.3755   14.3797   19.4843 C.3       3 GLC5        0.0000 
     79 CA         18.0950   15.7220   19.1490 C.3       6 GLP5        0.0000 
     80 CA         21.5942   11.6720   18.6348 C.3       3 GLC5        0.0000 
     81 CA         17.5714    4.6006   18.2610 C.3       3 GLC5        0.0000 
     82 CA         17.1700    6.4380   19.9140 C.3       9 GLL5        0.0000 
     83 CA         18.4370    3.5600   16.7050 C.3       6 GLP5        0.0000 
@<TRIPOS>BOND
@<TRIPOS>SUBSTRUCTURE
     1 ALC1       47 GROUP        1 X    ALC  0     ROOT ALC X 1
     2 SEC2       36 GROUP        1 X    SEC  0     **** SEC X 2
     3 GLC5        1 GROUP        1 X    GLC  0     **** GLC X 6
     4 ALP1       49 GROUP        1 Y    ALP  0     ROOT ALP Y 8
     5 SEP2       38 GROUP        1 Y    SEP  0     **** SEP Y 9
     6 GLP5        3 GROUP        1 Y    GLP  0     **** GLP Y 13
     7 ALL1       48 GROUP        1 Z    ALL  0     ROOT ALL Z 15
     8 SEL2       37 GROUP        1 Z    SEL  0     **** SEL Z 16
     9 GLL5        2 GROUP        1 Z    GLL  0     **** GLL Z 20
@<TRIPOS>SET

