#    Name: 3d2k_AK4_1_ligand
#    Modification time : Mon Mar 24 22:35:56 2014

@<TRIPOS>MOLECULE
3d2k_AK4_1_ligand
   48    51     1     0     0
SMALL
NO_CHARGES


@<TRIPOS>ATOM
      1 C30        22.6800   15.4020   25.0470 C.2       1 AK41        0.0000 
      2 C28        25.5440   17.9280   22.4050 C.2       1 AK41        0.0000 
      3 C24        16.4650    5.3820   19.3320 C.ar      1 AK41        0.0000 
      4 C23        16.0180    4.3070   20.1080 C.ar      1 AK41        0.0000 
      5 C22        16.2720    4.2790   21.4760 C.ar      1 AK41        0.0000 
      6 C17        24.4520   16.1920   19.3930 C.ar      1 AK41        0.0000 
      7 C20        17.4190    6.3930   21.2870 C.ar      1 AK41        0.0000 
      8 C15        24.9750   17.0210   21.4830 C.ar      1 AK41        0.0000 
      9 C13        23.7320   14.9860   21.3050 C.ar      1 AK41        0.0000 
     10 C14        24.3510   15.9720   22.0700 C.ar      1 AK41        0.0000 
     11 C10        18.2440    8.6190   19.5230 C.2       1 AK41        0.0000 
     12 C8         19.2250   10.7030   18.8650 C.2       1 AK41        0.0000 
     13 C4         20.3470   12.4990   19.7100 C.2       1 AK41        0.0000 
     14 C6         20.1030   12.6690   18.3940 C.2       1 AK41        0.0000 
     15 C3         21.0870   13.4910   20.5870 C.3       1 AK41        0.0000 
     16 C2         22.4170   12.8830   21.0570 C.3       1 AK41        0.0000 
     17 O32        22.4220   15.3920   26.2800 O.co2     1 AK41        0.0000 
     18 O31        21.8140   15.2990   24.1510 O.co2     1 AK41        0.0000 
     19 C29        24.1290   15.5280   24.6530 C.3       1 AK41        0.0000 
     20 N26        24.4700   16.1990   23.3850 N.pl3     1 AK41        0.0000 
     21 N27        25.2090   17.3720   23.5990 N.2       1 AK41        0.0000 
     22 N18        23.8130   15.1490   19.9540 N.ar      1 AK41        0.0000 
     23 N16        25.0420   17.1380   20.1410 N.ar      1 AK41        0.0000 
     24 N1         23.0730   13.9170   21.8570 N.pl3     1 AK41        0.0000 
     25 S5         19.8000   11.1420   20.2710 S.3       1 AK41        0.0000 
     26 N7         19.4780   11.6510   17.9530 N.2       1 AK41        0.0000 
     27 N9         18.5780    9.5450   18.6010 N.am      1 AK41        0.0000 
     28 O12        18.5000    8.7700   20.7100 O.2       1 AK41        0.0000 
     29 N11        17.6080    7.5150   19.1010 N.am      1 AK41        0.0000 
     30 C19        17.1700    6.4380   19.9140 C.ar      1 AK41        0.0000 
     31 CL25       15.1060    2.9490   19.3570 Cl        1 AK41        0.0000 
     32 C21        16.9770    5.3250   22.0650 C.ar      1 AK41        0.0000 
     33 H          26.0122   18.6864   22.2120 H         1 AK41        0.0000 
     34 H          16.2713    5.3938   18.3194 H         1 AK41        0.0000 
     35 H          15.9424    3.4939   22.0461 H         1 AK41        0.0000 
     36 H          24.4894   16.2668   18.3424 H         1 AK41        0.0000 
     37 H          17.9411    7.1671   21.7336 H         1 AK41        0.0000 
     38 H          20.3823   13.4700   17.8935 H         1 AK41        0.0000 
     39 H          20.4836   13.7339   21.4556 H         1 AK41        0.0000 
     40 H          21.2920   14.3961   20.0245 H         1 AK41        0.0000 
     41 H          23.0001   12.6282   20.1895 H         1 AK41        0.0000 
     42 H          22.2022   12.0082   21.6452 H         1 AK41        0.0000 
     43 H          24.5806   14.4884   24.6549 H         1 AK41        0.0000 
     44 H          24.6760   16.0417   25.5024 H         1 AK41        0.0000 
     45 H          23.0160   13.8025   22.8917 H         1 AK41        0.0000 
     46 H          18.3102    9.3491   17.5778 H         1 AK41        0.0000 
     47 H          17.3966    7.4089   18.0514 H         1 AK41        0.0000 
     48 H          17.1718    5.3099   23.0740 H         1 AK41        0.0000 
@<TRIPOS>BOND
     1   17    1 ar   
     2   18    1 ar   
     3   19    1 1    
     4    8    2 1    
     5   21    2 2    
     6   33    2 1    
     7    4    3 ar   
     8   30    3 ar   
     9   34    3 1    
    10    5    4 ar   
    11   31    4 1    
    12   32    5 ar   
    13   35    5 1    
    14   22    6 ar   
    15   23    6 ar   
    16   36    6 1    
    17   30    7 ar   
    18   32    7 ar   
    19   37    7 1    
    20   10    8 ar   
    21   23    8 ar   
    22   10    9 ar   
    23   22    9 ar   
    24   24    9 1    
    25   20   10 1    
    26   27   11 am   
    27   28   11 2    
    28   29   11 am   
    29   25   12 1    
    30   26   12 2    
    31   27   12 1    
    32   14   13 2    
    33   15   13 1    
    34   25   13 1    
    35   26   14 1    
    36   38   14 1    
    37   16   15 1    
    38   39   15 1    
    39   40   15 1    
    40   24   16 1    
    41   41   16 1    
    42   42   16 1    
    43   20   19 1    
    44   43   19 1    
    45   44   19 1    
    46   21   20 1    
    47   45   24 1    
    48   46   27 1    
    49   30   29 1    
    50   47   29 1    
    51   48   32 1    
@<TRIPOS>SUBSTRUCTURE
     1 AK41        1 GROUP   
@<TRIPOS>SET

