#    Name: 2nsd_4PI_1_INTS_M
#    Modification time : Tue Mar 25 21:33:54 2014

@<TRIPOS>MOLECULE
2nsd_4PI_1_INTS_M
   58     0     6     0     0
SMALL
NO_CHARGES


@<TRIPOS>ATOM
      1 CA         51.1005   52.5260   35.8760 C.3       2 GLC5        0.0000 
      2 CA         50.0360   51.0730   37.1380 C.3       6 GLL5        0.0000 
      3 CA         52.1650   53.9790   34.6140 C.3       4 GLP5        0.0000 
      4 CA         49.1830   55.4810   36.1935 C.3       2 GLC5        0.0000 
      5 CA         50.0110   54.0160   37.0460 C.3       6 GLL5        0.0000 
      6 CA         48.3550   56.9460   35.3410 C.3       4 GLP5        0.0000 
      7 CA         49.2170   54.7490   34.9460 C.3       2 GLC5        0.0000 
      8 CA         49.8050   53.2150   35.7570 C.3       6 GLL5        0.0000 
      9 CA         48.6290   56.2830   34.1350 C.3       4 GLP5        0.0000 
     10 CA         46.0210   55.2095   40.0145 C.3       2 GLC5        0.0000 
     11 CA         47.8070   55.4210   40.5960 C.3       6 GLL5        0.0000 
     12 CA         44.2350   54.9980   39.4330 C.3       4 GLP5        0.0000 
     13 CA         48.9100   53.9570   41.8985 C.3       2 GLC5        0.0000 
     14 CA         50.0130   52.4930   43.2010 C.3       4 GLP5        0.0000 
     15 CA         48.5510   59.4160   40.4815 C.3       2 GLC5        0.0000 
     16 CA         47.7830   57.8960   40.2340 C.3       6 GLL5        0.0000 
     17 CA         49.3190   60.9360   40.7290 C.3       4 GLP5        0.0000 
     18 CA         50.7335   44.3680   33.6230 C.3       2 GLC5        0.0000 
     19 CA         51.8480   45.6370   34.6010 C.3       6 GLL5        0.0000 
     20 CA         49.6190   43.0990   32.6450 C.3       4 GLP5        0.0000 
     21 CA         49.8930   58.7445   37.8960 C.3       2 GLC5        0.0000 
     22 CA         49.0160   57.7970   39.4830 C.3       6 GLL5        0.0000 
     23 CA         50.7700   59.6920   36.3090 C.3       4 GLP5        0.0000 
     24 N          50.1850   52.5315   33.2025 N.am      1 SEC2        0.0000 
     25 N          49.2990   51.5200   33.8720 N.am      5 SEL2        0.0000 
     26 N          51.0710   53.5430   32.5330 N.am      3 SEP2        0.0000 
     27 N          49.3315   50.5775   32.6795 N.am      1 SEC2        0.0000 
     28 N          49.3640   49.6350   31.4870 N.am      3 SEP2        0.0000 
     29 CA         49.8740   53.2650   41.4055 C.3       2 GLC5        0.0000 
     30 CA         49.7350   54.0370   39.6100 C.3       6 GLL5        0.0000 
     31 CA         53.0180   50.8090   33.6915 C.3       2 GLC5        0.0000 
     32 CA         52.0050   49.3750   34.6990 C.3       6 GLL5        0.0000 
     33 CA         54.0310   52.2430   32.6840 C.3       4 GLP5        0.0000 
     34 CA         48.8620   50.9402   39.0675 C.3       2 GLC5        0.0000 
     35 CA         47.6080   50.3790   40.3710 C.3       4 GLP5        0.0000 
     36 CA         51.4235   50.1923   38.1890 C.3       2 GLC5        0.0000 
     37 CA         50.1960   51.9300   38.3900 C.3       6 GLL5        0.0000 
     38 CA         52.7310   48.8830   38.6140 C.3       4 GLP5        0.0000 
     39 CA         48.6130   52.0150   39.6593 C.3       2 GLC5        0.0000 
     40 CA         49.5010   53.2650   38.2850 C.3       6 GLL5        0.0000 
     41 CA         51.0365   53.7973   35.5078 C.3       2 GLC5        0.0000 
     42 CA         45.8573   56.8520   39.7037 C.3       2 GLC5        0.0000 
     43 CA         44.2300   56.4010   38.8970 C.3       4 GLP5        0.0000 
     44 CA         46.5693   58.0430   41.9322 C.3       2 GLC5        0.0000 
     45 CA         47.1860   56.7100   40.7870 C.3       6 GLL5        0.0000 
     46 CA         45.6540   58.7830   43.3540 C.3       4 GLP5        0.0000 
     47 CA         50.7510   45.5348   36.3906 C.3       2 GLC5        0.0000 
     48 CA         51.4380   46.9630   34.6410 C.3       6 GLL5        0.0000 
     49 CA         50.2080   44.6950   38.1540 C.3       4 GLP5        0.0000 
     50 CA         50.0247   58.8017   39.8945 C.3       2 GLC5        0.0000 
     51 CA         49.6310   56.5140   39.2970 C.3       6 GLL5        0.0000 
     52 CA         50.7260   60.4480   40.3990 C.3       4 GLP5        0.0000 
     53 CA         49.2580   48.7776   33.2324 C.3       2 GLC5        0.0000 
     54 CA         50.5880   49.6840   34.7210 C.3       6 GLL5        0.0000 
     55 CA         48.3090   48.7440   31.7610 C.3       4 GLP5        0.0000 
     56 CA         53.8432   49.2308   35.5930 C.3       2 GLC5        0.0000 
     57 CA         55.4710   49.7690   36.5080 C.3       4 GLP5        0.0000 
     58 CA         52.4733   48.7878   36.6460 C.3       2 GLC5        0.0000 
@<TRIPOS>BOND
@<TRIPOS>SUBSTRUCTURE
     1 SEC2       24 GROUP        1 X    SEC  0     ROOT SEC X 2
     2 GLC5        1 GROUP        1 X    GLC  0     **** GLC X 6
     3 SEP2       26 GROUP        1 Y    SEP  0     ROOT SEP Y 9
     4 GLP5        3 GROUP        1 Y    GLP  0     **** GLP Y 13
     5 SEL2       25 GROUP        1 Z    SEL  0     ROOT SEL Z 16
     6 GLL5        2 GROUP        1 Z    GLL  0     **** GLL Z 20
@<TRIPOS>SET

