#    Name: 2nsd_4PI_1_ligand
#    Modification time : Tue Mar 25 21:33:54 2014

@<TRIPOS>MOLECULE
2nsd_4PI_1_ligand
   45    47     1     0     0
SMALL
NO_CHARGES


@<TRIPOS>ATOM
      1 C1         51.4380   46.9630   34.6410 C.ar      1 4PI400      0.0000 
      2 C2         50.0420   47.2610   34.6660 C.ar      1 4PI400      0.0000 
      3 C3         49.6100   48.6160   34.7070 C.ar      1 4PI400      0.0000 
      4 C7         50.0360   51.0730   37.1380 C.3       1 4PI400      0.0000 
      5 C8         50.1960   51.9300   38.3900 C.3       1 4PI400      0.0000 
      6 C9         49.5010   53.2650   38.2850 C.3       1 4PI400      0.0000 
      7 C10        50.0110   54.0160   37.0460 C.3       1 4PI400      0.0000 
      8 C11        49.8050   53.2150   35.7570 C.3       1 4PI400      0.0000 
      9 C21        48.7520   55.4100   39.9530 C.ar      1 4PI400      0.0000 
     10 C22        47.8070   55.4210   40.5960 C.ar      1 4PI400      0.0000 
     11 C24        47.7830   57.8960   40.2340 C.ar      1 4PI400      0.0000 
     12 C27        51.8480   45.6370   34.6010 C.3       1 4PI400      0.0000 
     13 C31        50.0090   51.0510   34.6560 C.2       1 4PI400      0.0000 
     14 N12        50.4280   51.7730   35.8140 N.am      1 4PI400      0.0000 
     15 C23        47.1860   56.7100   40.7870 C.ar      1 4PI400      0.0000 
     16 C25        49.0160   57.7970   39.4830 C.ar      1 4PI400      0.0000 
     17 C26        49.6310   56.5140   39.2970 C.ar      1 4PI400      0.0000 
     18 O32        49.2990   51.5200   33.8720 O.2       1 4PI400      0.0000 
     19 C37        49.7350   54.0370   39.6100 C.3       1 4PI400      0.0000 
     20 C4         50.5880   49.6840   34.7210 C.ar      1 4PI400      0.0000 
     21 C5         52.0050   49.3750   34.6990 C.ar      1 4PI400      0.0000 
     22 C6         52.4260   48.0100   34.6570 C.ar      1 4PI400      0.0000 
     23 H          49.3620   46.5076   34.6545 H         1 4PI400      0.0000 
     24 H          48.6242   48.8446   34.7266 H         1 4PI400      0.0000 
     25 H          48.9854   50.7412   37.0571 H         1 4PI400      0.0000 
     26 H          50.6491   50.1600   37.2423 H         1 4PI400      0.0000 
     27 H          51.2692   52.0894   38.5753 H         1 4PI400      0.0000 
     28 H          49.7955   51.3754   39.2523 H         1 4PI400      0.0000 
     29 H          48.4396   53.0905   38.1798 H         1 4PI400      0.0000 
     30 H          51.0767   54.2264   37.1713 H         1 4PI400      0.0000 
     31 H          49.4812   54.9692   36.9647 H         1 4PI400      0.0000 
     32 H          50.2607   53.7478   34.9165 H         1 4PI400      0.0000 
     33 H          48.7342   53.1135   35.5546 H         1 4PI400      0.0000 
     34 H          47.3078   54.6400   41.0778 H         1 4PI400      0.0000 
     35 H          47.3464   58.7962   40.3672 H         1 4PI400      0.0000 
     36 H          46.3223   56.7776   41.3154 H         1 4PI400      0.0000 
     37 H          49.4361   58.6276   39.0950 H         1 4PI400      0.0000 
     38 H          50.4181   56.3076   38.8683 H         1 4PI400      0.0000 
     39 H          50.7686   54.4203   39.6653 H         1 4PI400      0.0000 
     40 H          49.5935   53.3751   40.4818 H         1 4PI400      0.0000 
     41 H          52.6797   50.1237   34.7135 H         1 4PI400      0.0000 
     42 H          53.4087   47.7766   34.6386 H         1 4PI400      0.0000 
     43 H          52.8447   45.5567   34.5885 H         1 4PI400      0.0000 
     44 H          51.5224   45.1235   35.3949 H         1 4PI400      0.0000 
     45 H          51.5059   45.1669   33.7874 H         1 4PI400      0.0000 
@<TRIPOS>BOND
     1    2    1 ar   
     2   12    1 1    
     3   22    1 ar   
     4    3    2 ar   
     5   23    2 1    
     6   20    3 ar   
     7   24    3 1    
     8    5    4 1    
     9   14    4 1    
    10   25    4 1    
    11   26    4 1    
    12    6    5 1    
    13   27    5 1    
    14   28    5 1    
    15    7    6 1    
    16   19    6 1    
    17   29    6 1    
    18    8    7 1    
    19   30    7 1    
    20   31    7 1    
    21   14    8 1    
    22   32    8 1    
    23   33    8 1    
    24   10    9 ar   
    25   17    9 ar   
    26   19    9 1    
    27   15   10 ar   
    28   34   10 1    
    29   15   11 ar   
    30   16   11 ar   
    31   35   11 1    
    32   43   12 1    
    33   44   12 1    
    34   45   12 1    
    35   14   13 am   
    36   18   13 2    
    37   20   13 1    
    38   36   15 1    
    39   17   16 ar   
    40   37   16 1    
    41   38   17 1    
    42   39   19 1    
    43   40   19 1    
    44   21   20 ar   
    45   22   21 ar   
    46   41   21 1    
    47   42   22 1    
@<TRIPOS>SUBSTRUCTURE
     1 4PI400      1 GROUP   
@<TRIPOS>SET

