#    Name: 2qoh_P3Y_1_INTS_M
#    Modification time : Mon Mar 24 22:33:29 2014

@<TRIPOS>MOLECULE
2qoh_P3Y_1_INTS_M
   80     0     9     0     0
SMALL
NO_CHARGES


@<TRIPOS>ATOM
      1 N          -5.5835    9.7785   25.0345 N.am      2 SEC2        0.0000 
      2 N          -4.3300    9.2820   24.2840 N.am      8 SEL2        0.0000 
      3 N          -6.8370   10.2750   25.7850 N.am      5 SEP2        0.0000 
      4 CA         -1.7020    9.4800   25.0810 C.3       3 GLC5        0.0000 
      5 CA         -3.6810    8.4920   25.1910 C.3       9 GLL5        0.0000 
      6 CA          0.2770   10.4680   24.9710 C.3       6 GLP5        0.0000 
      7 CA         -5.7280    8.2655   25.3540 C.3       3 GLC5        0.0000 
      8 CA         -7.7750    8.0390   25.5170 C.3       6 GLP5        0.0000 
      9 CA         -5.1025   10.8790   24.0255 C.3       3 GLC5        0.0000 
     10 CA         -4.0160    9.2540   22.9490 C.3       9 GLL5        0.0000 
     11 CA         -6.1890   12.5040   25.1020 C.3       6 GLP5        0.0000 
     12 CA         -5.8060    9.6570   20.3485 C.3       3 GLC5        0.0000 
     13 CA         -3.9350    9.5940   20.8170 C.3       9 GLL5        0.0000 
     14 CA         -7.6770    9.7200   19.8800 C.3       6 GLP5        0.0000 
     15 CA         -4.6405   11.3150   19.7750 C.3       3 GLC5        0.0000 
     16 CA         -5.3460   13.0360   18.7330 C.3       6 GLP5        0.0000 
     17 O          -5.4805   11.1320   22.1345 O.2       1 ALC1        0.0000 
     18 O          -4.6030    9.9910   21.9510 O.2       7 ALL1        0.0000 
     19 O          -6.3580   12.2730   22.3180 O.2       4 ALP1        0.0000 
     20 CA         -3.7260    5.9455   19.2750 C.3       3 GLC5        0.0000 
     21 CA         -1.7860    6.5760   19.9090 C.3       9 GLL5        0.0000 
     22 CA         -5.6660    5.3150   18.6410 C.3       6 GLP5        0.0000 
     23 CA          1.0160    5.6825   19.7530 C.3       3 GLC5        0.0000 
     24 CA         -0.9080    6.0890   18.8770 C.3       9 GLL5        0.0000 
     25 CA          2.9400    5.2760   20.6290 C.3       6 GLP5        0.0000 
     26 CA          0.8795    9.1445   16.6855 C.3       3 GLC5        0.0000 
     27 CA         -0.5290    8.3520   18.0760 C.3       9 GLL5        0.0000 
     28 CA          2.2880    9.9370   15.2950 C.3       6 GLP5        0.0000 
     29 CA         -2.4305    3.3530   25.2520 C.3       3 GLC5        0.0000 
     30 CA         -1.7690    5.3190   25.5640 C.3       9 GLL5        0.0000 
     31 CA         -3.0920    1.3870   24.9400 C.3       6 GLP5        0.0000 
     32 N          -2.5150    3.7035   26.5630 N.am      2 SEC2        0.0000 
     33 N          -1.1130    4.5020   26.4570 N.am      8 SEL2        0.0000 
     34 N          -3.9170    2.9050   26.6690 N.am      5 SEP2        0.0000 
     35 N          -1.0740    2.9330   26.3320 N.am      2 SEC2        0.0000 
     36 N          -1.0350    1.3640   26.2070 N.am      5 SEP2        0.0000 
     37 N           1.9020    6.7610   28.1815 N.am      2 SEC2        0.0000 
     38 N           1.0560    6.9700   29.2950 N.am      8 SEL2        0.0000 
     39 N           2.7480    6.5520   27.0680 N.am      5 SEP2        0.0000 
     40 CA         -3.2960    5.9570   29.2665 C.3       3 GLC5        0.0000 
     41 CA         -2.2980    7.0490   30.4830 C.3       9 GLL5        0.0000 
     42 CA         -4.2940    4.8650   28.0500 C.3       6 GLP5        0.0000 
     43 CA         -1.6150   10.0000   29.6450 C.3       3 GLC5        0.0000 
     44 CA         -0.5140    8.8570   30.6420 C.3       9 GLL5        0.0000 
     45 CA         -2.7160   11.1430   28.6480 C.3       6 GLP5        0.0000 
     46 CA         -1.0595    3.4000   20.9255 C.3       3 GLC5        0.0000 
     47 CA         -2.5830    4.3260   20.5700 C.3       9 GLL5        0.0000 
     48 CA          0.4640    2.4740   21.2810 C.3       6 GLP5        0.0000 
     49 CA         -3.2195    2.4215   20.0040 C.3       3 GLC5        0.0000 
     50 CA         -3.8560    0.5170   19.4380 C.3       6 GLP5        0.0000 
     51 CA         -3.7445    4.6505   22.0715 C.3       3 GLC5        0.0000 
     52 CA         -4.9060    4.9750   23.5730 C.3       6 GLP5        0.0000 
     53 CA         -4.1245    4.8205   19.6055 C.3       3 GLC5        0.0000 
     54 CA         -3.8246    6.3961   23.8874 C.3       3 GLC5        0.0000 
     55 CA         -2.3220    7.5860   23.4120 C.3       9 GLL5        0.0000 
     56 CA         -0.1425    9.2298   20.3795 C.3       3 GLC5        0.0000 
     57 CA         -2.0240    7.9930   20.0120 C.3       9 GLL5        0.0000 
     58 CA          1.4200   10.0370   21.2110 C.3       6 GLP5        0.0000 
     59 CA         -1.3845    5.1588   17.1830 C.3       3 GLC5        0.0000 
     60 CA         -0.2940    6.9720   17.9750 C.3       9 GLL5        0.0000 
     61 CA         -2.1680    3.7870   15.9400 C.3       6 GLP5        0.0000 
     62 CA          1.1583    8.3090   18.7103 C.3       3 GLC5        0.0000 
     63 CA          2.7280    8.9560   19.3950 C.3       6 GLP5        0.0000 
     64 CA         -0.4467    7.7454   24.5947 C.3       3 GLC5        0.0000 
     65 CA         -2.6480    7.6050   24.7920 C.3       9 GLL5        0.0000 
     66 CA          1.3160    8.3320   24.2490 C.3       6 GLP5        0.0000 
     67 CA         -3.3788    5.4977   24.6223 C.3       3 GLC5        0.0000 
     68 CA          1.0888    5.4313   27.2728 C.3       3 GLC5        0.0000 
     69 CA         -0.5920    5.0430   27.6060 C.3       9 GLL5        0.0000 
     70 CA          2.8350    5.1260   26.8000 C.3       6 GLP5        0.0000 
     71 CA          0.4340    8.0930   26.9315 C.3       3 GLC5        0.0000 
     72 CA         -0.7230    6.4300   27.8850 C.3       9 GLL5        0.0000 
     73 CA          1.9290    9.3470   26.4440 C.3       6 GLP5        0.0000 
     74 CA         -2.8654   10.6675   22.0757 C.3       3 GLC5        0.0000 
     75 CA         -3.0230    8.4280   22.4740 C.3       9 GLL5        0.0000 
     76 CA         -2.2550   12.3610   22.3290 C.3       6 GLP5        0.0000 
     77 CA         -4.7394    7.7855   21.9032 C.3       3 GLC5        0.0000 
     78 CA         -6.0030    6.5970   21.9840 C.3       6 GLP5        0.0000 
     79 CA         -2.7177    5.5252   27.5394 C.3       3 GLC5        0.0000 
     80 CA         -1.3990    7.2480   26.9530 C.3       9 GLL5        0.0000 
@<TRIPOS>BOND
@<TRIPOS>SUBSTRUCTURE
     1 ALC1       17 GROUP        1 X    ALC  0     ROOT ALC X 1
     2 SEC2        1 GROUP        1 X    SEC  0     **** SEC X 2
     3 GLC5        4 GROUP        1 X    GLC  0     **** GLC X 6
     4 ALP1       19 GROUP        1 Y    ALP  0     ROOT ALP Y 8
     5 SEP2        3 GROUP        1 Y    SEP  0     **** SEP Y 9
     6 GLP5        6 GROUP        1 Y    GLP  0     **** GLP Y 13
     7 ALL1       18 GROUP        1 Z    ALL  0     ROOT ALL Z 15
     8 SEL2        2 GROUP        1 Z    SEL  0     **** SEL Z 16
     9 GLL5        5 GROUP        1 Z    GLL  0     **** GLL Z 20
@<TRIPOS>SET

