#    Name: 2qoh_P3Y_1_ligand
#    Modification time : Mon Mar 24 22:33:30 2014

@<TRIPOS>MOLECULE
2qoh_P3Y_1_ligand
   48    51     1     0     0
SMALL
NO_CHARGES


@<TRIPOS>ATOM
      1 N1         -4.3300    9.2820   24.2840 N.ar      1 P3Y1        0.0000 
      2 C2         -3.6810    8.4920   25.1910 C.ar      1 P3Y1        0.0000 
      3 C3         -2.6480    7.6050   24.7920 C.ar      1 P3Y1        0.0000 
      4 C4         -2.3220    7.5860   23.4120 C.ar      1 P3Y1        0.0000 
      5 C5         -3.0230    8.4280   22.4740 C.ar      1 P3Y1        0.0000 
      6 C6         -4.0160    9.2540   22.9490 C.ar      1 P3Y1        0.0000 
      7 C9         -2.9290    8.6200   21.0500 C.2       1 P3Y1        0.0000 
      8 C10        -3.9350    9.5940   20.8170 C.2       1 P3Y1        0.0000 
      9 N11        -4.6030    9.9910   21.9510 N.pl3     1 P3Y1        0.0000 
     10 C14        -2.0240    7.9930   20.0120 C.ar      1 P3Y1        0.0000 
     11 C15        -1.7860    6.5760   19.9090 C.ar      1 P3Y1        0.0000 
     12 C16        -0.9080    6.0890   18.8770 C.ar      1 P3Y1        0.0000 
     13 C17        -0.2940    6.9720   17.9750 C.ar      1 P3Y1        0.0000 
     14 C18        -0.5290    8.3520   18.0760 C.ar      1 P3Y1        0.0000 
     15 C19        -1.3860    8.8520   19.0840 C.ar      1 P3Y1        0.0000 
     16 O1         -2.4310    5.7350   20.8330 O.3       1 P3Y1        0.0000 
     17 C24        -1.9340    6.7220   25.7790 C.ar      1 P3Y1        0.0000 
     18 C25        -1.7690    5.3190   25.5640 C.ar      1 P3Y1        0.0000 
     19 N26        -1.1130    4.5020   26.4570 N.ar      1 P3Y1        0.0000 
     20 C27        -0.5920    5.0430   27.6060 C.ar      1 P3Y1        0.0000 
     21 C28        -0.7230    6.4300   27.8850 C.ar      1 P3Y1        0.0000 
     22 C29        -1.3990    7.2480   26.9530 C.ar      1 P3Y1        0.0000 
     23 C33        -0.1550    7.0020   29.1110 C.2       1 P3Y1        0.0000 
     24 O34         1.0560    6.9700   29.2950 O.2       1 P3Y1        0.0000 
     25 N35        -1.0060    7.6070   30.0220 N.am      1 P3Y1        0.0000 
     26 C41        -2.2980    7.0490   30.4830 C.3       1 P3Y1        0.0000 
     27 C45        -0.5140    8.8570   30.6420 C.3       1 P3Y1        0.0000 
     28 C1         -2.5830    4.3260   20.5700 C.3       1 P3Y1        0.0000 
     29 H          -3.9323    8.5251   26.1970 H         1 P3Y1        0.0000 
     30 H          -1.5824    6.9714   23.0673 H         1 P3Y1        0.0000 
     31 H          -4.1206    9.9404   19.9139 H         1 P3Y1        0.0000 
     32 H          -5.2879   10.6103   22.0231 H         1 P3Y1        0.0000 
     33 H          -0.7389    5.0801   18.8130 H         1 P3Y1        0.0000 
     34 H           0.3245    6.6098   17.2444 H         1 P3Y1        0.0000 
     35 H          -0.0829    9.0000   17.4231 H         1 P3Y1        0.0000 
     36 H          -1.5513    9.8690   19.1456 H         1 P3Y1        0.0000 
     37 H          -2.1699    4.9182   24.6878 H         1 P3Y1        0.0000 
     38 H          -0.0940    4.4510   28.2907 H         1 P3Y1        0.0000 
     39 H          -1.4946    8.2580   27.1538 H         1 P3Y1        0.0000 
     40 H          -2.1813    6.1616   30.9289 H         1 P3Y1        0.0000 
     41 H          -2.7486    7.6512   31.1420 H         1 P3Y1        0.0000 
     42 H          -2.9361    6.9144   29.7249 H         1 P3Y1        0.0000 
     43 H           0.3367    8.7113   31.1470 H         1 P3Y1        0.0000 
     44 H          -0.3317    9.5638   29.9585 H         1 P3Y1        0.0000 
     45 H          -1.1765    9.2372   31.2874 H         1 P3Y1        0.0000 
     46 H          -1.6993    3.8720   20.4562 H         1 P3Y1        0.0000 
     47 H          -3.0590    3.8584   21.3148 H         1 P3Y1        0.0000 
     48 H          -3.1082    4.1585   19.7357 H         1 P3Y1        0.0000 
@<TRIPOS>BOND
     1    2    1 ar   
     2    6    1 ar   
     3    3    2 ar   
     4   29    2 1    
     5    4    3 ar   
     6   17    3 1    
     7    5    4 ar   
     8   30    4 1    
     9    6    5 ar   
    10    7    5 1    
    11    9    6 1    
    12    8    7 2    
    13   10    7 1    
    14    9    8 1    
    15   31    8 1    
    16   32    9 1    
    17   11   10 ar   
    18   15   10 ar   
    19   12   11 ar   
    20   16   11 1    
    21   13   12 ar   
    22   33   12 1    
    23   14   13 ar   
    24   34   13 1    
    25   15   14 ar   
    26   35   14 1    
    27   36   15 1    
    28   28   16 1    
    29   18   17 ar   
    30   22   17 ar   
    31   19   18 ar   
    32   37   18 1    
    33   20   19 ar   
    34   21   20 ar   
    35   38   20 1    
    36   22   21 ar   
    37   23   21 1    
    38   39   22 1    
    39   24   23 2    
    40   25   23 am   
    41   26   25 1    
    42   27   25 1    
    43   40   26 1    
    44   41   26 1    
    45   42   26 1    
    46   43   27 1    
    47   44   27 1    
    48   45   27 1    
    49   46   28 1    
    50   47   28 1    
    51   48   28 1    
@<TRIPOS>SUBSTRUCTURE
     1 P3Y1        1 GROUP   
@<TRIPOS>SET

