#    Name: 1bvy_FMN_1_INTS_M
#    Modification time : Mon Mar 24 19:52:13 2014

@<TRIPOS>MOLECULE
1bvy_FMN_1_INTS_M
   73     0     9     0     0
SMALL
NO_CHARGES


@<TRIPOS>ATOM
      1 N          15.2665   70.1420   69.7080 N.am      2 SEC2        0.0000 
      2 N          15.7900   69.5840   68.3590 N.am      8 SEL2        0.0000 
      3 N          14.7430   70.7000   71.0570 N.am      5 SEP2        0.0000 
      4 N          14.8285   71.1335   69.4420 N.am      2 SEC2        0.0000 
      5 N          14.9140   71.5670   67.8270 N.am      8 SEL2        0.0000 
      6 N          14.4360   72.7180   67.0710 N.am      2 SEC2        0.0000 
      7 N          13.9580   73.8690   66.3150 N.am      5 SEP2        0.0000 
      8 O          16.3470   71.9715   65.4690 O.2       1 ALC1        0.0000 
      9 O          16.3590   70.7610   66.3270 O.2       7 ALL1        0.0000 
     10 O          16.3350   73.1820   64.6110 O.2       4 ALP1        0.0000 
     11 N          17.9590   69.5135   63.5635 N.am      2 SEC2        0.0000 
     12 N          17.8320   69.8350   64.9170 N.am      8 SEL2        0.0000 
     13 N          18.0860   69.1920   62.2100 N.am      5 SEP2        0.0000 
     14 N          18.4090   67.3210   65.1930 N.am      2 SEC2        0.0000 
     15 N          18.2000   67.6090   66.4900 N.am      8 SEL2        0.0000 
     16 N          18.6180   67.0330   63.8960 N.am      5 SEP2        0.0000 
     17 CA         20.1115   61.3195   66.1185 C.3       3 GLC5        0.0000 
     18 CA         20.1110   63.0940   67.2090 C.3       9 GLL5        0.0000 
     19 CA         20.1120   59.5450   65.0280 C.3       6 GLP5        0.0000 
     20 CA         18.2685   63.0470   66.5455 C.3       3 GLC5        0.0000 
     21 CA         16.4260   63.0000   65.8820 C.3       6 GLP5        0.0000 
     22 CA         20.4065   64.6560   68.5640 C.3       3 GLC5        0.0000 
     23 CA         20.7020   66.2180   69.9190 C.3       6 GLP5        0.0000 
     24 CA         17.0995   62.6285   68.2585 C.3       3 GLC5        0.0000 
     25 CA         18.3990   62.7990   69.5290 C.3       9 GLL5        0.0000 
     26 CA         15.8000   62.4580   66.9880 C.3       6 GLP5        0.0000 
     27 CA         19.1565   64.5200   70.2825 C.3       3 GLC5        0.0000 
     28 CA         19.9140   66.2410   71.0360 C.3       6 GLP5        0.0000 
     29 CA         14.2040   68.9280   69.9420 C.3       3 GLC5        0.0000 
     30 CA         15.7720   67.3170   69.9420 C.3       9 GLL5        0.0000 
     31 CA         12.6360   70.5390   69.9420 C.3       6 GLP5        0.0000 
     32 CA         16.1015   68.4045   71.1665 C.3       3 GLC5        0.0000 
     33 CA         16.4310   69.4920   72.3910 C.3       6 GLP5        0.0000 
     34 CA         17.4525   67.9020   70.2705 C.3       3 GLC5        0.0000 
     35 CA         19.1330   68.4870   70.5990 C.3       6 GLP5        0.0000 
     36 O          14.3480   66.8725   67.1950 O.2       1 ALC1        0.0000 
     37 O          13.7800   67.0300   68.5530 O.2       7 ALL1        0.0000 
     38 O          14.9160   66.7150   65.8370 O.2       4 ALP1        0.0000 
     39 CA         13.1310   68.4230   70.3830 C.3       3 GLC5        0.0000 
     40 CA         13.6260   66.3070   70.8240 C.3       9 GLL5        0.0000 
     41 CA         10.4425   66.8845   70.0590 C.3       3 GLC5        0.0000 
     42 CA         12.2810   65.7700   70.2890 C.3       9 GLL5        0.0000 
     43 CA          8.6040   67.9990   69.8290 C.3       6 GLP5        0.0000 
     44 CA         10.5830   63.8715   71.2850 C.3       3 GLC5        0.0000 
     45 CA         12.3480   64.2460   70.1040 C.3       9 GLL5        0.0000 
     46 CA          8.8180   63.4970   72.4660 C.3       6 GLP5        0.0000 
     47 CA         13.3875   63.3985   68.5995 C.3       3 GLC5        0.0000 
     48 CA         14.4270   62.5510   67.0950 C.3       6 GLP5        0.0000 
     49 N           8.4580   61.6580   68.3300 N.am      2 SEC2        0.0000 
     50 N           9.0740   62.5090   68.7920 N.am      8 SEL2        0.0000 
     51 N           7.8420   60.8070   67.8680 N.am      5 SEP2        0.0000 
     52 N           7.9235   63.0470   69.5235 N.am      2 SEC2        0.0000 
     53 N           6.7730   63.5850   70.2550 N.am      5 SEP2        0.0000 
     54 N           9.3690   61.4680   70.9380 N.am      2 SEC2        0.0000 
     55 N          10.7090   61.5870   70.3180 N.am      8 SEL2        0.0000 
     56 N           8.0290   61.3490   71.5580 N.am      5 SEP2        0.0000 
     57 N          10.2720   62.1890   71.7510 N.am      2 SEC2        0.0000 
     58 N           9.8350   62.7910   73.1840 N.am      5 SEP2        0.0000 
     59 N          10.8550   61.1265   66.9890 N.am      2 SEC2        0.0000 
     60 N          11.3070   62.0420   68.0450 N.am      8 SEL2        0.0000 
     61 N          10.4030   60.2110   65.9330 N.am      5 SEP2        0.0000 
     62 N          11.3450   60.6245   68.2145 N.am      2 SEC2        0.0000 
     63 N          11.3830   59.2070   68.3840 N.am      5 SEP2        0.0000 
     64 CA         17.6295   65.8398   65.4730 C.3       3 GLC5        0.0000 
     65 CA         18.2320   66.4660   67.1700 C.3       9 GLL5        0.0000 
     66 CA         16.5900   65.7360   63.9430 C.3       6 GLP5        0.0000 
     67 CA         19.2010   66.8417   65.1410 C.3       3 GLC5        0.0000 
     68 CA         19.7330   67.7400   63.2790 C.3       6 GLP5        0.0000 
     69 CA         17.3875   61.8310   69.2232 C.3       3 GLC5        0.0000 
     70 CA         18.3590   64.0870   68.6940 C.3       9 GLL5        0.0000 
     71 CA         16.3960   60.2190   69.3350 C.3       6 GLP5        0.0000 
     72 CA         11.5348   65.3905   68.5018 C.3       3 GLC5        0.0000 
     73 CA         10.7550   65.7730   66.8070 C.3       6 GLP5        0.0000 
@<TRIPOS>BOND
@<TRIPOS>SUBSTRUCTURE
     1 ALC1        8 GROUP        1 X    ALC  0     ROOT ALC X 1
     2 SEC2        1 GROUP        1 X    SEC  0     **** SEC X 2
     3 GLC5       17 GROUP        1 X    GLC  0     **** GLC X 6
     4 ALP1       10 GROUP        1 Y    ALP  0     ROOT ALP Y 8
     5 SEP2        3 GROUP        1 Y    SEP  0     **** SEP Y 9
     6 GLP5       19 GROUP        1 Y    GLP  0     **** GLP Y 13
     7 ALL1        9 GROUP        1 Z    ALL  0     ROOT ALL Z 15
     8 SEL2        2 GROUP        1 Z    SEL  0     **** SEL Z 16
     9 GLL5       18 GROUP        1 Z    GLL  0     **** GLL Z 20
@<TRIPOS>SET

