#    Name: 1bvy_FMN_1_ligand
#    Modification time : Mon Mar 24 19:52:13 2014

@<TRIPOS>MOLECULE
1bvy_FMN_1_ligand
   50    52     1     0     0
SMALL
NO_CHARGES


@<TRIPOS>ATOM
      1 N1         15.7900   69.5840   68.3590 N.2       1 FMN1002     0.0000 
      2 C2         15.6620   70.6440   67.5450 C.2       1 FMN1002     0.0000 
      3 O2         14.9140   71.5670   67.8270 O.2       1 FMN1002     0.0000 
      4 N3         16.3590   70.7610   66.3270 N.am      1 FMN1002     0.0000 
      5 C4         17.2310   69.7230   65.9620 C.2       1 FMN1002     0.0000 
      6 O4         17.8320   69.8350   64.9170 O.2       1 FMN1002     0.0000 
      7 C4A        17.4330   68.6410   66.8140 C.2       1 FMN1002     0.0000 
      8 N5         18.2000   67.6090   66.4900 N.2       1 FMN1002     0.0000 
      9 C5A        18.2320   66.4660   67.1700 C.ar      1 FMN1002     0.0000 
     10 C6         19.1060   65.4210   66.8360 C.ar      1 FMN1002     0.0000 
     11 C7         19.1760   64.2450   67.5730 C.ar      1 FMN1002     0.0000 
     12 C7M        20.1110   63.0940   67.2090 C.3       1 FMN1002     0.0000 
     13 C8         18.3590   64.0870   68.6940 C.ar      1 FMN1002     0.0000 
     14 C8M        18.3990   62.7990   69.5290 C.3       1 FMN1002     0.0000 
     15 C9         17.5270   65.1370   69.0510 C.ar      1 FMN1002     0.0000 
     16 C9A        17.4360   66.3160   68.3250 C.ar      1 FMN1002     0.0000 
     17 N10        16.6010   67.3720   68.7220 N.pl3     1 FMN1002     0.0000 
     18 C10        16.6240   68.5800   67.9800 C.2       1 FMN1002     0.0000 
     19 C1'        15.7720   67.3170   69.9420 C.3       1 FMN1002     0.0000 
     20 C2'        14.5670   66.4460   69.6030 C.3       1 FMN1002     0.0000 
     21 O2'        13.7800   67.0300   68.5530 O.3       1 FMN1002     0.0000 
     22 C3'        13.6260   66.3070   70.8240 C.3       1 FMN1002     0.0000 
     23 O3'        14.1700   65.2550   71.6550 O.3       1 FMN1002     0.0000 
     24 C4'        12.2810   65.7700   70.2890 C.3       1 FMN1002     0.0000 
     25 O4'        11.5190   66.0680   71.4630 O.3       1 FMN1002     0.0000 
     26 C5'        12.3480   64.2460   70.1040 C.3       1 FMN1002     0.0000 
     27 O5'        10.9270   63.9630   69.5790 O.3       1 FMN1002     0.0000 
     28 P          10.5280   62.6070   69.2060 P.3       1 FMN1002     0.0000 
     29 O1P         9.0740   62.5090   68.7920 O.co2     1 FMN1002     0.0000 
     30 O2P        10.7090   61.5870   70.3180 O.co2     1 FMN1002     0.0000 
     31 O3P        11.3070   62.0420   68.0450 O.co2     1 FMN1002     0.0000 
     32 H          16.2339   71.5690   65.7346 H         1 FMN1002     0.0000 
     33 H          19.7237   65.5361   66.0031 H         1 FMN1002     0.0000 
     34 H          16.9351   65.0353   69.9151 H         1 FMN1002     0.0000 
     35 H          15.4264   68.2991   70.2161 H         1 FMN1002     0.0000 
     36 H          16.3134   66.8625   70.7540 H         1 FMN1002     0.0000 
     37 H          14.8983   65.4620   69.3372 H         1 FMN1002     0.0000 
     38 H          13.5017   67.1986   71.2956 H         1 FMN1002     0.0000 
     39 H          11.9979   66.2795   69.4747 H         1 FMN1002     0.0000 
     40 H          12.4817   63.7800   71.0304 H         1 FMN1002     0.0000 
     41 H          13.0508   64.0069   69.3677 H         1 FMN1002     0.0000 
     42 H          21.0701   63.3770   67.2199 H         1 FMN1002     0.0000 
     43 H          20.0239   62.3288   67.8469 H         1 FMN1002     0.0000 
     44 H          19.9213   62.7364   66.2946 H         1 FMN1002     0.0000 
     45 H          19.3082   62.6317   69.9104 H         1 FMN1002     0.0000 
     46 H          17.7607   62.8349   70.2979 H         1 FMN1002     0.0000 
     47 H          18.1572   61.9958   68.9846 H         1 FMN1002     0.0000 
     48 H          14.2916   66.8464   67.7136 H         1 FMN1002     0.0000 
     49 H          14.1929   64.4465   71.0669 H         1 FMN1002     0.0000 
     50 H          11.5769   67.0612   71.5638 H         1 FMN1002     0.0000 
@<TRIPOS>BOND
     1    2    1 1    
     2   18    1 2    
     3    3    2 2    
     4    4    2 am   
     5    5    4 am   
     6   32    4 1    
     7    6    5 2    
     8    7    5 1    
     9    8    7 2    
    10   18    7 1    
    11    9    8 1    
    12   10    9 ar   
    13   16    9 ar   
    14   11   10 ar   
    15   33   10 1    
    16   12   11 1    
    17   13   11 ar   
    18   42   12 1    
    19   43   12 1    
    20   44   12 1    
    21   14   13 1    
    22   15   13 ar   
    23   45   14 1    
    24   46   14 1    
    25   47   14 1    
    26   16   15 ar   
    27   34   15 1    
    28   17   16 1    
    29   18   17 1    
    30   19   17 1    
    31   20   19 1    
    32   35   19 1    
    33   36   19 1    
    34   21   20 1    
    35   22   20 1    
    36   37   20 1    
    37   48   21 1    
    38   23   22 1    
    39   24   22 1    
    40   38   22 1    
    41   49   23 1    
    42   25   24 1    
    43   26   24 1    
    44   39   24 1    
    45   50   25 1    
    46   27   26 1    
    47   40   26 1    
    48   41   26 1    
    49   28   27 1    
    50   29   28 ar   
    51   30   28 ar   
    52   31   28 ar   
@<TRIPOS>SUBSTRUCTURE
     1 FMN1002     1 GROUP   
@<TRIPOS>SET

