#    Name: 4acg_6LQ_1_INTS_M
#    Modification time : Tue Mar 25 05:29:07 2014

@<TRIPOS>MOLECULE
4acg_6LQ_1_INTS_M
   70     0     9     0     0
SMALL
NO_CHARGES


@<TRIPOS>ATOM
      1 CA         21.0960   24.9115   11.3010 C.3       3 GLC5        0.0000 
      2 CA         19.0350   24.6060   10.9760 C.3       9 GLL5        0.0000 
      3 CA         23.1570   25.2170   11.6260 C.3       6 GLP5        0.0000 
      4 CA         19.4360   19.2325    7.0150 C.3       3 GLC5        0.0000 
      5 CA         20.6420   20.0930    8.6170 C.3       9 GLL5        0.0000 
      6 CA         18.2300   18.3720    5.4130 C.3       6 GLP5        0.0000 
      7 CA         22.5215   22.0955   11.5180 C.3       3 GLC5        0.0000 
      8 CA         21.5080   20.3660   10.8700 C.3       9 GLL5        0.0000 
      9 CA         23.5350   23.8250   12.1660 C.3       6 GLP5        0.0000 
     10 N          25.3460   20.1540    5.1770 N.am      2 SEC2        0.0000 
     11 N          25.9340   19.8850    6.7580 N.am      8 SEL2        0.0000 
     12 N          24.7580   20.4230    3.5960 N.am      5 SEP2        0.0000 
     13 CA         26.7365   21.1365    7.5410 C.3       3 GLC5        0.0000 
     14 CA         24.7470   20.1490    7.2660 C.3       9 GLL5        0.0000 
     15 CA         28.7260   22.1240    7.8160 C.3       6 GLP5        0.0000 
     16 CA         25.6710   21.0960    5.5250 C.3       3 GLC5        0.0000 
     17 CA         26.5950   22.0430    3.7840 C.3       6 GLP5        0.0000 
     18 CA         24.1875   19.9360    5.1190 C.3       3 GLC5        0.0000 
     19 CA         23.6280   19.7230    2.9720 C.3       6 GLP5        0.0000 
     20 CA         24.9815   18.3545    6.5475 C.3       3 GLC5        0.0000 
     21 CA         25.2160   16.5600    5.8290 C.3       6 GLP5        0.0000 
     22 O          28.3190   19.5805    5.5060 O.2       1 ALC1        0.0000 
     23 O          27.9750   18.9120    6.7080 O.2       7 ALL1        0.0000 
     24 O          28.6630   20.2490    4.3040 O.2       4 ALP1        0.0000 
     25 CA         30.9000   16.7220   12.2695 C.3       3 GLC5        0.0000 
     26 CA         29.0370   16.3810   11.7130 C.3       9 GLL5        0.0000 
     27 CA         32.7630   17.0630   12.8260 C.3       6 GLP5        0.0000 
     28 N          31.0265   15.1285   13.0030 N.am      2 SEC2        0.0000 
     29 N          29.6380   15.5260   12.5330 N.am      8 SEL2        0.0000 
     30 N          32.4150   14.7310   13.4730 N.am      5 SEP2        0.0000 
     31 CA         30.9010   15.3240   13.5630 C.3       3 GLC5        0.0000 
     32 CA         28.9570   14.5820   13.1800 C.3       9 GLL5        0.0000 
     33 CA         32.8450   16.0660   13.9460 C.3       6 GLP5        0.0000 
     34 CA         26.7475   18.3335   13.3415 C.3       3 GLC5        0.0000 
     35 CA         24.8990   17.2200   12.9580 C.3       9 GLL5        0.0000 
     36 CA         28.5960   19.4470   13.7250 C.3       6 GLP5        0.0000 
     37 CA         24.0210   19.3305   14.5635 C.3       3 GLC5        0.0000 
     38 CA         23.4910   17.7960   13.2030 C.3       9 GLL5        0.0000 
     39 CA         24.5510   20.8650   15.9240 C.3       6 GLP5        0.0000 
     40 CA         21.5785   14.7825   13.3320 C.3       3 GLC5        0.0000 
     41 CA         22.6040   16.5380   12.9120 C.3       9 GLL5        0.0000 
     42 CA         20.5530   13.0270   13.7520 C.3       6 GLP5        0.0000 
     43 CA         21.6815   16.0780   10.3700 C.3       3 GLC5        0.0000 
     44 CA         23.2540   16.0050   11.6270 C.3       9 GLL5        0.0000 
     45 CA         20.1090   16.1510    9.1130 C.3       6 GLP5        0.0000 
     46 CA         23.2720   15.9965    9.4200 C.3       3 GLC5        0.0000 
     47 CA         23.2900   15.9880    7.2130 C.3       6 GLP5        0.0000 
     48 CA         20.6706   18.0980    8.9207 C.3       3 GLC5        0.0000 
     49 CA         22.8795   17.9545    7.9090 C.3       3 GLC5        0.0000 
     50 CA         21.9250   19.8850    8.1600 C.3       9 GLL5        0.0000 
     51 CA         23.9047   21.5963    9.9030 C.3       3 GLC5        0.0000 
     52 CA         23.0130   19.9570    9.0500 C.3       9 GLL5        0.0000 
     53 CA         24.9060   23.1210   10.0740 C.3       6 GLP5        0.0000 
     54 CA         24.0650   17.6405    8.0590 C.3       3 GLC5        0.0000 
     55 CA         24.3810   19.6790    8.5350 C.3       9 GLL5        0.0000 
     56 CA         26.9925   19.8517   10.3920 C.3       3 GLC5        0.0000 
     57 CA         25.2990   18.9070    9.2750 C.3       9 GLL5        0.0000 
     58 CA         28.0570   20.9320   11.7960 C.3       6 GLP5        0.0000 
     59 CA         27.7065   20.5075    7.9318 C.3       3 GLC5        0.0000 
     60 CA         26.5570   18.6360    8.7010 C.3       9 GLL5        0.0000 
     61 CA         25.9515   17.7255    6.9383 C.3       3 GLC5        0.0000 
     62 CA         26.8170   19.1460    7.3940 C.3       9 GLL5        0.0000 
     63 CA         24.8498   21.4210    9.0798 C.3       3 GLC5        0.0000 
     64 CA         28.4765   17.8828   12.6440 C.3       3 GLC5        0.0000 
     65 CA         27.6770   16.2560   11.4130 C.3       9 GLL5        0.0000 
     66 CA         28.2750   13.2055   11.9914 C.3       3 GLC5        0.0000 
     67 CA         27.6010   14.3920   12.9370 C.3       9 GLL5        0.0000 
     68 CA         28.9380   11.5480   11.4310 C.3       6 GLP5        0.0000 
     69 CA         26.3712   14.6099   10.1490 C.3       3 GLC5        0.0000 
     70 CA         26.3550   13.8300    8.5200 C.3       6 GLP5        0.0000 
@<TRIPOS>BOND
@<TRIPOS>SUBSTRUCTURE
     1 ALC1       22 GROUP        1 X    ALC  0     ROOT ALC X 1
     2 SEC2       10 GROUP        1 X    SEC  0     **** SEC X 2
     3 GLC5        1 GROUP        1 X    GLC  0     **** GLC X 6
     4 ALP1       24 GROUP        1 Y    ALP  0     ROOT ALP Y 8
     5 SEP2       12 GROUP        1 Y    SEP  0     **** SEP Y 9
     6 GLP5        3 GROUP        1 Y    GLP  0     **** GLP Y 13
     7 ALL1       23 GROUP        1 Z    ALL  0     ROOT ALL Z 15
     8 SEL2       11 GROUP        1 Z    SEL  0     **** SEL Z 16
     9 GLL5        2 GROUP        1 Z    GLL  0     **** GLL Z 20
@<TRIPOS>SET

