#    Name: 4acg_6LQ_1_ligand
#    Modification time : Tue Mar 25 05:29:08 2014

@<TRIPOS>MOLECULE
4acg_6LQ_1_ligand
   73    77     1     0     0
SMALL
NO_CHARGES


@<TRIPOS>ATOM
      1 C1         18.0170   26.3730    9.6230 C.3       1 6LQ1385     0.0000 
      2 N2         18.0370   24.9360    9.9380 N.4       1 6LQ1385     0.0000 
      3 C3         18.2580   24.1300    8.7230 C.3       1 6LQ1385     0.0000 
      4 C4         17.9700   22.6500    9.0380 C.3       1 6LQ1385     0.0000 
      5 N5         18.5340   22.2130   10.3470 N.pl3     1 6LQ1385     0.0000 
      6 C6         18.8580   23.1510   11.4500 C.3       1 6LQ1385     0.0000 
      7 C7         19.0350   24.6060   10.9760 C.3       1 6LQ1385     0.0000 
      8 S8         18.8000   20.5950   10.5720 S.o2      1 6LQ1385     0.0000 
      9 O9         18.8070   20.3240   11.9610 O.2       1 6LQ1385     0.0000 
     10 O10        18.0070   19.8580    9.6480 O.2       1 6LQ1385     0.0000 
     11 C11        20.4370   20.3170    9.9770 C.ar      1 6LQ1385     0.0000 
     12 C12        20.6420   20.0930    8.6170 C.ar      1 6LQ1385     0.0000 
     13 C13        21.9250   19.8850    8.1600 C.ar      1 6LQ1385     0.0000 
     14 C14        23.0130   19.9570    9.0500 C.ar      1 6LQ1385     0.0000 
     15 C15        22.7940   20.1860   10.4140 C.ar      1 6LQ1385     0.0000 
     16 C16        21.5080   20.3660   10.8700 C.ar      1 6LQ1385     0.0000 
     17 C17        24.3810   19.6790    8.5350 C.ar      1 6LQ1385     0.0000 
     18 C18        25.2990   18.9070    9.2750 C.ar      1 6LQ1385     0.0000 
     19 C19        26.5570   18.6360    8.7010 C.ar      1 6LQ1385     0.0000 
     20 C20        26.8170   19.1460    7.3940 C.ar      1 6LQ1385     0.0000 
     21 N21        25.9340   19.8850    6.7580 N.ar      1 6LQ1385     0.0000 
     22 C22        24.7470   20.1490    7.2660 C.ar      1 6LQ1385     0.0000 
     23 N23        27.9750   18.9120    6.7080 N.pl3     1 6LQ1385     0.0000 
     24 C24        27.4870   17.7400    9.4220 C.2       1 6LQ1385     0.0000 
     25 O25        28.5950   17.4930    8.9630 O.2       1 6LQ1385     0.0000 
     26 N26        27.0240   17.1380   10.5450 N.am      1 6LQ1385     0.0000 
     27 C27        27.6770   16.2560   11.4130 C.ar      1 6LQ1385     0.0000 
     28 C28        29.0370   16.3810   11.7130 C.ar      1 6LQ1385     0.0000 
     29 N29        29.6380   15.5260   12.5330 N.ar      1 6LQ1385     0.0000 
     30 C30        28.9570   14.5820   13.1800 C.ar      1 6LQ1385     0.0000 
     31 C31        27.6010   14.3920   12.9370 C.ar      1 6LQ1385     0.0000 
     32 C32        26.9450   15.2390   12.0450 C.ar      1 6LQ1385     0.0000 
     33 C33        25.4640   15.0320   11.8270 C.3       1 6LQ1385     0.0000 
     34 N34        24.6890   16.2880   11.8030 N.4       1 6LQ1385     0.0000 
     35 C35        24.8990   17.2200   12.9580 C.3       1 6LQ1385     0.0000 
     36 C36        23.4910   17.7960   13.2030 C.3       1 6LQ1385     0.0000 
     37 C37        22.6040   16.5380   12.9120 C.3       1 6LQ1385     0.0000 
     38 C38        23.2540   16.0050   11.6270 C.3       1 6LQ1385     0.0000 
     39 H          17.0343   24.6625   10.3386 H         1 6LQ1385     0.0000 
     40 H          19.2876   24.2122    8.3850 H         1 6LQ1385     0.0000 
     41 H          17.5926   24.4437    7.9232 H         1 6LQ1385     0.0000 
     42 H          18.3874   22.0386    8.2231 H         1 6LQ1385     0.0000 
     43 H          16.8789   22.5035    9.0283 H         1 6LQ1385     0.0000 
     44 H          19.7887   22.8411   11.9534 H         1 6LQ1385     0.0000 
     45 H          18.0603   23.1353   12.2110 H         1 6LQ1385     0.0000 
     46 H          18.9235   25.2621   11.8414 H         1 6LQ1385     0.0000 
     47 H          20.0487   24.7163   10.5860 H         1 6LQ1385     0.0000 
     48 H          19.8469   20.0845    7.9733 H         1 6LQ1385     0.0000 
     49 H          22.1020   19.6758    7.1684 H         1 6LQ1385     0.0000 
     50 H          23.5907   20.2173   11.0575 H         1 6LQ1385     0.0000 
     51 H          21.3272   20.5375   11.8696 H         1 6LQ1385     0.0000 
     52 H          25.0615   18.5575   10.1919 H         1 6LQ1385     0.0000 
     53 H          24.0396   20.7160    6.7423 H         1 6LQ1385     0.0000 
     54 H          28.0628   19.3705    5.8236 H         1 6LQ1385     0.0000 
     55 H          28.6331   18.3028    7.1505 H         1 6LQ1385     0.0000 
     56 H          25.9864   17.3661   10.8278 H         1 6LQ1385     0.0000 
     57 H          29.5613   17.1686   11.2702 H         1 6LQ1385     0.0000 
     58 H          29.4218   13.9652   13.8813 H         1 6LQ1385     0.0000 
     59 H          27.0903   13.6411   13.4058 H         1 6LQ1385     0.0000 
     60 H          25.0803   14.3672   12.6265 H         1 6LQ1385     0.0000 
     61 H          25.3219   14.4829   10.8748 H         1 6LQ1385     0.0000 
     62 H          25.0046   16.8552   10.8740 H         1 6LQ1385     0.0000 
     63 H          25.5540   18.0088   12.6905 H         1 6LQ1385     0.0000 
     64 H          25.2098   16.6872   13.8196 H         1 6LQ1385     0.0000 
     65 H          23.2770   18.5356   12.4989 H         1 6LQ1385     0.0000 
     66 H          23.3821   18.0669   14.2046 H         1 6LQ1385     0.0000 
     67 H          21.6241   16.8483   12.7213 H         1 6LQ1385     0.0000 
     68 H          22.7216   15.8502   13.6905 H         1 6LQ1385     0.0000 
     69 H          23.0712   14.9553   11.5600 H         1 6LQ1385     0.0000 
     70 H          22.8531   16.5379   10.7933 H         1 6LQ1385     0.0000 
     71 H          18.8778   26.6755    9.2137 H         1 6LQ1385     0.0000 
     72 H          17.2889   26.6014    8.9767 H         1 6LQ1385     0.0000 
     73 H          17.8692   26.9303   10.4401 H         1 6LQ1385     0.0000 
@<TRIPOS>BOND
     1    2    1 1    
     2   71    1 1    
     3   72    1 1    
     4   73    1 1    
     5    3    2 1    
     6    7    2 1    
     7   39    2 1    
     8    4    3 1    
     9   40    3 1    
    10   41    3 1    
    11    5    4 1    
    12   42    4 1    
    13   43    4 1    
    14    6    5 1    
    15    8    5 1    
    16    7    6 1    
    17   44    6 1    
    18   45    6 1    
    19   46    7 1    
    20   47    7 1    
    21    9    8 2    
    22   10    8 2    
    23   11    8 1    
    24   12   11 ar   
    25   16   11 ar   
    26   13   12 ar   
    27   48   12 1    
    28   14   13 ar   
    29   49   13 1    
    30   15   14 ar   
    31   17   14 1    
    32   16   15 ar   
    33   50   15 1    
    34   51   16 1    
    35   18   17 ar   
    36   22   17 ar   
    37   19   18 ar   
    38   52   18 1    
    39   20   19 ar   
    40   24   19 1    
    41   21   20 ar   
    42   23   20 1    
    43   22   21 ar   
    44   53   22 1    
    45   54   23 1    
    46   55   23 1    
    47   25   24 2    
    48   26   24 am   
    49   27   26 1    
    50   56   26 1    
    51   28   27 ar   
    52   32   27 ar   
    53   29   28 ar   
    54   57   28 1    
    55   30   29 ar   
    56   31   30 ar   
    57   58   30 1    
    58   32   31 ar   
    59   59   31 1    
    60   33   32 1    
    61   34   33 1    
    62   60   33 1    
    63   61   33 1    
    64   35   34 1    
    65   38   34 1    
    66   62   34 1    
    67   36   35 1    
    68   63   35 1    
    69   64   35 1    
    70   37   36 1    
    71   65   36 1    
    72   66   36 1    
    73   38   37 1    
    74   67   37 1    
    75   68   37 1    
    76   69   38 1    
    77   70   38 1    
@<TRIPOS>SUBSTRUCTURE
     1 6LQ1385     1 GROUP   
@<TRIPOS>SET

