#    Name: 2o6h_INI_3_INTS_M
#    Modification time : Tue Mar 25 22:01:36 2014

@<TRIPOS>MOLECULE
2o6h_INI_3_INTS_M
   50     0     9     0     0
SMALL
NO_CHARGES


@<TRIPOS>ATOM
      1 N          14.6765   30.6895   55.6090 N.am      2 SEC2        0.0000 
      2 N          16.0800   31.0830   56.0580 N.am      8 SEL2        0.0000 
      3 N          13.2730   30.2960   55.1600 N.am      5 SEP2        0.0000 
      4 O          18.0425   32.0670   57.1430 O.2       1 ALC1        0.0000 
      5 O          17.6190   32.8290   56.0390 O.2       7 ALL1        0.0000 
      6 O          18.4660   31.3050   58.2470 O.2       4 ALP1        0.0000 
      7 N          20.7485   34.2020   55.9210 N.am      2 SEC2        0.0000 
      8 N          19.1300   34.4840   56.0720 N.am      8 SEL2        0.0000 
      9 N          22.3670   33.9200   55.7700 N.am      5 SEP2        0.0000 
     10 CA         19.0105   33.5285   53.2225 C.3       3 GLC5        0.0000 
     11 CA         17.6520   34.3060   53.9660 C.3       9 GLL5        0.0000 
     12 CA         20.3690   32.7510   52.4790 C.3       6 GLP5        0.0000 
     13 CA         17.5570   32.7160   52.2655 C.3       3 GLC5        0.0000 
     14 CA         16.5590   33.4600   53.4390 C.3       9 GLL5        0.0000 
     15 CA         18.5550   31.9720   51.0920 C.3       6 GLP5        0.0000 
     16 CA         15.2395   35.0610   54.1480 C.3       3 GLC5        0.0000 
     17 CA         13.9200   36.6620   54.8570 C.3       6 GLP5        0.0000 
     18 CA         11.7425   34.1440   52.9285 C.3       3 GLC5        0.0000 
     19 CA         13.3010   33.5800   52.0950 C.3       9 GLL5        0.0000 
     20 CA         10.1840   34.7080   53.7620 C.3       6 GLP5        0.0000 
     21 N          12.1215   32.1850   54.0225 N.am      2 SEC2        0.0000 
     22 N          13.4230   32.6630   53.1550 N.am      8 SEL2        0.0000 
     23 N          10.8200   31.7070   54.8900 N.am      5 SEP2        0.0000 
     24 CA         11.2795   32.9795   52.1260 C.3       3 GLC5        0.0000 
     25 CA         12.9270   32.6350   50.8250 C.3       9 GLL5        0.0000 
     26 CA          9.6320   33.3240   53.4270 C.3       6 GLP5        0.0000 
     27 O          12.6905   30.8840   50.6355 O.2       1 ALC1        0.0000 
     28 O          13.9000   31.6720   50.6080 O.2       7 ALL1        0.0000 
     29 O          11.4810   30.0960   50.6630 O.2       4 ALP1        0.0000 
     30 O          12.1710   35.5225   48.5685 O.2       1 ALC1        0.0000 
     31 O          12.8320   34.7360   49.5970 O.2       7 ALL1        0.0000 
     32 O          11.5100   36.3090   47.5400 O.2       4 ALP1        0.0000 
     33 CA          9.6935   32.9920   47.2060 C.3       3 GLC5        0.0000 
     34 CA         11.2600   33.4100   48.5310 C.3       9 GLL5        0.0000 
     35 CA          8.1270   32.5740   45.8810 C.3       6 GLP5        0.0000 
     36 CA         11.3070   31.5245   47.4735 C.3       3 GLC5        0.0000 
     37 CA         11.3540   29.6390   46.4160 C.3       6 GLP5        0.0000 
     38 N           9.8470   33.2840   47.8105 N.am      2 SEC2        0.0000 
     39 N          10.7450   32.1130   48.4510 N.am      8 SEL2        0.0000 
     40 N           8.9490   34.4550   47.1700 N.am      5 SEP2        0.0000 
     41 O          11.1130   31.1045   49.5570 O.2       1 ALC1        0.0000 
     42 O          10.7450   32.1130   48.4510 O.2       7 ALL1        0.0000 
     43 CA         13.9497   35.3250   53.4967 C.3       3 GLC5        0.0000 
     44 CA         13.5580   31.3392   52.2190 C.3       3 GLC5        0.0000 
     45 CA         14.0020   29.5710   52.9780 C.3       6 GLP5        0.0000 
     46 CA         14.2973   32.5760   49.0980 C.3       3 GLC5        0.0000 
     47 CA         15.8040   32.1810   48.1380 C.3       6 GLP5        0.0000 
     48 CA         10.5490   34.6822   48.9790 C.3       3 GLC5        0.0000 
     49 CA         12.6540   33.3070   49.2910 C.3       9 GLL5        0.0000 
     50 CA          9.1410   36.0060   49.0470 C.3       6 GLP5        0.0000 
@<TRIPOS>BOND
@<TRIPOS>SUBSTRUCTURE
     1 ALC1        4 GROUP        1 X    ALC  0     ROOT ALC X 1
     2 SEC2        1 GROUP        1 X    SEC  0     **** SEC X 2
     3 GLC5       10 GROUP        1 X    GLC  0     **** GLC X 6
     4 ALP1        6 GROUP        1 Y    ALP  0     ROOT ALP Y 8
     5 SEP2        3 GROUP        1 Y    SEP  0     **** SEP Y 9
     6 GLP5       12 GROUP        1 Y    GLP  0     **** GLP Y 13
     7 ALL1        5 GROUP        1 Z    ALL  0     ROOT ALL Z 15
     8 SEL2        2 GROUP        1 Z    SEL  0     **** SEL Z 16
     9 GLL5       11 GROUP        1 Z    GLL  0     **** GLL Z 20
@<TRIPOS>SET

