#    Name: 2o6h_INI_3_ligand
#    Modification time : Tue Mar 25 22:01:36 2014

@<TRIPOS>MOLECULE
2o6h_INI_3_ligand
   35    35     1     0     0
SMALL
NO_CHARGES


@<TRIPOS>ATOM
      1 N1         16.1230   32.3980   54.2610 N.am      1 INI203      0.0000 
      2 C2         16.6060   32.0560   55.5240 C.2       1 INI203      0.0000 
      3 O2         16.0800   31.0830   56.0580 O.2       1 INI203      0.0000 
      4 N3         17.6190   32.8290   56.0390 N.am      1 INI203      0.0000 
      5 C4         18.2050   33.9290   55.4000 C.2       1 INI203      0.0000 
      6 O4         19.1300   34.4840   56.0720 O.2       1 INI203      0.0000 
      7 C5         17.6520   34.3060   53.9660 C.2       1 INI203      0.0000 
      8 N5         18.2530   35.4440   53.2740 N.pl3     1 INI203      0.0000 
      9 O51        19.1350   36.0710   53.7640 O.2       1 INI203      0.0000 
     10 O52        17.8410   35.7450   52.1710 O.2       1 INI203      0.0000 
     11 C6         16.5590   33.4600   53.4390 C.2       1 INI203      0.0000 
     12 N7         15.8960   33.5730   52.1810 N.pl3     1 INI203      0.0000 
     13 C8         14.6580   34.3960   52.1780 C.3       1 INI203      0.0000 
     14 C9         13.3010   33.5800   52.0950 C.3       1 INI203      0.0000 
     15 O9         13.4230   32.6630   53.1550 O.3       1 INI203      0.0000 
     16 C10        12.9270   32.6350   50.8250 C.3       1 INI203      0.0000 
     17 O10        13.9000   31.6720   50.6080 O.3       1 INI203      0.0000 
     18 C11        12.6540   33.3070   49.2910 C.3       1 INI203      0.0000 
     19 O11        12.8320   34.7360   49.5970 O.3       1 INI203      0.0000 
     20 C12        11.2600   33.4100   48.5310 C.3       1 INI203      0.0000 
     21 O12        10.7450   32.1130   48.4510 O.3       1 INI203      0.0000 
     22 H          15.3302   31.7890   53.8634 H         1 INI203      0.0000 
     23 H          17.9975   32.5787   57.0053 H         1 INI203      0.0000 
     24 H          16.2105   33.1498   51.3609 H         1 INI203      0.0000 
     25 H          14.6597   35.1002   51.3233 H         1 INI203      0.0000 
     26 H          14.6009   35.0182   53.0924 H         1 INI203      0.0000 
     27 H          12.4788   34.2341   52.2804 H         1 INI203      0.0000 
     28 H          11.9611   32.1345   51.0617 H         1 INI203      0.0000 
     29 H          13.4272   33.0210   48.6537 H         1 INI203      0.0000 
     30 H          11.4781   33.8539   47.5675 H         1 INI203      0.0000 
     31 H          10.6506   34.0870   49.1170 H         1 INI203      0.0000 
     32 H          13.2925   31.7644   52.7360 H         1 INI203      0.0000 
     33 H          13.3980   30.8111   50.5251 H         1 INI203      0.0000 
     34 H          12.3552   35.2191   48.8627 H         1 INI203      0.0000 
     35 H          11.1126   31.6389   49.2511 H         1 INI203      0.0000 
@<TRIPOS>BOND
     1    2    1 1    
     2   11    1 1    
     3   22    1 1    
     4    3    2 2    
     5    4    2 1    
     6    5    4 1    
     7   23    4 1    
     8    6    5 2    
     9    7    5 1    
    10    8    7 1    
    11   11    7 2    
    12    9    8 2    
    13   10    8 2    
    14   12   11 1    
    15   13   12 1    
    16   24   12 1    
    17   14   13 1    
    18   25   13 1    
    19   26   13 1    
    20   15   14 1    
    21   16   14 1    
    22   27   14 1    
    23   32   15 1    
    24   17   16 1    
    25   18   16 1    
    26   28   16 1    
    27   33   17 1    
    28   19   18 1    
    29   20   18 1    
    30   29   18 1    
    31   34   19 1    
    32   21   20 1    
    33   30   20 1    
    34   31   20 1    
    35   35   21 1    
@<TRIPOS>SUBSTRUCTURE
     1 INI203      1 GROUP   
@<TRIPOS>SET

