#    Name: 3lfm_3DT_1_INTS_M
#    Modification time : Mon Mar 24 21:36:16 2014

@<TRIPOS>MOLECULE
3lfm_3DT_1_INTS_M
   38     0     6     0     0
SMALL
NO_CHARGES


@<TRIPOS>ATOM
      1 N          29.0570   -9.6950  -27.0425 N.am      1 SEC2        0.0000 
      2 N          29.1680   -8.1660  -27.0600 N.am      5 SEL2        0.0000 
      3 N          28.9460  -11.2240  -27.0250 N.am      3 SEP2        0.0000 
      4 N          30.0075   -9.5370  -26.4295 N.am      1 SEC2        0.0000 
      5 N          30.8470  -10.9080  -25.7990 N.am      3 SEP2        0.0000 
      6 N          24.5420   -4.6100  -27.0380 N.am      1 SEC2        0.0000 
      7 N          25.4810   -5.5530  -27.6480 N.am      5 SEL2        0.0000 
      8 N          23.6030   -3.6670  -26.4280 N.am      3 SEP2        0.0000 
      9 CA         26.7290   -7.4825  -29.2325 C.3       2 GLC5        0.0000 
     10 CA         27.1390   -5.4170  -29.1970 C.3       6 GLL5        0.0000 
     11 CA         26.3190   -9.5480  -29.2680 C.3       4 GLP5        0.0000 
     12 CA         28.0290   -7.7140  -29.5930 C.3       2 GLC5        0.0000 
     13 CA         28.3940   -5.8410  -29.6200 C.3       6 GLL5        0.0000 
     14 CA         27.6640   -9.5870  -29.5660 C.3       4 GLP5        0.0000 
     15 CA         27.6655   -6.4700  -31.5060 C.3       2 GLC5        0.0000 
     16 CA         26.9370   -7.0990  -33.3920 C.3       4 GLP5        0.0000 
     17 CA         26.6520   -5.7465  -31.7110 C.3       2 GLC5        0.0000 
     18 CA         26.3670   -4.3940  -30.0300 C.3       6 GLL5        0.0000 
     19 CA         25.0095   -8.5335  -25.6420 C.3       2 GLC5        0.0000 
     20 CA         26.7190   -7.3940  -26.0120 C.3       6 GLL5        0.0000 
     21 CA         23.3000   -9.6730  -25.2720 C.3       4 GLP5        0.0000 
     22 CA         26.5190   -8.4710  -27.6400 C.3       2 GLC5        0.0000 
     23 CA         26.1365   -5.3335  -25.5300 C.3       2 GLC5        0.0000 
     24 CA         25.5540   -3.2730  -25.0480 C.3       4 GLP5        0.0000 
     25 CA         32.2455   -6.6615  -28.5195 C.3       2 GLC5        0.0000 
     26 CA         30.4490   -7.2190  -29.3310 C.3       6 GLL5        0.0000 
     27 CA         34.0420   -6.1040  -27.7080 C.3       4 GLP5        0.0000 
     28 CA         29.9905   -5.4560  -28.3290 C.3       2 GLC5        0.0000 
     29 CA         29.5320   -3.6930  -27.3270 C.3       4 GLP5        0.0000 
     30 CA         24.8645   -4.6637  -29.3738 C.3       2 GLC5        0.0000 
     31 CA         22.9760   -4.4220  -29.1340 C.3       4 GLP5        0.0000 
     32 CA         28.2994   -4.3522  -28.5231 C.3       2 GLC5        0.0000 
     33 CA         29.0413   -8.6543  -29.7347 C.3       2 GLC5        0.0000 
     34 CA         29.7518   -8.6555  -31.7843 C.3       2 GLC5        0.0000 
     35 CA         30.3880   -8.2240  -30.4760 C.3       6 GLL5        0.0000 
     36 CA         28.3710   -9.0950  -32.9250 C.3       4 GLP5        0.0000 
     37 CA         33.0328   -6.7810  -29.2540 C.3       2 GLC5        0.0000 
     38 CA         31.8770   -8.2080  -30.8110 C.3       6 GLL5        0.0000 
@<TRIPOS>BOND
@<TRIPOS>SUBSTRUCTURE
     1 SEC2        1 GROUP        1 X    SEC  0     ROOT SEC X 2
     2 GLC5        9 GROUP        1 X    GLC  0     **** GLC X 6
     3 SEP2        3 GROUP        1 Y    SEP  0     ROOT SEP Y 9
     4 GLP5       11 GROUP        1 Y    GLP  0     **** GLP Y 13
     5 SEL2        2 GROUP        1 Z    SEL  0     ROOT SEL Z 16
     6 GLL5       10 GROUP        1 Z    GLL  0     **** GLL Z 20
@<TRIPOS>SET

