#    Name: 3lfm_3DT_1_ligand
#    Modification time : Mon Mar 24 21:36:16 2014

@<TRIPOS>MOLECULE
3lfm_3DT_1_ligand
   34    35     1     0     0
SMALL
NO_CHARGES


@<TRIPOS>ATOM
      1 N1         29.1080   -6.7830  -28.8720 N.am      1 3DT506      0.0000 
      2 C2         28.5620   -7.3040  -27.6960 C.2       1 3DT506      0.0000 
      3 O2         29.1680   -8.1660  -27.0600 O.2       1 3DT506      0.0000 
      4 N3         27.2990   -6.8700  -27.2690 N.am      1 3DT506      0.0000 
      5 C4         26.5910   -5.9280  -28.0240 C.2       1 3DT506      0.0000 
      6 O4         25.4810   -5.5530  -27.6480 O.2       1 3DT506      0.0000 
      7 C5         27.1390   -5.4170  -29.1970 C.2       1 3DT506      0.0000 
      8 C6         28.3940   -5.8410  -29.6200 C.2       1 3DT506      0.0000 
      9 C7         26.3670   -4.3940  -30.0300 C.3       1 3DT506      0.0000 
     10 CN         26.7190   -7.3940  -26.0120 C.3       1 3DT506      0.0000 
     11 C1'        30.4490   -7.2190  -29.3310 C.3       1 3DT506      0.0000 
     12 C2'        30.3880   -8.2240  -30.4760 C.3       1 3DT506      0.0000 
     13 C3'        31.8770   -8.2080  -30.8110 C.3       1 3DT506      0.0000 
     14 O3'        32.6040   -8.8940  -29.7870 O.3       1 3DT506      0.0000 
     15 C4'        32.1700   -6.7080  -30.7890 C.3       1 3DT506      0.0000 
     16 O4'        31.2080   -6.1310  -29.8840 O.3       1 3DT506      0.0000 
     17 C5'        31.9360   -6.0970  -32.1740 C.3       1 3DT506      0.0000 
     18 O5'        30.6300   -6.4320  -32.6450 O.3       1 3DT506      0.0000 
     19 H          28.8017   -5.4629  -30.4852 H         1 3DT506      0.0000 
     20 H          31.0014   -7.6788  -28.5290 H         1 3DT506      0.0000 
     21 H          29.8424   -7.8331  -31.2645 H         1 3DT506      0.0000 
     22 H          30.1146   -9.1562  -30.1176 H         1 3DT506      0.0000 
     23 H          32.0107   -8.5715  -31.7742 H         1 3DT506      0.0000 
     24 H          33.1548   -6.5407  -30.4781 H         1 3DT506      0.0000 
     25 H          32.7197   -6.4771  -32.8415 H         1 3DT506      0.0000 
     26 H          32.0711   -5.0116  -32.0854 H         1 3DT506      0.0000 
     27 H          26.8791   -4.1137  -30.8419 H         1 3DT506      0.0000 
     28 H          25.4913   -4.7581  -30.3471 H         1 3DT506      0.0000 
     29 H          26.1679   -3.5645  -29.5082 H         1 3DT506      0.0000 
     30 H          26.6076   -8.3874  -26.0402 H         1 3DT506      0.0000 
     31 H          27.2956   -7.1860  -25.2219 H         1 3DT506      0.0000 
     32 H          25.8172   -7.0031  -25.8278 H         1 3DT506      0.0000 
     33 H          32.0004   -9.6353  -29.4936 H         1 3DT506      0.0000 
     34 H          30.7701   -6.7754  -33.5737 H         1 3DT506      0.0000 
@<TRIPOS>BOND
     1    2    1 am   
     2    8    1 1    
     3   11    1 1    
     4    3    2 2    
     5    4    2 am   
     6    5    4 am   
     7   10    4 1    
     8    6    5 2    
     9    7    5 1    
    10    8    7 2    
    11    9    7 1    
    12   19    8 1    
    13   27    9 1    
    14   28    9 1    
    15   29    9 1    
    16   30   10 1    
    17   31   10 1    
    18   32   10 1    
    19   12   11 1    
    20   16   11 1    
    21   20   11 1    
    22   13   12 1    
    23   21   12 1    
    24   22   12 1    
    25   14   13 1    
    26   15   13 1    
    27   23   13 1    
    28   33   14 1    
    29   16   15 1    
    30   17   15 1    
    31   24   15 1    
    32   18   17 1    
    33   25   17 1    
    34   26   17 1    
    35   34   18 1    
@<TRIPOS>SUBSTRUCTURE
     1 3DT506      1 GROUP   
@<TRIPOS>SET

