#    Name: 4DF2_1_CAVITY_N1_ALL.mol2
#    Modification time : Mon Mar 10 13:52:11 2014

@<TRIPOS>MOLECULE
4DF2_1_CAVITY_N1_ALL.mol2
  118     0     5     0     0
SMALL
NO_CHARGES


@<TRIPOS>ATOM
      1 CA        -25.7131   25.4109  131.2888 C.3       4 GLY6        0.0000 
      2 CA        -26.0875   26.7175  130.6543 C.3       4 GLY6        0.0000 
      3 CZ        -25.9267   26.1036  129.2952 C.ar      3 PHE5        0.0000 
      4 CZ        -26.3010   27.4102  128.6607 C.ar      3 PHE5        0.0000 
      5 CZ        -25.7660   25.4896  127.9361 C.ar      3 PHE5        0.0000 
      6 O         -26.5688   23.0045  133.9302 O.2       2 ALA2        0.0000 
      7 O         -26.9431   24.3111  133.2957 O.2       2 ALA2        0.0000 
      8 N         -27.3175   25.6177  132.6611 N.2       2 ALA2        0.0000 
      9 O         -29.5635   33.4574  128.8540 O.2       2 ALA2        0.0000 
     10 CA        -26.4081   22.3905  132.5711 C.3       4 GLY6        0.0000 
     11 O         -26.7824   23.6971  131.9366 O.2       2 ALA2        0.0000 
     12 CA        -27.1567   25.0037  131.3020 C.3       4 GLY6        0.0000 
     13 CA        -27.5311   26.3104  130.6675 C.3       4 GLY6        0.0000 
     14 CA        -27.9054   27.6170  130.0330 C.3       4 GLY6        0.0000 
     15 CZ        -29.4028   32.8434  127.4948 C.ar      3 PHE5        0.0000 
     16 CZ        -29.7771   34.1501  126.8603 C.ar      3 PHE5        0.0000 
     17 OG        -26.9960   24.3898  129.9429 O.2       1 SER1        0.0000 
     18 OG        -27.3703   25.6964  129.3084 O.2       1 SER1        0.0000 
     19 OG        -27.7447   27.0030  128.6739 O.2       1 SER1        0.0000 
     20 CA        -27.2096   25.0824  127.9493 C.3       4 GLY6        0.0000 
     21 OG        -27.5839   26.3890  127.3147 O.2       1 SER1        0.0000 
     22 CZ        -31.3286   34.2782  131.5854 C.ar      3 PHE5        0.0000 
     23 CZ        -31.7030   35.5848  130.9509 C.ar      3 PHE5        0.0000 
     24 CA        -27.7988   21.9047  135.9370 C.3       4 GLY6        0.0000 
     25 CA        -28.1732   23.2113  135.3025 C.3       4 GLY6        0.0000 
     26 N         -28.5475   24.5179  134.6680 N.2       2 ALA2        0.0000 
     27 CZ        -30.7935   32.3576  130.8608 C.ar      3 PHE5        0.0000 
     28 CZ        -31.1679   33.6642  130.2263 C.ar      3 PHE5        0.0000 
     29 DU        -31.5422   34.9708  129.5917 H         5 CUB7        0.0000 
     30 O         -27.6381   21.2907  134.5779 O.2       2 ALA2        0.0000 
     31 DU        -28.0124   22.5973  133.9434 H         5 CUB7        0.0000 
     32 N         -28.3868   23.9039  133.3089 N.2       2 ALA2        0.0000 
     33 N         -28.7611   25.2105  132.6743 N.2       2 ALA2        0.0000 
     34 N         -29.1354   26.5172  132.0398 N.2       2 ALA2        0.0000 
     35 CA        -29.8841   29.1304  130.7708 C.3       4 GLY6        0.0000 
     36 O         -30.6328   31.7436  129.5017 O.2       2 ALA2        0.0000 
     37 O         -31.0071   33.0502  128.8672 O.2       2 ALA2        0.0000 
     38 DU        -31.3815   34.3568  128.2326 H         5 CUB7        0.0000 
     39 CA        -27.4773   20.6767  133.2188 C.3       4 GLY6        0.0000 
     40 CA        -27.8517   21.9833  132.5843 C.3       4 GLY6        0.0000 
     41 CA        -28.2260   23.2900  131.9498 C.3       4 GLY6        0.0000 
     42 OG        -28.6004   24.5966  131.3152 O.2       1 SER1        0.0000 
     43 CA        -28.9747   25.9032  130.6807 C.3       4 GLY6        0.0000 
     44 CA        -29.3490   27.2098  130.0462 C.3       4 GLY6        0.0000 
     45 OG        -30.4720   31.1296  128.1426 O.2       1 SER1        0.0000 
     46 CZ        -30.8464   32.4363  127.5080 C.ar      3 PHE5        0.0000 
     47 CZ        -31.2207   33.7429  126.8735 C.ar      3 PHE5        0.0000 
     48 OG        -28.8139   25.2892  129.3216 O.2       1 SER1        0.0000 
     49 OG        -29.1883   26.5958  128.6870 O.2       1 SER1        0.0000 
     50 CA        -29.0275   25.9819  127.3279 C.3       4 GLY6        0.0000 
     51 CZ        -32.7722   33.8710  131.5986 C.ar      3 PHE5        0.0000 
     52 N         -33.1466   35.1776  130.9641 N.2       2 ALA2        0.0000 
     53 O         -29.6168   22.8041  135.3157 O.2       2 ALA2        0.0000 
     54 N         -29.9911   24.1107  134.6812 N.2       2 ALA2        0.0000 
     55 N         -31.1141   28.0306  132.7776 N.2       2 ALA2        0.0000 
     56 CZ        -31.4885   29.3372  132.1431 C.ar      3 PHE5        0.0000 
     57 CZ        -31.8628   30.6438  131.5085 C.ar      3 PHE5        0.0000 
     58 CZ        -32.2372   31.9504  130.8740 C.ar      3 PHE5        0.0000 
     59 OG        -32.6115   33.2570  130.2395 O.2       1 SER1        0.0000 
     60 DU        -32.9858   34.5636  129.6049 H         5 CUB7        0.0000 
     61 CA        -29.0817   20.8835  134.5911 C.3       4 GLY6        0.0000 
     62 O         -29.4560   22.1901  133.9566 O.2       2 ALA2        0.0000 
     63 N         -29.8304   23.4967  133.3221 N.2       2 ALA2        0.0000 
     64 N         -30.2047   24.8034  132.6875 N.2       2 ALA2        0.0000 
     65 N         -30.5791   26.1100  132.0530 N.2       2 ALA2        0.0000 
     66 N         -30.9534   27.4166  131.4185 N.2       2 ALA2        0.0000 
     67 CA        -31.3277   28.7232  130.7839 C.3       4 GLY6        0.0000 
     68 O         -31.7021   30.0298  130.1494 O.2       2 ALA2        0.0000 
     69 OG        -32.0764   31.3364  129.5149 O.2       1 SER1        0.0000 
     70 OG        -32.4507   32.6431  128.8804 O.2       1 SER1        0.0000 
     71 CZ        -32.8251   33.9497  128.2458 C.ar      3 PHE5        0.0000 
     72 CA        -29.2953   21.5762  132.5975 C.3       4 GLY6        0.0000 
     73 CA        -29.6696   22.8828  131.9629 C.3       4 GLY6        0.0000 
     74 OG        -30.0440   24.1894  131.3284 O.2       1 SER1        0.0000 
     75 DU        -30.4183   25.4960  130.6939 H         5 CUB7        0.0000 
     76 DU        -30.7926   26.8026  130.0594 H         5 CUB7        0.0000 
     77 OG        -31.1670   28.1092  129.4248 O.2       1 SER1        0.0000 
     78 OG        -31.5413   29.4158  128.7903 O.2       1 SER1        0.0000 
     79 CZ        -31.9157   30.7225  128.1558 C.ar      3 PHE5        0.0000 
     80 CZ        -32.2900   32.0291  127.5212 C.ar      3 PHE5        0.0000 
     81 CZ        -32.6643   33.3357  126.8867 C.ar      3 PHE5        0.0000 
     82 CA        -30.2576   24.8820  129.3348 C.3       4 GLY6        0.0000 
     83 O         -30.6319   26.1886  128.7002 O.2       2 ALA2        0.0000 
     84 CA        -31.0062   27.4953  128.0657 C.3       4 GLY6        0.0000 
     85 CZ        -31.3806   28.8019  127.4312 C.ar      3 PHE5        0.0000 
     86 CZ        -31.7549   30.1085  126.7967 C.ar      3 PHE5        0.0000 
     87 CZ        -32.1292   31.4151  126.1621 C.ar      3 PHE5        0.0000 
     88 O         -32.5578   27.6234  132.7908 O.2       2 ALA2        0.0000 
     89 CZ        -32.9321   28.9300  132.1563 C.ar      3 PHE5        0.0000 
     90 OG        -33.3064   30.2366  131.5217 O.2       1 SER1        0.0000 
     91 O         -31.6483   24.3962  132.7007 O.2       2 ALA2        0.0000 
     92 O         -32.0227   25.7028  132.0662 O.2       2 ALA2        0.0000 
     93 DU        -32.3970   27.0094  131.4317 H         5 CUB7        0.0000 
     94 DU        -32.7713   28.3160  130.7971 H         5 CUB7        0.0000 
     95 OG        -33.1457   29.6226  130.1626 O.2       1 SER1        0.0000 
     96 OG        -33.5200   30.9293  129.5281 O.2       1 SER1        0.0000 
     97 N         -31.4876   23.7822  131.3416 N.2       2 ALA2        0.0000 
     98 N         -31.8619   25.0888  130.7071 N.2       2 ALA2        0.0000 
     99 DU        -32.2363   26.3954  130.0726 H         5 CUB7        0.0000 
    100 CA        -32.6106   27.7021  129.4380 C.3       4 GLY6        0.0000 
    101 CA        -32.9849   29.0087  128.8035 C.3       4 GLY6        0.0000 
    102 OG        -33.3593   30.3153  128.1690 O.2       1 SER1        0.0000 
    103 OG        -33.7336   31.6219  127.5344 O.2       1 SER1        0.0000 
    104 O         -32.0755   25.7815  128.7134 O.2       2 ALA2        0.0000 
    105 CZ        -34.3757   28.5228  132.1695 C.ar      3 PHE5        0.0000 
    106 O         -33.4663   25.2956  132.0794 O.2       2 ALA2        0.0000 
    107 O         -33.8406   26.6022  131.4449 O.2       2 ALA2        0.0000 
    108 DU        -34.2150   27.9088  130.8103 H         5 CUB7        0.0000 
    109 OG        -34.5893   29.2155  130.1758 O.2       1 SER1        0.0000 
    110 N         -33.3055   24.6816  130.7203 N.2       2 ALA2        0.0000 
    111 N         -33.6799   25.9883  130.0858 N.2       2 ALA2        0.0000 
    112 OG        -34.0542   27.2949  129.4512 O.2       1 SER1        0.0000 
    113 OG        -34.4286   28.6015  128.8167 O.2       1 SER1        0.0000 
    114 O         -33.5191   25.3743  128.7266 O.2       2 ALA2        0.0000 
    115 N         -35.2842   26.1951  131.4581 N.2       2 ALA2        0.0000 
    116 N         -35.6586   27.5017  130.8235 N.2       2 ALA2        0.0000 
    117 N         -35.1235   25.5811  130.0989 N.2       2 ALA2        0.0000 
    118 OG        -35.4978   26.8877  129.4644 O.2       1 SER1        0.0000 
@<TRIPOS>BOND
@<TRIPOS>SUBSTRUCTURE
     1 SER1       17 GROUP   
     2 ALA2        6 GROUP   
     3 PHE5        3 GROUP   
     4 GLY6        1 GROUP   
     5 CUB7       29 GROUP   
@<TRIPOS>SET

