#    Name: 4df2_FMN_1_INTS_M
#    Modification time : Tue Mar 25 09:39:48 2014

@<TRIPOS>MOLECULE
4df2_FMN_1_INTS_M
   79     0    12     0     0
SMALL
NO_CHARGES


@<TRIPOS>ATOM
      1 N         -36.7265   23.5040  132.4920 N.am      2 SEC2        0.0000 
      2 N         -35.4290   24.1530  132.7700 N.am     10 SEL2        0.0000 
      3 N         -38.0240   22.8550  132.2140 N.am      6 SEP2        0.0000 
      4 N         -34.4980   23.2420  133.2705 N.am      2 SEC2        0.0000 
      5 N         -33.5670   22.3310  133.7710 N.am      6 SEP2        0.0000 
      6 O         -36.5665   24.3745  130.4390 O.2       1 ALC1        0.0000 
      7 O         -35.2530   24.8950  130.6730 O.2       9 ALL1        0.0000 
      8 O         -37.8800   23.8540  130.2050 O.2       5 ALP1        0.0000 
      9 N         -34.8800   26.4950  127.5365 N.am      2 SEC2        0.0000 
     10 N         -35.0350   25.6520  128.5540 N.am     10 SEL2        0.0000 
     11 N         -34.7250   27.3380  126.5190 N.am      6 SEP2        0.0000 
     12 N         -33.8525   25.4530  127.3395 N.am      2 SEC2        0.0000 
     13 N         -32.6700   25.2540  126.1250 N.am      6 SEP2        0.0000 
     14 N         -36.1700   25.0255  127.6060 N.am      2 SEC2        0.0000 
     15 N         -37.3050   24.3990  126.6580 N.am      6 SEP2        0.0000 
     16 N         -32.4745   25.5720  127.4645 N.am      2 SEC2        0.0000 
     17 N         -32.2790   25.8900  128.8040 N.am     10 SEL2        0.0000 
     18 CA        -32.1930   26.7530  127.4530 C.3       4 GLC5        0.0000 
     19 CA        -30.9420   25.9460  128.9880 C.3      12 GLL5        0.0000 
     20 CA        -33.4440   27.5600  125.9180 C.3       8 GLP5        0.0000 
     21 CA        -31.5650   26.3340  126.5630 C.3       4 GLC5        0.0000 
     22 CA        -30.1070   26.3830  127.9680 C.3      12 GLL5        0.0000 
     23 CA        -33.0230   26.2850  125.1580 C.3       8 GLP5        0.0000 
     24 CA        -26.1125   27.3385  126.8515 C.3       4 GLC5        0.0000 
     25 CA        -27.8060   26.9090  127.0400 C.3      12 GLL5        0.0000 
     26 CA        -24.4190   27.7680  126.6630 C.3       8 GLP5        0.0000 
     27 CA        -27.9935   28.5840  126.9660 C.3       4 GLC5        0.0000 
     28 CA        -28.1810   30.2590  126.8920 C.3       8 GLP5        0.0000 
     29 CA        -25.3080   24.9375  129.7750 C.3       4 GLC5        0.0000 
     30 CA        -26.6870   26.1110  129.6620 C.3      12 GLL5        0.0000 
     31 CA        -23.9290   23.7640  129.8880 C.3       8 GLP5        0.0000 
     32 CA        -25.1610   26.5165  128.5455 C.3       4 GLC5        0.0000 
     33 CA        -23.6350   26.9220  127.4290 C.3       8 GLP5        0.0000 
     34 N         -32.4485   22.3415  132.9030 N.am      2 SEC2        0.0000 
     35 N         -31.3300   22.3520  132.0350 N.am     10 SEL2        0.0000 
     36 O         -32.0775   22.4130  130.7830 O.2       1 ALC1        0.0000 
     37 O         -31.3300   22.3520  132.0350 O.2       9 ALL1        0.0000 
     38 O         -32.8250   22.4740  129.5310 O.2       5 ALP1        0.0000 
     39 N         -31.8810   22.3805  134.1535 N.am      2 SEC2        0.0000 
     40 N         -30.1950   22.4300  134.5360 N.am     10 SEL2        0.0000 
     41 N         -31.3450   21.5565  134.7500 N.am      2 SEC2        0.0000 
     42 N         -32.4950   20.6830  134.9640 N.am      6 SEP2        0.0000 
     43 CA        -28.0450   22.0985  132.0365 C.3       4 GLC5        0.0000 
     44 CA        -28.0730   23.3170  133.7440 C.3      12 GLL5        0.0000 
     45 CA        -28.0170   20.8800  130.3290 C.3       8 GLP5        0.0000 
     46 CA        -26.7755   21.4675  136.1540 C.3       4 GLC5        0.0000 
     47 CA        -27.2310   22.4450  134.6660 C.3      12 GLL5        0.0000 
     48 CA        -26.3200   20.4900  137.6420 C.3       8 GLP5        0.0000 
     49 NZ        -23.7165   22.6405  134.4975 N.4       3 LYC4        0.0000 
     50 NZ        -24.4030   21.4420  134.4330 N.4      11 LYL4        0.0000 
     51 NZ        -22.8440   24.4500  133.3980 N.4       7 LYP4        0.0000 
     52 N         -24.2275   20.9190  135.6245 N.am      2 SEC2        0.0000 
     53 N         -24.4030   21.4420  134.4330 N.am     10 SEL2        0.0000 
     54 N         -24.0520   20.3960  136.8160 N.am      6 SEP2        0.0000 
     55 N         -23.8970   22.6995  133.3620 N.am      2 SEC2        0.0000 
     56 N         -23.3910   23.9570  132.2910 N.am      6 SEP2        0.0000 
     57 N         -23.7165   22.6405  134.4975 N.am      2 SEC2        0.0000 
     58 N         -23.0300   23.8390  134.5620 N.am      6 SEP2        0.0000 
     59 NZ        -24.3980   22.9980  132.2465 N.4       3 LYC4        0.0000 
     60 NZ        -25.4050   22.0390  132.2020 N.4      11 LYL4        0.0000 
     61 N         -25.3020   21.4795  130.8430 N.am      2 SEC2        0.0000 
     62 N         -25.4050   22.0390  132.2020 N.am     10 SEL2        0.0000 
     63 N         -25.1990   20.9200  129.4840 N.am      6 SEP2        0.0000 
     64 N         -24.3980   22.9980  132.2465 N.am      2 SEC2        0.0000 
     65 N         -26.0905   19.1840  131.8740 N.am      2 SEC2        0.0000 
     66 N         -25.3170   19.6220  132.9550 N.am     10 SEL2        0.0000 
     67 N         -26.8640   18.7460  130.7930 N.am      6 SEP2        0.0000 
     68 CA        -31.3057   24.4258  128.2817 C.3       4 GLC5        0.0000 
     69 CA        -30.4030   25.5530  130.2210 C.3      12 GLL5        0.0000 
     70 CA        -31.9390   23.1020  126.9590 C.3       8 GLP5        0.0000 
     71 CA        -28.9473   24.7870  127.4127 C.3       4 GLC5        0.0000 
     72 CA        -29.4910   23.2160  126.3480 C.3       8 GLP5        0.0000 
     73 CA        -27.9246   27.5201  130.9957 C.3       4 GLC5        0.0000 
     74 CA        -28.1940   26.0560  129.4000 C.3      12 GLL5        0.0000 
     75 CA        -27.6140   29.1870  132.0210 C.3       8 GLP5        0.0000 
     76 CA        -28.9222   21.8840  131.5898 C.3       4 GLC5        0.0000 
     77 CA        -30.2330   23.2080  132.3000 C.3      12 GLL5        0.0000 
     78 CA        -27.2500   24.2290  135.5075 C.3       4 GLC5        0.0000 
     79 CA        -26.8480   25.5770  136.8100 C.3       8 GLP5        0.0000 
@<TRIPOS>BOND
@<TRIPOS>SUBSTRUCTURE
     1 ALC1        6 GROUP        1 X    ALC  0     ROOT ALC X 1
     2 SEC2        1 GROUP        1 X    SEC  0     **** SEC X 2
     3 LYC4       49 GROUP        1 X    LYC  0     **** LYC X 4
     4 GLC5       18 GROUP        1 X    GLC  0     **** GLC X 6
     5 ALP1        8 GROUP        1 Y    ALP  0     ROOT ALP Y 8
     6 SEP2        3 GROUP        1 Y    SEP  0     **** SEP Y 9
     7 LYP4       51 GROUP        1 Y    LYP  0     **** LYP Y 11
     8 GLP5       20 GROUP        1 Y    GLP  0     **** GLP Y 13
     9 ALL1        7 GROUP        1 Z    ALL  0     ROOT ALL Z 15
    10 SEL2        2 GROUP        1 Z    SEL  0     **** SEL Z 16
    11 LYL4       50 GROUP        1 Z    LYL  0     **** LYL Z 18
    12 GLL5       19 GROUP        1 Z    GLL  0     **** GLL Z 20
@<TRIPOS>SET

