#    Name: 4df2_FMN_1_ligand
#    Modification time : Tue Mar 25 09:39:48 2014

@<TRIPOS>MOLECULE
4df2_FMN_1_ligand
   50    52     1     0     0
SMALL
NO_CHARGES


@<TRIPOS>ATOM
      1 N1        -33.3680   24.6290  132.0430 N.2       1 FMN501      0.0000 
      2 C2        -34.7020   24.5410  131.8590 C.2       1 FMN501      0.0000 
      3 O2        -35.4290   24.1530  132.7700 O.2       1 FMN501      0.0000 
      4 N3        -35.2530   24.8950  130.6730 N.am      1 FMN501      0.0000 
      5 C4        -34.4900   25.3340  129.6440 C.2       1 FMN501      0.0000 
      6 O4        -35.0350   25.6520  128.5540 O.2       1 FMN501      0.0000 
      7 C4A       -33.0870   25.4450  129.8020 C.2       1 FMN501      0.0000 
      8 N5        -32.2790   25.8900  128.8040 N.2       1 FMN501      0.0000 
      9 C5A       -30.9420   25.9460  128.9880 C.ar      1 FMN501      0.0000 
     10 C6        -30.1070   26.3830  127.9680 C.ar      1 FMN501      0.0000 
     11 C7        -28.7340   26.4390  128.1710 C.ar      1 FMN501      0.0000 
     12 C7M       -27.8060   26.9090  127.0400 C.3       1 FMN501      0.0000 
     13 C8        -28.1940   26.0560  129.4000 C.ar      1 FMN501      0.0000 
     14 C8M       -26.6870   26.1110  129.6620 C.3       1 FMN501      0.0000 
     15 C9        -29.0300   25.6230  130.4100 C.ar      1 FMN501      0.0000 
     16 C9A       -30.4030   25.5530  130.2210 C.ar      1 FMN501      0.0000 
     17 N10       -31.2120   25.1200  131.2450 N.pl3     1 FMN501      0.0000 
     18 C10       -32.5490   25.0610  131.0390 C.2       1 FMN501      0.0000 
     19 C1'       -30.6640   24.6790  132.5120 C.3       1 FMN501      0.0000 
     20 C2'       -30.2330   23.2080  132.3000 C.3       1 FMN501      0.0000 
     21 O2'       -31.3300   22.3520  132.0350 O.3       1 FMN501      0.0000 
     22 C3'       -29.4220   22.5680  133.4010 C.3       1 FMN501      0.0000 
     23 O3'       -30.1950   22.4300  134.5360 O.3       1 FMN501      0.0000 
     24 C4'       -28.0730   23.3170  133.7440 C.3       1 FMN501      0.0000 
     25 O4'       -27.3940   23.6870  132.6030 O.3       1 FMN501      0.0000 
     26 C5'       -27.2310   22.4450  134.6660 C.3       1 FMN501      0.0000 
     27 O5'       -26.8960   21.2490  134.0830 O.3       1 FMN501      0.0000 
     28 P         -25.4930   21.0930  133.4180 P.3       1 FMN501      0.0000 
     29 O1P       -24.4030   21.4420  134.4330 O.co2     1 FMN501      0.0000 
     30 O2P       -25.4050   22.0390  132.2020 O.co2     1 FMN501      0.0000 
     31 O3P       -25.3170   19.6220  132.9550 O.co2     1 FMN501      0.0000 
     32 H         -36.2933   24.8275  130.5494 H         1 FMN501      0.0000 
     33 H         -30.5050   26.6652  127.0624 H         1 FMN501      0.0000 
     34 H         -28.6285   25.3450  131.3254 H         1 FMN501      0.0000 
     35 H         -31.3996   24.6990  133.2973 H         1 FMN501      0.0000 
     36 H         -29.7911   25.2433  132.7910 H         1 FMN501      0.0000 
     37 H         -29.5714   23.2030  131.3851 H         1 FMN501      0.0000 
     38 H         -29.1093   21.5614  133.0334 H         1 FMN501      0.0000 
     39 H         -28.3839   24.1981  134.3393 H         1 FMN501      0.0000 
     40 H         -27.8146   22.3169  135.6062 H         1 FMN501      0.0000 
     41 H         -26.3396   23.0491  134.9517 H         1 FMN501      0.0000 
     42 H         -26.8462   26.9035  127.3207 H         1 FMN501      0.0000 
     43 H         -27.8786   26.3235  126.2326 H         1 FMN501      0.0000 
     44 H         -28.0203   27.8407  126.7467 H         1 FMN501      0.0000 
     45 H         -26.1781   25.5304  129.0264 H         1 FMN501      0.0000 
     46 H         -26.3267   27.0387  129.5643 H         1 FMN501      0.0000 
     47 H         -26.4592   25.8039  130.5860 H         1 FMN501      0.0000 
     48 H         -31.6417   22.6067  131.1196 H         1 FMN501      0.0000 
     49 H         -30.2270   23.3442  134.9399 H         1 FMN501      0.0000 
     50 H         -26.6397   23.0348  132.5279 H         1 FMN501      0.0000 
@<TRIPOS>BOND
     1    2    1 1    
     2   18    1 2    
     3    3    2 2    
     4    4    2 am   
     5    5    4 am   
     6   32    4 1    
     7    6    5 2    
     8    7    5 1    
     9    8    7 2    
    10   18    7 1    
    11    9    8 1    
    12   10    9 ar   
    13   16    9 ar   
    14   11   10 ar   
    15   33   10 1    
    16   12   11 1    
    17   13   11 ar   
    18   42   12 1    
    19   43   12 1    
    20   44   12 1    
    21   14   13 1    
    22   15   13 ar   
    23   45   14 1    
    24   46   14 1    
    25   47   14 1    
    26   16   15 ar   
    27   34   15 1    
    28   17   16 1    
    29   18   17 1    
    30   19   17 1    
    31   20   19 1    
    32   35   19 1    
    33   36   19 1    
    34   21   20 1    
    35   22   20 1    
    36   37   20 1    
    37   48   21 1    
    38   23   22 1    
    39   24   22 1    
    40   38   22 1    
    41   49   23 1    
    42   25   24 1    
    43   26   24 1    
    44   39   24 1    
    45   50   25 1    
    46   27   26 1    
    47   40   26 1    
    48   41   26 1    
    49   28   27 1    
    50   29   28 ar   
    51   30   28 ar   
    52   31   28 ar   
@<TRIPOS>SUBSTRUCTURE
     1 FMN501      1 GROUP   
@<TRIPOS>SET

