#    Name: 4j7g_TRH_1_INTS_M
#    Modification time : Tue Mar 25 05:32:31 2014

@<TRIPOS>MOLECULE
4j7g_TRH_1_INTS_M
   82     0     9     0     0
SMALL
NO_CHARGES


@<TRIPOS>ATOM
      1 N         -14.8075   40.4285  -23.1575 N.am      2 SEC2        0.0000 
      2 N         -15.7040   39.7870  -22.0020 N.am      8 SEL2        0.0000 
      3 N         -13.9110   41.0700  -24.3130 N.am      5 SEP2        0.0000 
      4 N         -16.8470   40.2110  -21.9300 N.am      2 SEC2        0.0000 
      5 N         -17.9900   40.6350  -21.8580 N.am      5 SEP2        0.0000 
      6 N         -15.7345   36.1595  -22.1885 N.am      2 SEC2        0.0000 
      7 N         -15.5140   37.2660  -21.4180 N.am      8 SEL2        0.0000 
      8 N         -15.9550   35.0530  -22.9590 N.am      5 SEP2        0.0000 
      9 N         -15.4380   36.6635  -20.0730 N.am      2 SEC2        0.0000 
     10 N         -15.3620   36.0610  -18.7280 N.am      5 SEP2        0.0000 
     11 CA        -14.4855   36.9705  -23.7365 C.3       3 GLC5        0.0000 
     12 CA        -12.8370   37.3040  -22.7010 C.3       9 GLL5        0.0000 
     13 CA        -16.1340   36.6370  -24.7720 C.3       6 GLP5        0.0000 
     14 N         -10.9985   39.4265  -24.8060 N.am      2 SEC2        0.0000 
     15 N         -11.0810   38.8940  -23.3370 N.am      8 SEL2        0.0000 
     16 N         -10.9160   39.9590  -26.2750 N.am      5 SEP2        0.0000 
     17 O         -11.4065   40.0490  -22.9865 O.2       1 ALC1        0.0000 
     18 O         -11.0810   38.8940  -23.3370 O.2       7 ALL1        0.0000 
     19 O         -11.7320   41.2040  -22.6360 O.2       4 ALP1        0.0000 
     20 CA         -9.7455   35.7415  -21.3960 C.3       3 GLC5        0.0000 
     21 CA        -10.5180   36.6410  -22.6650 C.3       9 GLL5        0.0000 
     22 CA         -8.9730   34.8420  -20.1270 C.3       6 GLP5        0.0000 
     23 O          -8.6585   38.0685  -21.8380 O.2       1 ALC1        0.0000 
     24 O          -9.1340   36.9850  -22.4710 O.2       7 ALL1        0.0000 
     25 O          -8.1830   39.1520  -21.2050 O.2       4 ALP1        0.0000 
     26 CA         -9.5725   35.1250  -22.6180 C.3       3 GLC5        0.0000 
     27 CA        -10.7710   36.0600  -24.0630 C.3       9 GLL5        0.0000 
     28 CA         -8.3740   34.1900  -21.1730 C.3       6 GLP5        0.0000 
     29 N          -8.8655   35.1435  -25.0350 N.am      2 SEC2        0.0000 
     30 N          -9.9410   34.9140  -24.2180 N.am      8 SEL2        0.0000 
     31 N          -7.7900   35.3730  -25.8520 N.am      5 SEP2        0.0000 
     32 CA        -13.3530   33.2195  -25.4850 C.3       3 GLC5        0.0000 
     33 CA        -12.4970   35.1850  -25.7120 C.3       9 GLL5        0.0000 
     34 CA        -14.2090   31.2540  -25.2580 C.3       6 GLP5        0.0000 
     35 CA        -12.4215   34.8800  -27.4900 C.3       3 GLC5        0.0000 
     36 CA        -12.3460   34.5750  -29.2680 C.3       6 GLP5        0.0000 
     37 N         -14.7120   37.4470  -19.4725 N.am      2 SEC2        0.0000 
     38 N         -14.0620   38.8330  -20.2170 N.am      8 SEL2        0.0000 
     39 N         -12.5675   41.2570  -21.6015 N.am      2 SEC2        0.0000 
     40 N         -13.4030   41.3100  -20.5670 N.am      8 SEL2        0.0000 
     41 N         -11.7320   41.2040  -22.6360 N.am      5 SEP2        0.0000 
     42 CA        -17.5050   40.3595  -20.1285 C.3       3 GLC5        0.0000 
     43 CA        -15.9180   40.8200  -18.8250 C.3       9 GLL5        0.0000 
     44 CA        -19.0920   39.8990  -21.4320 C.3       6 GLP5        0.0000 
     45 N         -15.8460   45.4945  -18.9295 N.am      2 SEC2        0.0000 
     46 N         -16.5210   44.3090  -18.2440 N.am      8 SEL2        0.0000 
     47 N         -15.1710   46.6800  -19.6150 N.am      5 SEP2        0.0000 
     48 CA        -13.2830   44.4740  -16.6255 C.3       3 GLC5        0.0000 
     49 CA        -14.7690   43.4290  -16.8940 C.3       9 GLL5        0.0000 
     50 CA        -11.7970   45.5190  -16.3570 C.3       6 GLP5        0.0000 
     51 CA        -14.3695   44.1015  -15.0515 C.3       3 GLC5        0.0000 
     52 CA        -15.6350   42.6960  -15.8490 C.3       9 GLL5        0.0000 
     53 CA        -13.1040   45.5070  -14.2540 C.3       6 GLP5        0.0000 
     54 CA        -15.7480   40.6315  -15.6575 C.3       3 GLC5        0.0000 
     55 CA        -15.8610   38.5670  -15.4660 C.3       6 GLP5        0.0000 
     56 N         -11.7150   39.9135  -10.7770 N.am      2 SEC2        0.0000 
     57 N         -12.4100   40.3940  -12.0520 N.am      8 SEL2        0.0000 
     58 N         -11.0200   39.4330   -9.5020 N.am      5 SEP2        0.0000 
     59 CA        -13.5930   39.2225  -13.7765 C.3       3 GLC5        0.0000 
     60 CA        -12.8170   40.7650  -14.2330 C.3       9 GLL5        0.0000 
     61 CA        -14.3690   37.6800  -13.3200 C.3       6 GLP5        0.0000 
     62 CA        -10.2220   40.7155  -13.4025 C.3       3 GLC5        0.0000 
     63 CA        -11.5940   39.9830  -14.6740 C.3       9 GLL5        0.0000 
     64 CA         -8.8500   41.4480  -12.1310 C.3       6 GLP5        0.0000 
     65 CA        -11.1235   38.8565  -12.9860 C.3       3 GLC5        0.0000 
     66 CA        -10.6530   37.7300  -11.2980 C.3       6 GLP5        0.0000 
     67 CA        -12.7760   38.6805  -14.6470 C.3       3 GLC5        0.0000 
     68 CA        -13.9580   37.3780  -14.6200 C.3       6 GLP5        0.0000 
     69 CA        -10.0410   38.7605  -14.6620 C.3       3 GLC5        0.0000 
     70 CA         -8.4880   37.5380  -14.6500 C.3       6 GLP5        0.0000 
     71 CA        -14.7765   39.9590  -15.3075 C.3       3 GLC5        0.0000 
     72 CA        -13.6920   41.3510  -15.1490 C.3       9 GLL5        0.0000 
     73 CA         -9.9952   38.6545  -21.5290 C.3       3 GLC5        0.0000 
     74 CA        -11.4290   37.8330  -22.4310 C.3       9 GLL5        0.0000 
     75 CA         -9.0170   40.0720  -20.5100 C.3       6 GLP5        0.0000 
     76 CA        -12.5237   37.0413  -26.1930 C.3       3 GLC5        0.0000 
     77 CA        -12.2320   35.6300  -24.2640 C.3       9 GLL5        0.0000 
     78 CA        -12.6830   38.6750  -27.3980 C.3       6 GLP5        0.0000 
     79 CA        -14.2492   36.0222  -24.8800 C.3       3 GLC5        0.0000 
     80 CA        -16.0107   39.9853  -16.9327 C.3       3 GLC5        0.0000 
     81 CA        -12.4484   42.4183  -13.9396 C.3       3 GLC5        0.0000 
     82 CA        -11.9480   43.9740  -13.0780 C.3       6 GLP5        0.0000 
@<TRIPOS>BOND
@<TRIPOS>SUBSTRUCTURE
     1 ALC1       17 GROUP        1 X    ALC  0     ROOT ALC X 1
     2 SEC2        1 GROUP        1 X    SEC  0     **** SEC X 2
     3 GLC5       11 GROUP        1 X    GLC  0     **** GLC X 6
     4 ALP1       19 GROUP        1 Y    ALP  0     ROOT ALP Y 8
     5 SEP2        3 GROUP        1 Y    SEP  0     **** SEP Y 9
     6 GLP5       13 GROUP        1 Y    GLP  0     **** GLP Y 13
     7 ALL1       18 GROUP        1 Z    ALL  0     ROOT ALL Z 15
     8 SEL2        2 GROUP        1 Z    SEL  0     **** SEL Z 16
     9 GLL5       12 GROUP        1 Z    GLL  0     **** GLL Z 20
@<TRIPOS>SET

