#    Name: 4j7g_TRH_1_ligand
#    Modification time : Tue Mar 25 05:32:32 2014

@<TRIPOS>MOLECULE
4j7g_TRH_1_ligand
   59    61     1     0     0
SMALL
NO_CHARGES


@<TRIPOS>ATOM
      1 O4P       -15.7040   39.7870  -22.0020 O.co2     1 TRH501      0.0000 
      2 P2        -14.8510   38.6090  -21.6130 P.3       1 TRH501      0.0000 
      3 O3P       -15.5140   37.2660  -21.4180 O.co2     1 TRH501      0.0000 
      4 O1        -13.7230   38.4030  -22.7380 O.3       1 TRH501      0.0000 
      5 C1        -12.8370   37.3040  -22.7010 C.3       1 TRH501      0.0000 
      6 C2        -11.4290   37.8330  -22.4310 C.3       1 TRH501      0.0000 
      7 O2        -11.0810   38.8940  -23.3370 O.3       1 TRH501      0.0000 
      8 C3        -10.5180   36.6410  -22.6650 C.3       1 TRH501      0.0000 
      9 O3         -9.1340   36.9850  -22.4710 O.3       1 TRH501      0.0000 
     10 C4        -10.7710   36.0600  -24.0630 C.3       1 TRH501      0.0000 
     11 O4         -9.9410   34.9140  -24.2180 O.3       1 TRH501      0.0000 
     12 C5        -12.2320   35.6300  -24.2640 C.3       1 TRH501      0.0000 
     13 O5        -12.9730   36.8220  -24.0580 O.3       1 TRH501      0.0000 
     14 C6        -12.4970   35.1850  -25.7120 C.3       1 TRH501      0.0000 
     15 OPP       -14.0620   38.8330  -20.2170 O.3       1 TRH501      0.0000 
     16 P         -13.4410   40.1790  -19.5720 P.3       1 TRH501      0.0000 
     17 O1P       -12.1440   39.7230  -18.9500 O.co2     1 TRH501      0.0000 
     18 O2P       -13.4030   41.3100  -20.5670 O.co2     1 TRH501      0.0000 
     19 O5'       -14.5560   40.5960  -18.4770 O.3       1 TRH501      0.0000 
     20 C5'       -15.9180   40.8200  -18.8250 C.3       1 TRH501      0.0000 
     21 C4'       -16.4030   41.9870  -17.9740 C.3       1 TRH501      0.0000 
     22 O4'       -16.3110   41.6640  -16.5760 O.3       1 TRH501      0.0000 
     23 C3'       -15.5590   43.2470  -18.1850 C.3       1 TRH501      0.0000 
     24 O3'       -16.5210   44.3090  -18.2440 O.3       1 TRH501      0.0000 
     25 C2'       -14.7690   43.4290  -16.8940 C.3       1 TRH501      0.0000 
     26 C1'       -15.6350   42.6960  -15.8490 C.3       1 TRH501      0.0000 
     27 N11       -14.7880   42.0740  -14.8210 N.am      1 TRH501      0.0000 
     28 C21       -15.1100   42.1400  -13.5080 C.2       1 TRH501      0.0000 
     29 O21       -16.1250   42.7600  -13.1140 O.2       1 TRH501      0.0000 
     30 N31       -14.3140   41.5630  -12.5940 N.am      1 TRH501      0.0000 
     31 C41       -13.1840   40.8900  -12.8960 C.2       1 TRH501      0.0000 
     32 O41       -12.4100   40.3940  -12.0520 O.2       1 TRH501      0.0000 
     33 C51       -12.8170   40.7650  -14.2330 C.2       1 TRH501      0.0000 
     34 C5A       -11.5940   39.9830  -14.6740 C.3       1 TRH501      0.0000 
     35 C61       -13.6920   41.3510  -15.1490 C.2       1 TRH501      0.0000 
     36 H         -13.1165   36.5938  -22.0036 H         1 TRH501      0.0000 
     37 H         -11.3611   38.1139  -21.4116 H         1 TRH501      0.0000 
     38 H         -10.8164   35.8616  -21.9428 H         1 TRH501      0.0000 
     39 H         -10.5309   36.8104  -24.7933 H         1 TRH501      0.0000 
     40 H         -12.4806   34.8785  -23.5930 H         1 TRH501      0.0000 
     41 H         -16.5430   39.9607  -18.6050 H         1 TRH501      0.0000 
     42 H         -16.0338   41.0938  -19.8686 H         1 TRH501      0.0000 
     43 H         -17.4207   42.2213  -18.2393 H         1 TRH501      0.0000 
     44 H         -14.9624   43.1575  -18.9910 H         1 TRH501      0.0000 
     45 H         -14.7099   44.4537  -16.6447 H         1 TRH501      0.0000 
     46 H         -13.8307   42.9501  -16.9708 H         1 TRH501      0.0000 
     47 H         -16.3139   43.3877  -15.4334 H         1 TRH501      0.0000 
     48 H         -14.5897   41.6397  -11.5627 H         1 TRH501      0.0000 
     49 H         -13.4648   41.2083  -16.1833 H         1 TRH501      0.0000 
     50 H         -12.3170   35.9204  -26.3654 H         1 TRH501      0.0000 
     51 H         -11.9196   34.4119  -25.9745 H         1 TRH501      0.0000 
     52 H         -13.4463   34.9004  -25.8452 H         1 TRH501      0.0000 
     53 H         -10.7540   40.3518  -14.2760 H         1 TRH501      0.0000 
     54 H         -11.6497   39.0222  -14.4025 H         1 TRH501      0.0000 
     55 H         -11.4801   40.0008  -15.6673 H         1 TRH501      0.0000 
     56 H         -11.4538   39.7229  -22.9200 H         1 TRH501      0.0000 
     57 H          -9.1467   37.9229  -22.1244 H         1 TRH501      0.0000 
     58 H          -9.2434   35.0017  -23.5069 H         1 TRH501      0.0000 
     59 H         -17.0741   44.1123  -19.0536 H         1 TRH501      0.0000 
@<TRIPOS>BOND
     1    2    1 ar   
     2    3    2 ar   
     3    4    2 1    
     4   15    2 1    
     5    5    4 1    
     6    6    5 1    
     7   13    5 1    
     8   36    5 1    
     9    7    6 1    
    10    8    6 1    
    11   37    6 1    
    12   56    7 1    
    13    9    8 1    
    14   10    8 1    
    15   38    8 1    
    16   57    9 1    
    17   11   10 1    
    18   12   10 1    
    19   39   10 1    
    20   58   11 1    
    21   13   12 1    
    22   14   12 1    
    23   40   12 1    
    24   50   14 1    
    25   51   14 1    
    26   52   14 1    
    27   16   15 1    
    28   17   16 ar   
    29   18   16 ar   
    30   19   16 1    
    31   20   19 1    
    32   21   20 1    
    33   41   20 1    
    34   42   20 1    
    35   22   21 1    
    36   23   21 1    
    37   43   21 1    
    38   26   22 1    
    39   24   23 1    
    40   25   23 1    
    41   44   23 1    
    42   59   24 1    
    43   26   25 1    
    44   45   25 1    
    45   46   25 1    
    46   27   26 1    
    47   47   26 1    
    48   28   27 1    
    49   35   27 1    
    50   29   28 2    
    51   30   28 1    
    52   31   30 1    
    53   48   30 1    
    54   32   31 2    
    55   33   31 1    
    56   34   33 1    
    57   35   33 2    
    58   53   34 1    
    59   54   34 1    
    60   55   34 1    
    61   49   35 1    
@<TRIPOS>SUBSTRUCTURE
     1 TRH501      1 GROUP   
@<TRIPOS>SET

