#    Name: 3e8x_NAP_1_INTS_M
#    Modification time : Tue Mar 25 01:15:12 2014

@<TRIPOS>MOLECULE
3e8x_NAP_1_INTS_M
  103     0    12     0     0
SMALL
NO_CHARGES


@<TRIPOS>ATOM
      1 NZ         50.1790   26.3840   23.9120 N.4       3 LYC4        0.0000 
      2 NZ         49.0030   25.7130   22.7940 N.4      11 LYL4        0.0000 
      3 NZ         51.3550   27.0550   25.0300 N.4       7 LYP4        0.0000 
      4 N          49.3150   24.5175   21.9925 N.am      2 SEC2        0.0000 
      5 N          49.0030   25.7130   22.7940 N.am     10 SEL2        0.0000 
      6 N          49.6270   23.3220   21.1910 N.am      6 SEP2        0.0000 
      7 CA         43.5915   27.0640   23.2725 C.3       4 GLC5        0.0000 
      8 CA         45.2920   26.5640   22.0450 C.3      12 GLL5        0.0000 
      9 CA         41.8910   27.5640   24.5000 C.3       8 GLP5        0.0000 
     10 CA         43.6160   25.4625   19.4565 C.3       4 GLC5        0.0000 
     11 CA         44.8700   26.7110   20.5840 C.3      12 GLL5        0.0000 
     12 CA         42.3620   24.2140   18.3290 C.3       8 GLP5        0.0000 
     13 N          42.6525   27.0710   21.9295 N.am      2 SEC2        0.0000 
     14 N          43.5710   27.3300   20.5860 N.am     10 SEL2        0.0000 
     15 N          41.7340   26.8120   23.2730 N.am      6 SEP2        0.0000 
     16 CA         46.8670   26.0170   19.7670 C.3       4 GLC5        0.0000 
     17 CA         45.7840   27.6050   19.7080 C.3      12 GLL5        0.0000 
     18 CA         47.9500   24.4290   19.8260 C.3       8 GLP5        0.0000 
     19 N          44.7290   30.8475   18.1860 N.am      2 SEC2        0.0000 
     20 N          45.0900   29.2030   17.8800 N.am     10 SEL2        0.0000 
     21 N          44.3680   32.4920   18.4920 N.am      6 SEP2        0.0000 
     22 CA         42.9280   26.1465   18.8535 C.3       4 GLC5        0.0000 
     23 CA         43.4940   28.0790   19.3780 C.3      12 GLL5        0.0000 
     24 CA         37.6290   29.8500   18.2220 C.3       4 GLC5        0.0000 
     25 CA         39.5150   30.4970   18.0290 C.3      12 GLL5        0.0000 
     26 CA         35.7430   29.2030   18.4150 C.3       8 GLP5        0.0000 
     27 O          37.9435   32.2755   16.9675 O.2       1 ALC1        0.0000 
     28 O          38.7800   31.6090   18.2370 O.2       9 ALL1        0.0000 
     29 O          37.1070   32.9420   15.6980 O.2       5 ALP1        0.0000 
     30 N          37.6750   29.8260   16.5985 N.am      2 SEC2        0.0000 
     31 N          39.1280   29.6180   17.0760 N.am     10 SEL2        0.0000 
     32 N          36.2220   30.0340   16.1210 N.am      6 SEP2        0.0000 
     33 CA         38.2615   27.5160   15.8565 C.3       4 GLC5        0.0000 
     34 CA         39.8540   28.5200   16.8600 C.3      12 GLL5        0.0000 
     35 CA         36.6690   26.5120   14.8530 C.3       8 GLP5        0.0000 
     36 CA         40.8030   29.8930   15.7485 C.3       4 GLC5        0.0000 
     37 CA         41.7520   31.2660   14.6370 C.3       8 GLP5        0.0000 
     38 CA         38.0740   28.1380   17.6255 C.3       4 GLC5        0.0000 
     39 CA         36.2940   27.7560   18.3910 C.3       8 GLP5        0.0000 
     40 NZ         50.1685   23.8870   26.8130 N.4       3 LYC4        0.0000 
     41 NZ         49.1240   23.7170   25.6280 N.4      11 LYL4        0.0000 
     42 NZ         51.8260   23.0590   27.4010 N.4       7 LYP4        0.0000 
     43 N          50.1760   23.0780   26.0140 N.am      2 SEC2        0.0000 
     44 N          49.1240   23.7170   25.6280 N.am     10 SEL2        0.0000 
     45 N          51.2280   22.4390   26.4000 N.am      6 SEP2        0.0000 
     46 N          50.1685   23.8870   26.8130 N.am      2 SEC2        0.0000 
     47 N          51.2130   24.0570   27.9980 N.am      6 SEP2        0.0000 
     48 N          48.5980   21.7530   22.9430 N.am      2 SEC2        0.0000 
     49 N          47.8410   22.7830   23.4530 N.am     10 SEL2        0.0000 
     50 N          49.3550   20.7230   22.4330 N.am      6 SEP2        0.0000 
     51 CA         46.9530   20.8885   25.1885 C.3       4 GLC5        0.0000 
     52 CA         45.6560   22.2930   25.4340 C.3      12 GLL5        0.0000 
     53 CA         48.2500   19.4840   24.9430 C.3       8 GLP5        0.0000 
     54 CA         47.0210   21.9165   27.1360 C.3       4 GLC5        0.0000 
     55 CA         48.3860   21.5400   28.8380 C.3       8 GLP5        0.0000 
     56 CA         43.7555   20.7440   26.5205 C.3       4 GLC5        0.0000 
     57 CA         44.6360   22.6450   26.5020 C.3      12 GLL5        0.0000 
     58 CA         42.8750   18.8430   26.5390 C.3       8 GLP5        0.0000 
     59 O          42.8150   24.6035   29.6660 O.2       1 ALC1        0.0000 
     60 O          42.8520   24.6500   28.4190 O.2       9 ALL1        0.0000 
     61 O          42.7780   24.5570   30.9130 O.2       5 ALP1        0.0000 
     62 CA         46.3880   22.1895   28.8255 C.3       4 GLC5        0.0000 
     63 CA         44.3900   22.8390   28.8130 C.3      12 GLL5        0.0000 
     64 N          49.8745   22.2575   32.5630 N.am      2 SEC2        0.0000 
     65 N          49.2150   23.5800   32.5010 N.am     10 SEL2        0.0000 
     66 N          50.5340   20.9350   32.6250 N.am      6 SEP2        0.0000 
     67 CA         48.1940   21.5640   33.6655 C.3       4 GLC5        0.0000 
     68 CA         46.6730   22.4340   32.4040 C.3      12 GLL5        0.0000 
     69 CA         49.7150   20.6940   34.9270 C.3       8 GLP5        0.0000 
     70 CA         46.5895   21.7275   29.9330 C.3       4 GLC5        0.0000 
     71 CA         44.7930   21.9150   31.0280 C.3      12 GLL5        0.0000 
     72 N          48.3335   28.4820   16.1095 N.am      2 SEC2        0.0000 
     73 N          47.4210   29.0150   16.9620 N.am     10 SEL2        0.0000 
     74 N          49.2460   27.9490   15.2570 N.am      6 SEP2        0.0000 
     75 NZ         45.1210   31.6615   17.3300 N.4       3 LYC4        0.0000 
     76 NZ         45.8740   30.8310   16.1680 N.4      11 LYL4        0.0000 
     77 NZ         43.3670   32.8110   17.6850 N.4       7 LYP4        0.0000 
     78 N          44.5175   31.4775   16.3625 N.am      2 SEC2        0.0000 
     79 N          45.8740   30.8310   16.1680 N.am     10 SEL2        0.0000 
     80 N          43.1610   32.1240   16.5570 N.am      6 SEP2        0.0000 
     81 N          45.1210   31.6615   17.3300 N.am      2 SEC2        0.0000 
     82 N          46.8275   30.4820   14.8825 N.am      2 SEC2        0.0000 
     83 N          47.7810   30.1330   13.5970 N.am      6 SEP2        0.0000 
     84 N          45.5925   31.6640   18.5385 N.am      2 SEC2        0.0000 
     85 N          46.8170   30.8360   18.5850 N.am     10 SEL2        0.0000 
     86 CA         46.5155   25.5332   20.5703 C.3       4 GLC5        0.0000 
     87 CA         43.1005   25.7967   21.6043 C.3       4 GLC5        0.0000 
     88 CA         41.1200   24.9560   21.8940 C.3       8 GLP5        0.0000 
     89 CA         38.9688   31.1422   19.7853 C.3       4 GLC5        0.0000 
     90 CA         37.8420   31.9000   21.1680 C.3       8 GLP5        0.0000 
     91 CA         41.4099   31.0831   17.0384 C.3       4 GLC5        0.0000 
     92 CA         40.6760   30.2720   18.7760 C.3      12 GLL5        0.0000 
     93 CA         42.0690   32.4110   15.6140 C.3       8 GLP5        0.0000 
     94 CA         43.3487   24.6305   30.0570 C.3       4 GLC5        0.0000 
     95 CA         44.1950   24.2590   28.2310 C.3      12 GLL5        0.0000 
     96 CA         42.4050   25.7120   31.5920 C.3       8 GLP5        0.0000 
     97 CA         47.5705   22.4488   29.8218 C.3       4 GLC5        0.0000 
     98 CA         46.3780   23.4280   30.2130 C.3      12 GLL5        0.0000 
     99 CA         47.5233   21.4073   31.1415 C.3       4 GLC5        0.0000 
    100 CA         48.9650   20.7270   29.9750 C.3       8 GLP5        0.0000 
    101 CA         43.6133   21.7685   32.4745 C.3       4 GLC5        0.0000 
    102 CA         45.4900   21.7410   32.2120 C.3      12 GLL5        0.0000 
    103 CA         42.0850   21.7090   33.3290 C.3       8 GLP5        0.0000 
@<TRIPOS>BOND
@<TRIPOS>SUBSTRUCTURE
     1 ALC1       27 GROUP        1 X    ALC  0     ROOT ALC X 1
     2 SEC2        4 GROUP        1 X    SEC  0     **** SEC X 2
     3 LYC4        1 GROUP        1 X    LYC  0     **** LYC X 4
     4 GLC5        7 GROUP        1 X    GLC  0     **** GLC X 6
     5 ALP1       29 GROUP        1 Y    ALP  0     ROOT ALP Y 8
     6 SEP2        6 GROUP        1 Y    SEP  0     **** SEP Y 9
     7 LYP4        3 GROUP        1 Y    LYP  0     **** LYP Y 11
     8 GLP5        9 GROUP        1 Y    GLP  0     **** GLP Y 13
     9 ALL1       28 GROUP        1 Z    ALL  0     ROOT ALL Z 15
    10 SEL2        5 GROUP        1 Z    SEL  0     **** SEL Z 16
    11 LYL4        2 GROUP        1 Z    LYL  0     **** LYL Z 18
    12 GLL5        8 GROUP        1 Z    GLL  0     **** GLL Z 20
@<TRIPOS>SET

