#    Name: 3e8x_NAP_1_ligand
#    Modification time : Tue Mar 25 01:15:12 2014

@<TRIPOS>MOLECULE
3e8x_NAP_1_ligand
   73    77     1     0     0
SMALL
NO_CHARGES


@<TRIPOS>ATOM
      1 PA         47.6200   26.0480   23.3090 P.3       1 NAP500      0.0000 
      2 O1A        47.3310   27.4500   23.8550 O.co2     1 NAP500      0.0000 
      3 O2A        49.0030   25.7130   22.7940 O.co2     1 NAP500      0.0000 
      4 O5B        46.4640   25.7460   22.2160 O.3       1 NAP500      0.0000 
      5 C5B        45.2920   26.5640   22.0450 C.3       1 NAP500      0.0000 
      6 C4B        44.8700   26.7110   20.5840 C.3       1 NAP500      0.0000 
      7 O4B        43.5710   27.3300   20.5860 O.3       1 NAP500      0.0000 
      8 C3B        45.7840   27.6050   19.7080 C.3       1 NAP500      0.0000 
      9 O3B        46.3230   26.9400   18.5510 O.3       1 NAP500      0.0000 
     10 C2B        44.8790   28.7300   19.2330 C.3       1 NAP500      0.0000 
     11 O2B        45.0900   29.2030   17.8800 O.3       1 NAP500      0.0000 
     12 C1B        43.4940   28.0790   19.3780 C.3       1 NAP500      0.0000 
     13 N9A        42.4410   29.1260   19.3520 N.pl3     1 NAP500      0.0000 
     14 C8A        42.4020   30.2430   20.0950 C.2       1 NAP500      0.0000 
     15 N7A        41.3160   30.9590   19.7440 N.2       1 NAP500      0.0000 
     16 C5A        40.6760   30.2720   18.7760 C.ar      1 NAP500      0.0000 
     17 C6A        39.5150   30.4970   18.0290 C.ar      1 NAP500      0.0000 
     18 N6A        38.7800   31.6090   18.2370 N.pl3     1 NAP500      0.0000 
     19 N1A        39.1280   29.6180   17.0760 N.ar      1 NAP500      0.0000 
     20 C2A        39.8540   28.5200   16.8600 C.ar      1 NAP500      0.0000 
     21 N3A        40.9800   28.2680   17.5580 N.ar      1 NAP500      0.0000 
     22 C4A        41.4060   29.1260   18.5230 C.ar      1 NAP500      0.0000 
     23 O3         47.2680   24.9940   24.5110 O.3       1 NAP500      0.0000 
     24 PN         47.9010   23.5120   24.7770 P.3       1 NAP500      0.0000 
     25 O1N        49.1240   23.7170   25.6280 O.co2     1 NAP500      0.0000 
     26 O2N        47.8410   22.7830   23.4530 O.co2     1 NAP500      0.0000 
     27 O5D        46.9070   22.8350   25.8400 O.3       1 NAP500      0.0000 
     28 C5D        45.6560   22.2930   25.4340 C.3       1 NAP500      0.0000 
     29 C4D        44.6360   22.6450   26.5020 C.3       1 NAP500      0.0000 
     30 O4D        44.9630   22.0470   27.7570 O.3       1 NAP500      0.0000 
     31 C3D        44.5860   24.1450   26.7540 C.3       1 NAP500      0.0000 
     32 O3D        43.7090   24.7490   25.7910 O.3       1 NAP500      0.0000 
     33 C2D        44.1950   24.2590   28.2310 C.3       1 NAP500      0.0000 
     34 O2D        42.8520   24.6500   28.4190 O.3       1 NAP500      0.0000 
     35 C1D        44.3900   22.8390   28.8130 C.3       1 NAP500      0.0000 
     36 N1N        45.2200   22.7420   30.0540 N.pl3     1 NAP500      0.0000 
     37 C2N        46.3780   23.4280   30.2130 C.ar      1 NAP500      0.0000 
     38 C3N        47.1320   23.2870   31.3980 C.ar      1 NAP500      0.0000 
     39 C7N        48.4500   23.9980   31.6120 C.2       1 NAP500      0.0000 
     40 O7N        49.2150   23.5800   32.5010 O.2       1 NAP500      0.0000 
     41 N7N        48.7740   25.0160   30.7970 N.am      1 NAP500      0.0000 
     42 C4N        46.6730   22.4340   32.4040 C.ar      1 NAP500      0.0000 
     43 C5N        45.4900   21.7410   32.2120 C.ar      1 NAP500      0.0000 
     44 C6N        44.7930   21.9150   31.0280 C.ar      1 NAP500      0.0000 
     45 P2B        46.3980   30.0430   17.3650 P.3       1 NAP500      0.0000 
     46 O1X        47.4210   29.0150   16.9620 O.co2     1 NAP500      0.0000 
     47 O2X        45.8740   30.8310   16.1680 O.co2     1 NAP500      0.0000 
     48 O3X        46.8170   30.8360   18.5850 O.co2     1 NAP500      0.0000 
     49 H          45.4543   27.5833   22.4508 H         1 NAP500      0.0000 
     50 H          44.4290   26.1460   22.6023 H         1 NAP500      0.0000 
     51 H          44.8063   25.7382   20.1314 H         1 NAP500      0.0000 
     52 H          46.5328   28.0325   20.3329 H         1 NAP500      0.0000 
     53 H          44.9155   29.5168   19.9682 H         1 NAP500      0.0000 
     54 H          43.3856   27.4186   18.5229 H         1 NAP500      0.0000 
     55 H          43.0473   30.4957   20.7732 H         1 NAP500      0.0000 
     56 H          37.9704   31.7157   17.6598 H         1 NAP500      0.0000 
     57 H          39.1102   32.2277   18.9499 H         1 NAP500      0.0000 
     58 H          39.5448   27.8271   16.1258 H         1 NAP500      0.0000 
     59 H          45.6912   21.2084   25.3440 H         1 NAP500      0.0000 
     60 H          45.3161   22.7146   24.4893 H         1 NAP500      0.0000 
     61 H          43.6561   22.3341   26.1757 H         1 NAP500      0.0000 
     62 H          45.6102   24.4970   26.6561 H         1 NAP500      0.0000 
     63 H          44.8999   24.8953   28.7194 H         1 NAP500      0.0000 
     64 H          43.3797   22.4485   29.0240 H         1 NAP500      0.0000 
     65 H          46.7316   24.0628   29.4788 H         1 NAP500      0.0000 
     66 H          48.1001   25.2503   30.0963 H         1 NAP500      0.0000 
     67 H          49.6601   25.4484   30.9639 H         1 NAP500      0.0000 
     68 H          47.2075   22.3265   33.2687 H         1 NAP500      0.0000 
     69 H          45.1353   21.1088   32.9349 H         1 NAP500      0.0000 
     70 H          43.8986   21.3740   30.8997 H         1 NAP500      0.0000 
     71 H          47.0769   27.5218   18.2460 H         1 NAP500      0.0000 
     72 H          42.8429   24.8769   26.2743 H         1 NAP500      0.0000 
     73 H          42.8351   25.0951   29.3143 H         1 NAP500      0.0000 
@<TRIPOS>BOND
     1    2    1 ar   
     2    3    1 ar   
     3    4    1 1    
     4   23    1 1    
     5    5    4 1    
     6    6    5 1    
     7   49    5 1    
     8   50    5 1    
     9    7    6 1    
    10    8    6 1    
    11   51    6 1    
    12   12    7 1    
    13    9    8 1    
    14   10    8 1    
    15   52    8 1    
    16   71    9 1    
    17   11   10 1    
    18   12   10 1    
    19   53   10 1    
    20   45   11 1    
    21   13   12 1    
    22   54   12 1    
    23   14   13 1    
    24   22   13 1    
    25   15   14 2    
    26   55   14 1    
    27   16   15 1    
    28   17   16 ar   
    29   22   16 ar   
    30   18   17 1    
    31   19   17 ar   
    32   56   18 1    
    33   57   18 1    
    34   20   19 ar   
    35   21   20 ar   
    36   58   20 1    
    37   22   21 ar   
    38   24   23 1    
    39   25   24 ar   
    40   26   24 ar   
    41   27   24 1    
    42   28   27 1    
    43   29   28 1    
    44   59   28 1    
    45   60   28 1    
    46   30   29 1    
    47   31   29 1    
    48   61   29 1    
    49   35   30 1    
    50   32   31 1    
    51   33   31 1    
    52   62   31 1    
    53   72   32 1    
    54   34   33 1    
    55   35   33 1    
    56   63   33 1    
    57   73   34 1    
    58   36   35 1    
    59   64   35 1    
    60   37   36 ar   
    61   44   36 ar   
    62   38   37 ar   
    63   65   37 1    
    64   39   38 1    
    65   42   38 ar   
    66   40   39 2    
    67   41   39 am   
    68   66   41 1    
    69   67   41 1    
    70   43   42 ar   
    71   68   42 1    
    72   44   43 ar   
    73   69   43 1    
    74   70   44 1    
    75   46   45 ar   
    76   47   45 ar   
    77   48   45 ar   
@<TRIPOS>SUBSTRUCTURE
     1 NAP500      1 GROUP   
@<TRIPOS>SET

