#    Name: 1qpb_TPP_2_INTS_M
#    Modification time : Mon Mar 24 23:47:41 2014

@<TRIPOS>MOLECULE
1qpb_TPP_2_INTS_M
   81     0    12     0     0
SMALL
NO_CHARGES


@<TRIPOS>ATOM
      1 N          99.0220   36.6065    8.6650 N.am      2 SEC2        0.0000 
      2 N          99.1260   35.3450    9.0200 N.am     10 SEL2        0.0000 
      3 N          98.9180   37.8680    8.3100 N.am      6 SEP2        0.0000 
      4 CA         97.0460   34.0045    8.5515 C.3       4 GLC5        0.0000 
      5 CA         98.0870   34.8870    9.7880 C.3      12 GLL5        0.0000 
      6 CA         96.0050   33.1220    7.3150 C.3       8 GLP5        0.0000 
      7 CA         95.9085   34.6365    9.1455 C.3       4 GLC5        0.0000 
      8 CA         96.9810   35.7870   10.1150 C.3      12 GLL5        0.0000 
      9 CA         94.8360   33.4860    8.1760 C.3       8 GLP5        0.0000 
     10 CA         97.5105   32.9340    8.5590 C.3       4 GLC5        0.0000 
     11 CA         99.0160   32.7460    9.8030 C.3      12 GLL5        0.0000 
     12 CA         99.3595   33.3390   11.4295 C.3       4 GLC5        0.0000 
     13 CA         99.7030   33.9320   13.0560 C.3       8 GLP5        0.0000 
     14 O          97.5630   30.6340   10.4615 O.2       1 ALC1        0.0000 
     15 O          98.7530   31.4800   10.1290 O.2       9 ALL1        0.0000 
     16 O          96.3730   29.7880   10.7940 O.2       5 ALP1        0.0000 
     17 CA        101.7945   32.5425    6.8415 C.3       4 GLC5        0.0000 
     18 CA        101.3800   32.2570    8.6820 C.3      12 GLL5        0.0000 
     19 CA        102.2090   32.8280    5.0010 C.3       8 GLP5        0.0000 
     20 CA        104.2215   28.5280   11.3745 C.3       4 GLC5        0.0000 
     21 CA        103.0910   29.9680   11.4250 C.3      12 GLL5        0.0000 
     22 CA        105.3520   27.0880   11.3240 C.3       8 GLP5        0.0000 
     23 CA        104.8665   34.6730    8.7965 C.3       4 GLC5        0.0000 
     24 CA        103.6280   33.7630   10.2500 C.3      12 GLL5        0.0000 
     25 CA        106.1050   35.5830    7.3430 C.3       8 GLP5        0.0000 
     26 CA        102.3620   34.0525   11.4680 C.3       4 GLC5        0.0000 
     27 CA        101.0960   34.3420   12.6860 C.3       8 GLP5        0.0000 
     28 CA        105.2930   34.5985   10.6985 C.3       4 GLC5        0.0000 
     29 CA        106.9580   35.4340   11.1470 C.3       8 GLP5        0.0000 
     30 CA        106.2910   32.5620   12.2475 C.3       4 GLC5        0.0000 
     31 CA        104.7330   31.7810   12.4900 C.3      12 GLL5        0.0000 
     32 CA        107.8490   33.3430   12.0050 C.3       8 GLP5        0.0000 
     33 CA        105.7135   31.0645   10.7180 C.3       4 GLC5        0.0000 
     34 CA        106.6940   30.3480    8.9460 C.3       8 GLP5        0.0000 
     35 CA        102.3680   31.4530   13.8700 C.3       4 GLC5        0.0000 
     36 CA        104.3950   31.3010   13.9690 C.3      12 GLL5        0.0000 
     37 CA        100.3410   31.6050   13.7710 C.3       8 GLP5        0.0000 
     38 CA        105.9770   32.5370   13.6325 C.3       4 GLC5        0.0000 
     39 CA        107.5590   33.7730   13.2960 C.3       8 GLP5        0.0000 
     40 Zn        108.4310   30.8725   16.5845 Zn        3 ZIC7        0.0000 
     41 Zn        107.2810   31.3890   16.2950 Zn       11 ZIL7        0.0000 
     42 Zn        109.5810   30.3560   16.8740 Zn        7 ZIP7        0.0000 
     43 N         107.0595   32.6470   17.1305 N.am      2 SEC2        0.0000 
     44 N         107.2810   31.3890   16.2950 N.am     10 SEL2        0.0000 
     45 N         106.8380   33.9050   17.9660 N.am      6 SEP2        0.0000 
     46 N         104.5065   32.8805   17.2540 N.am      2 SEC2        0.0000 
     47 N         104.9810   31.5160   17.1930 N.am     10 SEL2        0.0000 
     48 N         104.0320   34.2450   17.3150 N.am      6 SEP2        0.0000 
     49 N         103.4795   31.9870   16.7630 N.am      2 SEC2        0.0000 
     50 N         101.9780   32.4580   16.3330 N.am      6 SEP2        0.0000 
     51 N         106.6600   26.4985   17.8895 N.am      2 SEC2        0.0000 
     52 N         106.7690   27.7970   17.6420 N.am     10 SEL2        0.0000 
     53 N         106.5510   25.2000   18.1370 N.am      6 SEP2        0.0000 
     54 N         105.6225   25.9875   15.5390 N.am      2 SEC2        0.0000 
     55 N         106.4290   27.0750   15.2530 N.am     10 SEL2        0.0000 
     56 N         104.8160   24.9000   15.8250 N.am      6 SEP2        0.0000 
     57 N         106.4900   26.1375   16.6950 N.am      2 SEC2        0.0000 
     58 N         107.4835   26.9210   13.9355 N.am      2 SEC2        0.0000 
     59 N         108.5380   26.7670   12.6180 N.am      6 SEP2        0.0000 
     60 Zn        108.8745   29.5585   16.3190 Zn        3 ZIC7        0.0000 
     61 Zn        108.1680   28.7610   15.7640 Zn       11 ZIL7        0.0000 
     62 N         109.2155   28.0610   16.9755 N.am      2 SEC2        0.0000 
     63 N         108.1680   28.7610   15.7640 N.am     10 SEL2        0.0000 
     64 N         110.2630   27.3610   18.1870 N.am      6 SEP2        0.0000 
     65 N         108.8185   27.6980   15.3970 N.am      2 SEC2        0.0000 
     66 N         109.4690   26.6350   15.0300 N.am      6 SEP2        0.0000 
     67 CA         96.9075   36.2555    8.1738 C.3       4 GLC5        0.0000 
     68 CA         96.2810   37.1740    6.3960 C.3       8 GLP5        0.0000 
     69 CA         98.6185   34.6345   11.5038 C.3       4 GLC5        0.0000 
     70 CA         99.4338   33.9835    7.0463 C.3       4 GLC5        0.0000 
     71 CA        100.1910   34.5010    8.6910 C.3      12 GLL5        0.0000 
     72 CA         98.6540   34.1270    5.1860 C.3       8 GLP5        0.0000 
     73 CA        100.6548   34.0910   10.7963 C.3       4 GLC5        0.0000 
     74 CA        101.1763   28.9275   11.8150 C.3       4 GLC5        0.0000 
     75 CA        102.0760   30.3700   10.1850 C.3      12 GLL5        0.0000 
     76 CA         99.7690   27.6860   12.8250 C.3       8 GLP5        0.0000 
     77 CA        101.4622   30.8870   12.2880 C.3       4 GLC5        0.0000 
     78 CA        105.0141   30.9292    9.9567 C.3       4 GLC5        0.0000 
     79 CA        103.2490   32.2910   10.4910 C.3      12 GLL5        0.0000 
     80 CA        102.6059   33.0891   12.2097 C.3       4 GLC5        0.0000 
     81 CA        103.7480   31.4920   11.4630 C.3      12 GLL5        0.0000 
@<TRIPOS>BOND
@<TRIPOS>SUBSTRUCTURE
     1 ALC1       14 GROUP        1 X    ALC  0     ROOT ALC X 1
     2 SEC2        1 GROUP        1 X    SEC  0     **** SEC X 2
     3 ZIC7       40 GROUP        1 X    ZIC  0     **** ZIC X 5
     4 GLC5        4 GROUP        1 X    GLC  0     **** GLC X 6
     5 ALP1       16 GROUP        1 Y    ALP  0     ROOT ALP Y 8
     6 SEP2        3 GROUP        1 Y    SEP  0     **** SEP Y 9
     7 ZIP7       42 GROUP        1 Y    ZIP  0     **** ZIP Y 12
     8 GLP5        6 GROUP        1 Y    GLP  0     **** GLP Y 13
     9 ALL1       15 GROUP        1 Z    ALL  0     ROOT ALL Z 15
    10 SEL2        2 GROUP        1 Z    SEL  0     **** SEL Z 16
    11 ZIL7       41 GROUP        1 Z    ZIL  0     **** ZIL Z 19
    12 GLL5        5 GROUP        1 Z    GLL  0     **** GLL Z 20
@<TRIPOS>SET

