#    Name: 1qpb_TPP_2_ligand
#    Modification time : Mon Mar 24 23:47:42 2014

@<TRIPOS>MOLECULE
1qpb_TPP_2_ligand
   42    43     1     0     0
SMALL
NO_CHARGES


@<TRIPOS>ATOM
      1 N1'        99.1260   35.3450    9.0200 N.ar      1 TPP600      0.0000 
      2 C2'        98.0870   34.8870    9.7880 C.ar      1 TPP600      0.0000 
      3 CM2        96.9810   35.7870   10.1150 C.3       1 TPP600      0.0000 
      4 N3'        97.9750   33.6250   10.0590 N.ar      1 TPP600      0.0000 
      5 C4'        99.0160   32.7460    9.8030 C.ar      1 TPP600      0.0000 
      6 N4'        98.7530   31.4800   10.1290 N.pl3     1 TPP600      0.0000 
      7 C5'       100.2360   33.1790    9.1220 C.ar      1 TPP600      0.0000 
      8 C6'       100.1910   34.5010    8.6910 C.ar      1 TPP600      0.0000 
      9 C7'       101.3800   32.2570    8.6820 C.3       1 TPP600      0.0000 
     10 N3        102.2480   31.6340    9.7940 N.pl3     1 TPP600      0.0000 
     11 C2        102.0760   30.3700   10.1850 C.2       1 TPP600      0.0000 
     12 S1        103.0910   29.9680   11.4250 S.3       1 TPP600      0.0000 
     13 C5        103.7480   31.4920   11.4630 C.2       1 TPP600      0.0000 
     14 C4        103.2490   32.2910   10.4910 C.2       1 TPP600      0.0000 
     15 CM4       103.6280   33.7630   10.2500 C.3       1 TPP600      0.0000 
     16 C6        104.7330   31.7810   12.4900 C.3       1 TPP600      0.0000 
     17 C7        104.3950   31.3010   13.9690 C.3       1 TPP600      0.0000 
     18 O7        105.7120   31.2530   14.6200 O.3       1 TPP600      0.0000 
     19 PA        105.8980   30.9380   16.1920 P.3       1 TPP600      0.0000 
     20 O1A       107.2810   31.3890   16.2950 O.co2     1 TPP600      0.0000 
     21 O2A       104.9810   31.5160   17.1930 O.co2     1 TPP600      0.0000 
     22 O3A       105.8060   29.3310   16.0650 O.3       1 TPP600      0.0000 
     23 PB        106.9000   28.1280   16.1940 P.3       1 TPP600      0.0000 
     24 O1B       106.7690   27.7970   17.6420 O.co2     1 TPP600      0.0000 
     25 O2B       106.4290   27.0750   15.2530 O.co2     1 TPP600      0.0000 
     26 O3B       108.1680   28.7610   15.7640 O.co2     1 TPP600      0.0000 
     27 H          99.5017   30.8289   10.0043 H         1 TPP600      0.0000 
     28 H          97.8308   31.2956   10.4689 H         1 TPP600      0.0000 
     29 H         100.9672   34.8734    8.1096 H         1 TPP600      0.0000 
     30 H         102.0482   32.8233    7.9928 H         1 TPP600      0.0000 
     31 H         100.9545   31.4310    8.0665 H         1 TPP600      0.0000 
     32 H         101.5038   29.6728    9.9029 H         1 TPP600      0.0000 
     33 H         104.9327   32.8792   12.5632 H         1 TPP600      0.0000 
     34 H         105.7245   31.3272   12.2404 H         1 TPP600      0.0000 
     35 H         103.9484   30.3433   13.8953 H         1 TPP600      0.0000 
     36 H         103.7603   32.0314   14.4002 H         1 TPP600      0.0000 
     37 H          97.2932   36.5898   10.6230 H         1 TPP600      0.0000 
     38 H          96.5190   36.1214    9.2936 H         1 TPP600      0.0000 
     39 H          96.2885   35.3353   10.6774 H         1 TPP600      0.0000 
     40 H         104.3712   34.0582   10.8504 H         1 TPP600      0.0000 
     41 H         103.9309   33.9194    9.3099 H         1 TPP600      0.0000 
     42 H         102.8562   34.3771   10.4153 H         1 TPP600      0.0000 
@<TRIPOS>BOND
     1    2    1 ar   
     2    8    1 ar   
     3    3    2 1    
     4    4    2 ar   
     5   37    3 1    
     6   38    3 1    
     7   39    3 1    
     8    5    4 ar   
     9    6    5 1    
    10    7    5 ar   
    11   27    6 1    
    12   28    6 1    
    13    8    7 ar   
    14    9    7 1    
    15   29    8 1    
    16   10    9 1    
    17   30    9 1    
    18   31    9 1    
    19   11   10 2    
    20   14   10 1    
    21   12   11 1    
    22   32   11 1    
    23   13   12 1    
    24   14   13 2    
    25   16   13 1    
    26   15   14 1    
    27   40   15 1    
    28   41   15 1    
    29   42   15 1    
    30   17   16 1    
    31   33   16 1    
    32   34   16 1    
    33   18   17 1    
    34   35   17 1    
    35   36   17 1    
    36   19   18 1    
    37   20   19 ar   
    38   21   19 ar   
    39   22   19 1    
    40   23   22 1    
    41   24   23 ar   
    42   25   23 ar   
    43   26   23 ar   
@<TRIPOS>SUBSTRUCTURE
     1 TPP600      1 GROUP   
@<TRIPOS>SET

