#    Name: 2jas_DTP_3_INTS_M
#    Modification time : Tue Mar 25 19:50:44 2014

@<TRIPOS>MOLECULE
2jas_DTP_3_INTS_M
   75     0    15     0     0
SMALL
NO_CHARGES


@<TRIPOS>ATOM
      1 N         -52.8695   33.1435  -29.0260 N.am      2 SEC2        0.0000 
      2 N         -52.1840   33.9970  -27.9280 N.am     12 SEL2        0.0000 
      3 N         -53.5550   32.2900  -30.1240 N.am      7 SEP2        0.0000 
      4 N         -51.9815   34.2585  -29.3510 N.am      2 SEC2        0.0000 
      5 N         -51.7790   34.5200  -30.7740 N.am      7 SEP2        0.0000 
      6 Zn        -52.8975   36.5695  -26.1305 Zn        4 ZIC7        0.0000 
      7 Zn        -52.9440   35.4090  -25.9390 Zn       14 ZIL7        0.0000 
      8 Zn        -52.8510   37.7300  -26.3220 Zn        9 ZIP7        0.0000 
      9 N         -52.4660   35.2945  -24.5980 N.am      2 SEC2        0.0000 
     10 N         -52.9440   35.4090  -25.9390 N.am     12 SEL2        0.0000 
     11 N         -51.9880   35.1800  -23.2570 N.am      7 SEP2        0.0000 
     12 NZ        -54.6655   32.8225  -25.3095 N.4       3 LYC4        0.0000 
     13 NZ        -53.2770   32.8590  -25.9530 N.4      13 LYL4        0.0000 
     14 NZ        -56.0540   32.7860  -24.6660 N.4       8 LYP4        0.0000 
     15 N         -52.0805   32.0870  -25.9315 N.am      2 SEC2        0.0000 
     16 N         -53.2770   32.8590  -25.9530 N.am     12 SEL2        0.0000 
     17 N         -50.8840   31.3150  -25.9100 N.am      7 SEP2        0.0000 
     18 N         -53.0840   31.8800  -26.8855 N.am      2 SEC2        0.0000 
     19 N         -52.8910   30.9010  -27.8180 N.am      7 SEP2        0.0000 
     20 N         -54.6655   32.8225  -25.3095 N.am      2 SEC2        0.0000 
     21 N         -56.0540   32.7860  -24.6660 N.am      7 SEP2        0.0000 
     22 Zn        -53.5600   37.2830  -26.9550 Zn        4 ZIC7        0.0000 
     23 Zn        -54.2690   36.8360  -27.5880 Zn       14 ZIL7        0.0000 
     24 N         -56.6840   34.6050  -29.8020 N.am      2 SEC2        0.0000 
     25 N         -55.9440   35.5420  -29.1440 N.am     12 SEL2        0.0000 
     26 N         -57.4240   33.6680  -30.4600 N.am      7 SEP2        0.0000 
     27 N         -54.0705   33.2900  -28.7920 N.am      2 SEC2        0.0000 
     28 N         -54.5860   34.2900  -27.4600 N.am     12 SEL2        0.0000 
     29 NZ        -56.1935   34.2310  -24.4740 N.4       3 LYC4        0.0000 
     30 NZ        -56.3330   35.6760  -24.2820 N.4      13 LYL4        0.0000 
     31 NZ        -57.7170   35.7185  -24.2735 N.4       3 LYC4        0.0000 
     32 NZ        -60.0850   34.9720  -23.8730 N.4       8 LYP4        0.0000 
     33 N         -56.1935   34.2310  -24.4740 N.am      2 SEC2        0.0000 
     34 N         -56.3330   35.6760  -24.2820 N.am     12 SEL2        0.0000 
     35 N         -57.7170   35.7185  -24.2735 N.am      2 SEC2        0.0000 
     36 N         -59.1010   35.7610  -24.2650 N.am      7 SEP2        0.0000 
     37 Zn        -53.9075   37.6445  -25.8935 Zn        4 ZIC7        0.0000 
     38 Zn        -54.9640   37.5590  -25.4650 Zn       14 ZIL7        0.0000 
     39 N         -56.1295   41.7395  -22.3990 N.am      2 SEC2        0.0000 
     40 N         -56.1460   41.2390  -23.6540 N.am     12 SEL2        0.0000 
     41 N         -56.1130   42.2400  -21.1440 N.am      7 SEP2        0.0000 
     42 O         -54.9970   41.1070  -24.1140 O.2       1 ALC1        0.0000 
     43 O         -56.1460   41.2390  -23.6540 O.2      11 ALL1        0.0000 
     44 O         -53.8480   40.9750  -24.5740 O.2       6 ALP1        0.0000 
     45 CA        -58.6795   38.9375  -21.2080 C.3       5 GLC5        0.0000 
     46 CA        -57.9290   39.8890  -22.8270 C.3      15 GLL5        0.0000 
     47 CA        -59.4300   37.9860  -19.5890 C.3      10 GLP5        0.0000 
     48 CA        -58.4690   42.2460  -24.2785 C.3       5 GLC5        0.0000 
     49 CA        -59.1060   40.5450  -23.5250 C.3      15 GLL5        0.0000 
     50 CA        -57.8320   43.9470  -25.0320 C.3      10 GLP5        0.0000 
     51 N         -63.6020   38.1300  -23.7335 N.am      2 SEC2        0.0000 
     52 N         -62.3820   38.9630  -23.0480 N.am     12 SEL2        0.0000 
     53 N         -64.8220   37.2970  -24.4190 N.am      7 SEP2        0.0000 
     54 CA        -62.9050   39.3000  -19.1515 C.3       5 GLC5        0.0000 
     55 CA        -63.2490   40.0210  -20.7930 C.3      15 GLL5        0.0000 
     56 CA        -62.5610   38.5790  -17.5100 C.3      10 GLP5        0.0000 
     57 O         -65.3130   38.5620  -21.4630 O.2       1 ALC1        0.0000 
     58 O         -64.4490   39.4140  -20.6760 O.2      11 ALL1        0.0000 
     59 O         -66.1770   37.7100  -22.2500 O.2       6 ALP1        0.0000 
     60 CA        -61.7410   42.7875  -21.3140 C.3       5 GLC5        0.0000 
     61 CA        -61.6410   41.5430  -19.9420 C.3      15 GLL5        0.0000 
     62 CA        -61.8410   44.0320  -22.6860 C.3      10 GLP5        0.0000 
     63 CA        -62.1010   40.0610  -18.7260 C.3       5 GLC5        0.0000 
     64 CA        -58.0318   40.2840  -27.5132 C.3       5 GLC5        0.0000 
     65 CA        -57.5450   40.1140  -25.2170 C.3      15 GLL5        0.0000 
     66 CA        -58.6170   41.0520  -29.3480 C.3      10 GLP5        0.0000 
     67 CA        -57.5118   42.0048  -24.7890 C.3       5 GLC5        0.0000 
     68 CA        -56.5662   38.6155  -22.3345 C.3       5 GLC5        0.0000 
     69 CA        -56.8380   40.0110  -23.8750 C.3      15 GLL5        0.0000 
     70 CA        -55.7490   37.2810  -21.3180 C.3      10 GLP5        0.0000 
     71 CA        -61.7747   42.0692  -22.3190 C.3       5 GLC5        0.0000 
     72 CA        -61.0670   40.4710  -21.9640 C.3      15 GLL5        0.0000 
     73 CA        -64.0807   40.7122  -22.7907 C.3       5 GLC5        0.0000 
     74 CA        -62.3500   39.7420  -21.9400 C.3      15 GLL5        0.0000 
     75 CA        -65.3620   41.5430  -24.2150 C.3      10 GLP5        0.0000 
@<TRIPOS>BOND
@<TRIPOS>SUBSTRUCTURE
     1 ALC1       42 GROUP        1 X    ALC  0     ROOT ALC X 1
     2 SEC2        1 GROUP        1 X    SEC  0     **** SEC X 2
     3 LYC4       12 GROUP        1 X    LYC  0     **** LYC X 4
     4 ZIC7        6 GROUP        1 X    ZIC  0     **** ZIC X 5
     5 GLC5       45 GROUP        1 X    GLC  0     **** GLC X 6
     6 ALP1       44 GROUP        1 Y    ALP  0     ROOT ALP Y 8
     7 SEP2        3 GROUP        1 Y    SEP  0     **** SEP Y 9
     8 LYP4       14 GROUP        1 Y    LYP  0     **** LYP Y 11
     9 ZIP7        8 GROUP        1 Y    ZIP  0     **** ZIP Y 12
    10 GLP5       47 GROUP        1 Y    GLP  0     **** GLP Y 13
    11 ALL1       43 GROUP        1 Z    ALL  0     ROOT ALL Z 15
    12 SEL2        2 GROUP        1 Z    SEL  0     **** SEL Z 16
    13 LYL4       13 GROUP        1 Z    LYL  0     **** LYL Z 18
    14 ZIL7        7 GROUP        1 Z    ZIL  0     **** ZIL Z 19
    15 GLL5       46 GROUP        1 Z    GLL  0     **** GLL Z 20
@<TRIPOS>SET

