#    Name: 2jas_DTP_3_ligand
#    Modification time : Tue Mar 25 19:50:45 2014

@<TRIPOS>MOLECULE
2jas_DTP_3_ligand
   42    44     1     0     0
SMALL
NO_CHARGES


@<TRIPOS>ATOM
      1 PG        -53.1370   34.1410  -26.7530 P.3       1 DTP1202     0.0000 
      2 O1G       -52.1840   33.9970  -27.9280 O.co2     1 DTP1202     0.0000 
      3 O2G       -52.9440   35.4090  -25.9390 O.co2     1 DTP1202     0.0000 
      4 O3G       -53.2770   32.8590  -25.9530 O.co2     1 DTP1202     0.0000 
      5 PB        -55.2510   35.7200  -27.8260 P.3       1 DTP1202     0.0000 
      6 O1B       -54.2690   36.8360  -27.5880 O.co2     1 DTP1202     0.0000 
      7 O2B       -55.9440   35.5420  -29.1440 O.co2     1 DTP1202     0.0000 
      8 O3B       -54.5860   34.2900  -27.4600 O.3       1 DTP1202     0.0000 
      9 PA        -56.1980   36.6910  -25.3830 P.3       1 DTP1202     0.0000 
     10 O1A       -56.3330   35.6760  -24.2820 O.co2     1 DTP1202     0.0000 
     11 O2A       -54.9640   37.5590  -25.4650 O.co2     1 DTP1202     0.0000 
     12 O3A       -56.4000   35.8260  -26.7160 O.3       1 DTP1202     0.0000 
     13 O5'       -57.4640   37.6880  -25.4320 O.3       1 DTP1202     0.0000 
     14 C5'       -57.3480   38.9180  -26.1400 C.3       1 DTP1202     0.0000 
     15 C4'       -57.5450   40.1140  -25.2170 C.3       1 DTP1202     0.0000 
     16 O4'       -58.9330   40.2580  -24.9210 O.3       1 DTP1202     0.0000 
     17 C3'       -56.8380   40.0110  -23.8750 C.3       1 DTP1202     0.0000 
     18 O3'       -56.1460   41.2390  -23.6540 O.3       1 DTP1202     0.0000 
     19 C2'       -57.9290   39.8890  -22.8270 C.3       1 DTP1202     0.0000 
     20 C1'       -59.1060   40.5450  -23.5250 C.3       1 DTP1202     0.0000 
     21 N9        -60.4360   40.0700  -23.0680 N.pl3     1 DTP1202     0.0000 
     22 C8        -61.2160   39.1730  -23.7160 C.2       1 DTP1202     0.0000 
     23 N7        -62.3820   38.9630  -23.0480 N.2       1 DTP1202     0.0000 
     24 C5        -62.3500   39.7420  -21.9400 C.ar      1 DTP1202     0.0000 
     25 C6        -63.2490   40.0210  -20.7930 C.ar      1 DTP1202     0.0000 
     26 N6        -64.4490   39.4140  -20.6760 N.pl3     1 DTP1202     0.0000 
     27 N1        -62.8320   40.9110  -19.8650 N.ar      1 DTP1202     0.0000 
     28 C2        -61.6410   41.5430  -19.9420 C.ar      1 DTP1202     0.0000 
     29 N3        -60.7800   41.3320  -20.9540 N.ar      1 DTP1202     0.0000 
     30 C4        -61.0670   40.4710  -21.9640 C.ar      1 DTP1202     0.0000 
     31 H         -58.0961   38.9935  -26.9489 H         1 DTP1202     0.0000 
     32 H         -56.3562   39.0220  -26.6144 H         1 DTP1202     0.0000 
     33 H         -57.1869   41.0080  -25.7192 H         1 DTP1202     0.0000 
     34 H         -56.2259   39.1725  -23.8574 H         1 DTP1202     0.0000 
     35 H         -57.6664   40.4401  -21.9663 H         1 DTP1202     0.0000 
     36 H         -58.1399   38.8718  -22.6418 H         1 DTP1202     0.0000 
     37 H         -59.0233   41.6189  -23.3716 H         1 DTP1202     0.0000 
     38 H         -60.9749   38.7306  -24.5572 H         1 DTP1202     0.0000 
     39 H         -64.9844   39.6503  -19.8651 H         1 DTP1202     0.0000 
     40 H         -64.6959   38.7820  -21.4106 H         1 DTP1202     0.0000 
     41 H         -61.3780   42.2272  -19.1791 H         1 DTP1202     0.0000 
     42 H         -55.1917   40.9762  -23.5117 H         1 DTP1202     0.0000 
@<TRIPOS>BOND
     1    2    1 ar   
     2    3    1 ar   
     3    4    1 ar   
     4    8    1 1    
     5    6    5 ar   
     6    7    5 ar   
     7    8    5 1    
     8   12    5 1    
     9   10    9 ar   
    10   11    9 ar   
    11   12    9 1    
    12   13    9 1    
    13   14   13 1    
    14   15   14 1    
    15   31   14 1    
    16   32   14 1    
    17   16   15 1    
    18   17   15 1    
    19   33   15 1    
    20   20   16 1    
    21   18   17 1    
    22   19   17 1    
    23   34   17 1    
    24   42   18 1    
    25   20   19 1    
    26   35   19 1    
    27   36   19 1    
    28   21   20 1    
    29   37   20 1    
    30   22   21 1    
    31   30   21 1    
    32   23   22 2    
    33   38   22 1    
    34   24   23 1    
    35   25   24 ar   
    36   30   24 ar   
    37   26   25 1    
    38   27   25 ar   
    39   39   26 1    
    40   40   26 1    
    41   28   27 ar   
    42   29   28 ar   
    43   41   28 1    
    44   30   29 ar   
@<TRIPOS>SUBSTRUCTURE
     1 DTP1202     1 GROUP   
@<TRIPOS>SET

