#    Name: 4na4_A1R_3_INTS_M
#    Modification time : Tue Mar 25 12:52:37 2014

@<TRIPOS>MOLECULE
4na4_A1R_3_INTS_M
   81     0     9     0     0
SMALL
NO_CHARGES


@<TRIPOS>ATOM
      1 N          39.1195   60.4760   30.5900 N.am      2 SEC2        0.0000 
      2 N          39.3740   62.0800   30.6700 N.am      8 SEL2        0.0000 
      3 N          38.8650   58.8720   30.5100 N.am      5 SEP2        0.0000 
      4 CA         40.0385   60.7605   29.6225 C.3       3 GLC5        0.0000 
      5 CA         40.6370   62.3150   31.0760 C.3       9 GLL5        0.0000 
      6 CA         39.4400   59.2060   28.1690 C.3       6 GLP5        0.0000 
      7 CA         40.1210   60.9770   32.2165 C.3       3 GLC5        0.0000 
      8 CA         39.6050   59.6390   33.3570 C.3       6 GLP5        0.0000 
      9 CA         42.0820   60.8195   30.7690 C.3       3 GLC5        0.0000 
     10 CA         43.5270   59.3240   30.4620 C.3       6 GLP5        0.0000 
     11 CA         41.9000   64.7155   29.7280 C.3       3 GLC5        0.0000 
     12 CA         40.3040   64.6350   31.0160 C.3       9 GLL5        0.0000 
     13 CA         43.4960   64.7960   28.4400 C.3       6 GLP5        0.0000 
     14 CA         38.3490   61.5335   29.0640 C.3       3 GLC5        0.0000 
     15 CA         38.5480   63.1300   30.4200 C.3       9 GLL5        0.0000 
     16 CA         38.1500   59.9370   27.7080 C.3       6 GLP5        0.0000 
     17 O          36.3880   61.7865   29.9360 O.2       1 ALC1        0.0000 
     18 O          37.2760   62.9150   30.0050 O.2       7 ALL1        0.0000 
     19 O          35.5000   60.6580   29.8670 O.2       4 ALP1        0.0000 
     20 CA         41.2075   65.7100   33.4475 C.3       3 GLC5        0.0000 
     21 CA         41.8000   66.5580   31.5270 C.3       9 GLL5        0.0000 
     22 CA         40.6150   64.8620   35.3680 C.3       6 GLP5        0.0000 
     23 CA         43.5140   66.4850   32.7220 C.3       3 GLC5        0.0000 
     24 CA         45.2280   66.4120   33.9170 C.3       6 GLP5        0.0000 
     25 CA         41.9745   65.8905   29.7190 C.3       3 GLC5        0.0000 
     26 CA         42.1490   65.2230   27.9110 C.3       6 GLP5        0.0000 
     27 CA         42.0085   67.2230   29.2270 C.3       3 GLC5        0.0000 
     28 CA         42.1150   67.8910   30.8680 C.3       9 GLL5        0.0000 
     29 CA         41.9020   66.5550   27.5860 C.3       6 GLP5        0.0000 
     30 N          44.7850   67.1445   31.1230 N.am      2 SEC2        0.0000 
     31 N          43.5180   67.9080   30.5970 N.am      8 SEL2        0.0000 
     32 N          46.0520   66.3810   31.6490 N.am      5 SEP2        0.0000 
     33 CA         41.3415   66.5305   34.2810 C.3       3 GLC5        0.0000 
     34 CA         42.0680   68.1990   33.1940 C.3       9 GLL5        0.0000 
     35 CA         43.6480   67.3055   33.5555 C.3       3 GLC5        0.0000 
     36 CA         40.5610   67.2090   35.2470 C.3       3 GLC5        0.0000 
     37 CA         41.2920   68.6970   34.4000 C.3       9 GLL5        0.0000 
     38 CA         39.8300   65.7210   36.0940 C.3       6 GLP5        0.0000 
     39 CA         42.0370   70.6035   34.4485 C.3       3 GLC5        0.0000 
     40 CA         42.7820   72.5100   34.4970 C.3       6 GLP5        0.0000 
     41 N          36.4340   69.1395   33.7700 N.am      2 SEC2        0.0000 
     42 N          37.6550   69.6440   34.7160 N.am      8 SEL2        0.0000 
     43 N          35.2130   68.6350   32.8240 N.am      5 SEP2        0.0000 
     44 N          40.3105   72.5200   35.0930 N.am      2 SEC2        0.0000 
     45 N          39.6330   71.3000   34.6370 N.am      8 SEL2        0.0000 
     46 N          40.9880   73.7400   35.5490 N.am      5 SEP2        0.0000 
     47 N          42.2560   71.5165   36.3475 N.am      2 SEC2        0.0000 
     48 N          41.1010   71.3720   37.1890 N.am      8 SEL2        0.0000 
     49 N          43.4110   71.6610   35.5060 N.am      5 SEP2        0.0000 
     50 N          41.3855   72.7775   37.6915 N.am      2 SEC2        0.0000 
     51 N          41.6700   74.1830   38.1940 N.am      5 SEP2        0.0000 
     52 N          41.5250   68.7720   38.8925 N.am      2 SEC2        0.0000 
     53 N          40.2410   69.5070   38.7750 N.am      8 SEL2        0.0000 
     54 N          42.8090   68.0370   39.0100 N.am      5 SEP2        0.0000 
     55 CA         38.6710   72.6565   39.7815 C.3       3 GLC5        0.0000 
     56 CA         37.8910   71.1980   38.9650 C.3       9 GLL5        0.0000 
     57 CA         39.4510   74.1150   40.5980 C.3       6 GLP5        0.0000 
     58 CA         35.2270   71.2245   35.8340 C.3       3 GLC5        0.0000 
     59 CA         34.8480   71.4130   37.4640 C.3       9 GLL5        0.0000 
     60 CA         35.6060   71.0360   34.2040 C.3       6 GLP5        0.0000 
     61 O          32.8600   69.8390   39.6755 O.2       1 ALC1        0.0000 
     62 O          33.2890   71.0040   39.3090 O.2       7 ALL1        0.0000 
     63 O          32.4310   68.6740   40.0420 O.2       4 ALP1        0.0000 
     64 N          34.2675   73.3870   41.4760 N.am      2 SEC2        0.0000 
     65 N          34.8650   73.0050   40.1520 N.am      8 SEL2        0.0000 
     66 N          33.6700   73.7690   42.8000 N.am      5 SEP2        0.0000 
     67 CA         36.6975   72.5315   40.9450 C.3       3 GLC5        0.0000 
     68 CA         35.5660   71.8170   39.7420 C.3       9 GLL5        0.0000 
     69 CA         37.8290   73.2460   42.1480 C.3       6 GLP5        0.0000 
     70 CA         37.4555   73.1695   40.0065 C.3       3 GLC5        0.0000 
     71 CA         36.7220   72.1600   38.8230 C.3       9 GLL5        0.0000 
     72 CA         38.1890   74.1790   41.1900 C.3       6 GLP5        0.0000 
     73 CA         37.9704   64.5056   32.0276 C.3       3 GLC5        0.0000 
     74 CA         36.8400   65.1780   33.4440 C.3       6 GLP5        0.0000 
     75 CA         38.0888   73.1185   37.6975 C.3       3 GLC5        0.0000 
     76 CA         38.8710   74.5580   36.5010 C.3       6 GLP5        0.0000 
     77 CA         33.8948   69.3077   37.7703 C.3       3 GLC5        0.0000 
     78 CA         33.0360   67.4430   37.3590 C.3       6 GLP5        0.0000 
     79 CA         34.1028   71.3988   40.9528 C.3       3 GLC5        0.0000 
     80 CA         34.6590   70.9320   38.8990 C.3       9 GLL5        0.0000 
     81 CA         33.0930   71.4230   42.5850 C.3       6 GLP5        0.0000 
@<TRIPOS>BOND
@<TRIPOS>SUBSTRUCTURE
     1 ALC1       17 GROUP        1 X    ALC  0     ROOT ALC X 1
     2 SEC2        1 GROUP        1 X    SEC  0     **** SEC X 2
     3 GLC5        4 GROUP        1 X    GLC  0     **** GLC X 6
     4 ALP1       19 GROUP        1 Y    ALP  0     ROOT ALP Y 8
     5 SEP2        3 GROUP        1 Y    SEP  0     **** SEP Y 9
     6 GLP5        6 GROUP        1 Y    GLP  0     **** GLP Y 13
     7 ALL1       18 GROUP        1 Z    ALL  0     ROOT ALL Z 15
     8 SEL2        2 GROUP        1 Z    SEL  0     **** SEL Z 16
     9 GLL5        5 GROUP        1 Z    GLL  0     **** GLL Z 20
@<TRIPOS>SET

