#    Name: 4na4_A1R_3_ligand
#    Modification time : Tue Mar 25 12:52:37 2014

@<TRIPOS>MOLECULE
4na4_A1R_3_ligand
   56    59     1     0     0
SMALL
NO_CHARGES


@<TRIPOS>ATOM
      1 N1         39.3740   62.0800   30.6700 N.ar      1 A1R1001     0.0000 
      2 C2         40.6370   62.3150   31.0760 C.ar      1 A1R1001     0.0000 
      3 N3         41.1000   63.5670   31.2430 N.ar      1 A1R1001     0.0000 
      4 C4         40.3040   64.6350   31.0160 C.ar      1 A1R1001     0.0000 
      5 C5         39.0030   64.4380   30.5890 C.ar      1 A1R1001     0.0000 
      6 C6         38.5480   63.1300   30.4200 C.ar      1 A1R1001     0.0000 
      7 N6         37.2760   62.9150   30.0050 N.pl3     1 A1R1001     0.0000 
      8 N7         38.4390   65.6640   30.4260 N.2       1 A1R1001     0.0000 
      9 C8         39.3750   66.5910   30.7430 C.2       1 A1R1001     0.0000 
     10 N9         40.5080   65.9560   31.1010 N.pl3     1 A1R1001     0.0000 
     11 C1'        41.8000   66.5580   31.5270 C.3       1 A1R1001     0.0000 
     12 C2'        42.1150   67.8910   30.8680 C.3       1 A1R1001     0.0000 
     13 O2'        43.5180   67.9080   30.5970 O.3       1 A1R1001     0.0000 
     14 C3'        41.7510   68.9320   31.9070 C.3       1 A1R1001     0.0000 
     15 O3'        42.5220   70.1320   31.8040 O.3       1 A1R1001     0.0000 
     16 O4'        41.7660   66.8260   32.9310 O.3       1 A1R1001     0.0000 
     17 C4'        42.0680   68.1990   33.1940 C.3       1 A1R1001     0.0000 
     18 C5'        41.2920   68.6970   34.4000 C.3       1 A1R1001     0.0000 
     19 O5'        39.9190   68.8450   34.0720 O.3       1 A1R1001     0.0000 
     20 PA         39.1060   69.9180   34.9300 P.3       1 A1R1001     0.0000 
     21 O1A        37.6550   69.6440   34.7160 O.co2     1 A1R1001     0.0000 
     22 O2A        39.6330   71.3000   34.6370 O.co2     1 A1R1001     0.0000 
     23 O3A        39.6120   69.4290   36.3800 O.3       1 A1R1001     0.0000 
     24 PB         40.0150   70.3990   37.5930 P.3       1 A1R1001     0.0000 
     25 O1B        41.1010   71.3720   37.1890 O.co2     1 A1R1001     0.0000 
     26 O2B        40.2410   69.5070   38.7750 O.co2     1 A1R1001     0.0000 
     27 O5N        38.6510   71.2090   37.7610 O.3       1 A1R1001     0.0000 
     28 C5N        37.8910   71.1980   38.9650 C.3       1 A1R1001     0.0000 
     29 N4N        36.1290   72.0770   37.5090 N.4       1 A1R1001     0.0000 
     30 C1N        34.8480   71.4130   37.4640 C.3       1 A1R1001     0.0000 
     31 O2N        33.2890   71.0040   39.3090 O.3       1 A1R1001     0.0000 
     32 C2N        34.6590   70.9320   38.8990 C.3       1 A1R1001     0.0000 
     33 O3N        34.8650   73.0050   40.1520 O.3       1 A1R1001     0.0000 
     34 C3N        35.5660   71.8170   39.7420 C.3       1 A1R1001     0.0000 
     35 C4N        36.7220   72.1600   38.8230 C.3       1 A1R1001     0.0000 
     36 H          41.2756   61.4995   31.2667 H         1 A1R1001     0.0000 
     37 H          36.8600   63.6462   29.4644 H         1 A1R1001     0.0000 
     38 H          36.8659   62.0441   30.2762 H         1 A1R1001     0.0000 
     39 H          39.2466   67.5489   30.7154 H         1 A1R1001     0.0000 
     40 H          42.6153   65.8789   31.3091 H         1 A1R1001     0.0000 
     41 H          41.5162   68.0023   30.0200 H         1 A1R1001     0.0000 
     42 H          40.7005   69.0871   31.8729 H         1 A1R1001     0.0000 
     43 H          43.1316   68.3066   33.3851 H         1 A1R1001     0.0000 
     44 H          41.7405   69.6496   34.7186 H         1 A1R1001     0.0000 
     45 H          41.4410   67.9757   35.2171 H         1 A1R1001     0.0000 
     46 H          38.4871   71.5168   39.8258 H         1 A1R1001     0.0000 
     47 H          37.4855   70.2047   39.1816 H         1 A1R1001     0.0000 
     48 H          34.8612   70.5624   36.8184 H         1 A1R1001     0.0000 
     49 H          34.0561   72.0881   37.2237 H         1 A1R1001     0.0000 
     50 H          35.0498   69.9235   38.9520 H         1 A1R1001     0.0000 
     51 H          35.9324   71.2460   40.5554 H         1 A1R1001     0.0000 
     52 H          37.0315   73.1596   39.0283 H         1 A1R1001     0.0000 
     53 H          43.8178   68.8296   30.8432 H         1 A1R1001     0.0000 
     54 H          42.0914   70.6538   31.0675 H         1 A1R1001     0.0000 
     55 H          33.0415   70.0656   39.5501 H         1 A1R1001     0.0000 
     56 H          33.9261   72.8743   39.8335 H         1 A1R1001     0.0000 
@<TRIPOS>BOND
     1    2    1 ar   
     2    6    1 ar   
     3    3    2 ar   
     4   36    2 1    
     5    4    3 ar   
     6    5    4 ar   
     7   10    4 1    
     8    6    5 ar   
     9    8    5 1    
    10    7    6 1    
    11   37    7 1    
    12   38    7 1    
    13    9    8 2    
    14   10    9 1    
    15   39    9 1    
    16   11   10 1    
    17   12   11 1    
    18   16   11 1    
    19   40   11 1    
    20   13   12 1    
    21   14   12 1    
    22   41   12 1    
    23   53   13 1    
    24   15   14 1    
    25   17   14 1    
    26   42   14 1    
    27   54   15 1    
    28   17   16 1    
    29   18   17 1    
    30   43   17 1    
    31   19   18 1    
    32   44   18 1    
    33   45   18 1    
    34   20   19 1    
    35   21   20 ar   
    36   22   20 ar   
    37   23   20 1    
    38   24   23 1    
    39   25   24 ar   
    40   26   24 ar   
    41   27   24 1    
    42   28   27 1    
    43   35   28 1    
    44   46   28 1    
    45   47   28 1    
    46   30   29 1    
    47   35   29 1    
    48   32   30 1    
    49   48   30 1    
    50   49   30 1    
    51   32   31 1    
    52   55   31 1    
    53   34   32 1    
    54   50   32 1    
    55   34   33 1    
    56   56   33 1    
    57   35   34 1    
    58   51   34 1    
    59   52   35 1    
@<TRIPOS>SUBSTRUCTURE
     1 A1R1001     1 GROUP   
@<TRIPOS>SET

