#    Name: 3qkm_SM9_1_INTS_M
#    Modification time : Mon Apr  7 19:37:47 2014

@<TRIPOS>MOLECULE
3qkm_SM9_1_INTS_M
   93     0     9     0     0
SMALL
NO_CHARGES


@<TRIPOS>ATOM
      1 O          26.3930    1.6730   12.1615 O.2       1 ALC1        0.0000 
      2 O          27.7160    0.8850   12.3060 O.2       7 ALL1        0.0000 
      3 O          25.0700    2.4610   12.0170 O.2       4 ALP1        0.0000 
      4 CA         33.1715   -0.7410    9.3365 C.3       3 GLC5        0.0000 
      5 CA         31.5140   -0.1360   10.3330 C.3       9 GLL5        0.0000 
      6 CA         34.8290   -1.3460    8.3400 C.3       6 GLP5        0.0000 
      7 CA         29.8085   -0.3635    8.9310 C.3       3 GLC5        0.0000 
      8 CA         28.1030   -0.5910    7.5290 C.3       6 GLP5        0.0000 
      9 CA         30.9850   -1.8900    9.6025 C.3       3 GLC5        0.0000 
     10 CA         30.4560   -3.6440    8.8720 C.3       6 GLP5        0.0000 
     11 CA         33.9635    2.4820   13.4895 C.3       3 GLC5        0.0000 
     12 CA         32.2380    3.2180   14.2130 C.3       9 GLL5        0.0000 
     13 CA         35.6890    1.7460   12.7660 C.3       6 GLP5        0.0000 
     14 CA         27.2290    5.0160   15.9585 C.3       3 GLC5        0.0000 
     15 CA         26.6680    4.5480   14.1260 C.3       9 GLL5        0.0000 
     16 CA         27.7900    5.4840   17.7910 C.3       6 GLP5        0.0000 
     17 O          26.2310    3.0495   12.6055 O.2       1 ALC1        0.0000 
     18 O          27.3920    3.6380   13.1940 O.2       7 ALL1        0.0000 
     19 CA         30.5980    6.7260    9.9855 C.3       3 GLC5        0.0000 
     20 CA         28.5280    6.3550   10.6620 C.3       9 GLL5        0.0000 
     21 CA         32.6680    7.0970    9.3090 C.3       6 GLP5        0.0000 
     22 CA         28.5985    4.7555    9.1920 C.3       3 GLC5        0.0000 
     23 CA         28.6690    3.1560    7.7220 C.3       6 GLP5        0.0000 
     24 CA         28.6795    7.8495    7.9020 C.3       3 GLC5        0.0000 
     25 CA         27.7820    6.8470    9.4080 C.3       9 GLL5        0.0000 
     26 CA         29.5770    8.8520    6.3960 C.3       6 GLP5        0.0000 
     27 CA         28.4670    5.5640    8.1100 C.3       3 GLC5        0.0000 
     28 CA         29.1520    4.2810    6.8120 C.3       6 GLP5        0.0000 
     29 CA         25.9840    7.8405   10.0665 C.3       3 GLC5        0.0000 
     30 CA         24.1860    8.8340   10.7250 C.3       6 GLP5        0.0000 
     31 CA         27.3060    8.7480    9.1140 C.3       3 GLC5        0.0000 
     32 CA         26.8300   10.6490    8.8200 C.3       6 GLP5        0.0000 
     33 CA         27.6255    4.0695    9.0325 C.3       3 GLC5        0.0000 
     34 CA         26.5820    4.9830   10.3430 C.3       9 GLL5        0.0000 
     35 CA         24.9600    6.1335   10.7070 C.3       3 GLC5        0.0000 
     36 CA         23.3380    7.2840   11.0710 C.3       6 GLP5        0.0000 
     37 N          22.3770    7.9920    6.4125 N.am      2 SEC2        0.0000 
     38 N          23.4640    7.1790    6.8560 N.am      8 SEL2        0.0000 
     39 N          21.2900    8.8050    5.9690 N.am      5 SEP2        0.0000 
     40 CA         26.0485    8.2585    6.0300 C.3       3 GLC5        0.0000 
     41 CA         24.5460    7.9220    7.1380 C.3       9 GLL5        0.0000 
     42 CA         27.5510    8.5950    4.9220 C.3       6 GLP5        0.0000 
     43 CA         24.5775    6.7300    5.6090 C.3       3 GLC5        0.0000 
     44 CA         24.6090    5.5380    4.0800 C.3       6 GLP5        0.0000 
     45 CA         22.7525    8.4225    7.7735 C.3       3 GLC5        0.0000 
     46 CA         20.9590    8.9230    8.4090 C.3       6 GLP5        0.0000 
     47 CA         24.3660    8.3780    8.9315 C.3       3 GLC5        0.0000 
     48 CA         30.7285   -7.1680   12.4110 C.3       3 GLC5        0.0000 
     49 CA         29.7780   -6.4560   13.9040 C.3       9 GLL5        0.0000 
     50 CA         31.6790   -7.8800   10.9180 C.3       6 GLP5        0.0000 
     51 CA         30.4245   -8.1670   14.1445 C.3       3 GLC5        0.0000 
     52 CA         31.0710   -9.8780   14.3850 C.3       6 GLP5        0.0000 
     53 N          34.1335   -1.8255   12.5555 N.am      2 SEC2        0.0000 
     54 N          32.8890   -0.9520   12.8530 N.am      8 SEL2        0.0000 
     55 N          35.3780   -2.6990   12.2580 N.am      5 SEP2        0.0000 
     56 CA         31.5540   -3.1928   13.9638 C.3       3 GLC5        0.0000 
     57 CA         29.9610   -1.7740   13.0410 C.3       9 GLL5        0.0000 
     58 CA         33.2260   -4.1020   14.3150 C.3       6 GLP5        0.0000 
     59 CA         33.4552    3.7895   11.1170 C.3       3 GLC5        0.0000 
     60 CA         31.9800    2.8620   12.7530 C.3       9 GLL5        0.0000 
     61 CA         35.0050    4.1810    9.9360 C.3       6 GLP5        0.0000 
     62 CA         32.1847    5.4505   10.2350 C.3       3 GLC5        0.0000 
     63 CA         31.8310    3.9340   11.8430 C.3       9 GLL5        0.0000 
     64 CA         33.2657    3.5958   10.0902 C.3       3 GLC5        0.0000 
     65 CA         31.5720    3.6740   10.4790 C.3       9 GLL5        0.0000 
     66 CA         32.4313    2.4512    8.6638 C.3       3 GLC5        0.0000 
     67 CA         33.3360    1.8920    7.0830 C.3       6 GLP5        0.0000 
     68 CA         30.0978    3.0833    8.9832 C.3       3 GLC5        0.0000 
     69 CA         31.4810    2.3470   10.0100 C.3       9 GLL5        0.0000 
     70 CA         33.7371    1.7380   12.2401 C.3       3 GLC5        0.0000 
     71 CA         31.6350    1.2690   10.9090 C.3       9 GLL5        0.0000 
     72 CA         32.4552    1.2292    8.8520 C.3       3 GLC5        0.0000 
     73 CA         26.0682    7.6463   13.7907 C.3       3 GLC5        0.0000 
     74 CA         26.7490    6.4200   12.4430 C.3       9 GLL5        0.0000 
     75 CA         25.8440    9.2730   14.6620 C.3       6 GLP5        0.0000 
     76 CA         24.8152    6.6517   11.9952 C.3       3 GLC5        0.0000 
     77 CA         26.4652    5.3705    7.1922 C.3       3 GLC5        0.0000 
     78 CA         25.5190    6.3000    8.4820 C.3       9 GLL5        0.0000 
     79 CA         27.9710    4.8600    6.0320 C.3       6 GLP5        0.0000 
     80 CA         21.8795    7.2363    7.8247 C.3       3 GLC5        0.0000 
     81 CA         23.3660    5.9490    7.3850 C.3       9 GLL5        0.0000 
     82 CA         23.7799    6.1612    9.6954 C.3       3 GLC5        0.0000 
     83 CA         23.0147    2.1725    7.0180 C.3       3 GLC5        0.0000 
     84 CA         22.1210    3.8530    7.6460 C.3       9 GLL5        0.0000 
     85 CA         23.3960    0.7380    5.9690 C.3       6 GLP5        0.0000 
     86 CA         22.0446    4.0011    9.8979 C.3       3 GLC5        0.0000 
     87 CA         21.1720    4.1950   11.6580 C.3       6 GLP5        0.0000 
     88 CA         23.8338    5.4829    5.7650 C.3       3 GLC5        0.0000 
     89 CA         22.2340    5.1500    7.0960 C.3       9 GLL5        0.0000 
     90 CA         20.7064    3.8558    8.4047 C.3       3 GLC5        0.0000 
     91 CA         18.9790    3.3330    9.2280 C.3       6 GLP5        0.0000 
     92 CA         31.5005   -4.9395   14.2903 C.3       3 GLC5        0.0000 
     93 CA         29.7720   -5.0980   14.6270 C.3       9 GLL5        0.0000 
@<TRIPOS>BOND
@<TRIPOS>SUBSTRUCTURE
     1 ALC1        1 GROUP        1 X    ALC  0     ROOT ALC X 1
     2 SEC2       37 GROUP        1 X    SEC  0     **** SEC X 2
     3 GLC5        4 GROUP        1 X    GLC  0     **** GLC X 6
     4 ALP1        3 GROUP        1 Y    ALP  0     ROOT ALP Y 8
     5 SEP2       39 GROUP        1 Y    SEP  0     **** SEP Y 9
     6 GLP5        6 GROUP        1 Y    GLP  0     **** GLP Y 13
     7 ALL1        2 GROUP        1 Z    ALL  0     ROOT ALL Z 15
     8 SEL2       38 GROUP        1 Z    SEL  0     **** SEL Z 16
     9 GLL5        5 GROUP        1 Z    GLL  0     **** GLL Z 20
@<TRIPOS>SET

