#    Name: 3qkm_SM9_1_ligand
#    Modification time : Mon Apr  7 19:37:47 2014

@<TRIPOS>MOLECULE
3qkm_SM9_1_ligand
   85    89     1     0     0
SMALL
NO_CHARGES


@<TRIPOS>ATOM
      1 C1         28.1440    2.6070   13.9550 C.3       1 SM91        0.0000 
      2 C2         28.7290    1.4580   13.1180 C.3       1 SM91        0.0000 
      3 C3         29.2960    0.4010   14.0890 C.3       1 SM91        0.0000 
      4 O4         27.7160    0.8850   12.3060 O.3       1 SM91        0.0000 
      5 N5         30.3940   -0.4390   13.5300 N.pl3     1 SM91        0.0000 
      6 C6         29.9610   -1.7740   13.0410 C.3       1 SM91        0.0000 
      7 C7         29.8030   -2.7930   14.1840 C.3       1 SM91        0.0000 
      8 C8         31.8910    1.5200   12.2860 C.ar      1 SM91        0.0000 
      9 C9         31.9800    2.8620   12.7530 C.ar      1 SM91        0.0000 
     10 C10        31.8310    3.9340   11.8430 C.ar      1 SM91        0.0000 
     11 C11        31.5720    3.6740   10.4790 C.ar      1 SM91        0.0000 
     12 C12        31.4810    2.3470   10.0100 C.ar      1 SM91        0.0000 
     13 C13        31.6350    1.2690   10.9090 C.ar      1 SM91        0.0000 
     14 C14        31.5140   -0.1360   10.3330 C.3       1 SM91        0.0000 
     15 C15        32.2380    3.2180   14.2130 C.3       1 SM91        0.0000 
     16 C16        27.5100    5.5110   11.4420 C.3       1 SM91        0.0000 
     17 C17        26.7490    6.4200   12.4430 C.3       1 SM91        0.0000 
     18 C18        25.8360    5.6190   13.3960 C.3       1 SM91        0.0000 
     19 C19        26.6680    4.5480   14.1260 C.3       1 SM91        0.0000 
     20 N20        27.3920    3.6380   13.1940 N.4       1 SM91        0.0000 
     21 C21        28.2150    4.3440   12.1660 C.3       1 SM91        0.0000 
     22 C22        28.5280    6.3550   10.6620 C.3       1 SM91        0.0000 
     23 C23        27.7820    6.8470    9.4080 C.3       1 SM91        0.0000 
     24 N24        26.5950    5.9900    9.2660 N.3       1 SM91        0.0000 
     25 C25        26.5820    4.9830   10.3430 C.3       1 SM91        0.0000 
     26 C26        25.5190    6.3000    8.4820 C.ar      1 SM91        0.0000 
     27 C27        24.4000    5.4620    8.2230 C.ar      1 SM91        0.0000 
     28 C28        23.3660    5.9490    7.3850 C.ar      1 SM91        0.0000 
     29 N29        23.4640    7.1790    6.8560 N.ar      1 SM91        0.0000 
     30 C30        24.5460    7.9220    7.1380 C.ar      1 SM91        0.0000 
     31 N31        25.5620    7.5260    7.9230 N.ar      1 SM91        0.0000 
     32 C32        24.2810    4.1620    8.7710 C.ar      1 SM91        0.0000 
     33 C33        23.1460    3.3610    8.4880 C.ar      1 SM91        0.0000 
     34 C34        22.1210    3.8530    7.6460 C.ar      1 SM91        0.0000 
     35 C35        22.2340    5.1500    7.0960 C.ar      1 SM91        0.0000 
     36 O36        29.9950   -4.0900   13.6540 O.3       1 SM91        0.0000 
     37 C37        29.7780   -6.4560   13.9040 C.3       1 SM91        0.0000 
     38 C38        29.7720   -5.0980   14.6270 C.3       1 SM91        0.0000 
     39 S39        32.0670    0.1130   13.4460 S.o2      1 SM91        0.0000 
     40 O40        32.4400    0.5790   14.7880 O.2       1 SM91        0.0000 
     41 O41        32.8890   -0.9520   12.8530 O.2       1 SM91        0.0000 
     42 H          28.9823    3.0846   14.5109 H         1 SM91        0.0000 
     43 H          27.4875    2.1599   14.7354 H         1 SM91        0.0000 
     44 H          29.5448    1.8485   12.5432 H         1 SM91        0.0000 
     45 H          28.4563   -0.2448   14.4168 H         1 SM91        0.0000 
     46 H          29.6499    0.9291   14.9976 H         1 SM91        0.0000 
     47 H          30.6930   -2.1731   12.3253 H         1 SM91        0.0000 
     48 H          28.9979   -1.6939   12.5181 H         1 SM91        0.0000 
     49 H          28.8054   -2.6584   14.6051 H         1 SM91        0.0000 
     50 H          30.5399   -2.5420   14.9487 H         1 SM91        0.0000 
     51 H          31.9109    4.8972   12.1730 H         1 SM91        0.0000 
     52 H          31.4497    4.4546    9.8273 H         1 SM91        0.0000 
     53 H          31.3039    2.1650    9.0209 H         1 SM91        0.0000 
     54 H          26.1409    7.1311   11.8798 H         1 SM91        0.0000 
     55 H          27.4775    6.9799   13.0332 H         1 SM91        0.0000 
     56 H          25.0582    5.1377   12.8217 H         1 SM91        0.0000 
     57 H          25.4028    6.2915   14.1216 H         1 SM91        0.0000 
     58 H          25.9898    3.9679   14.7709 H         1 SM91        0.0000 
     59 H          27.3841    5.0615   14.7862 H         1 SM91        0.0000 
     60 H          26.5828    3.0721   12.6251 H         1 SM91        0.0000 
     61 H          29.1397    4.7432   12.6343 H         1 SM91        0.0000 
     62 H          28.5543    3.6205   11.3946 H         1 SM91        0.0000 
     63 H          29.3511    5.7456   10.3701 H         1 SM91        0.0000 
     64 H          28.8262    7.1915   11.2497 H         1 SM91        0.0000 
     65 H          28.4381    6.7479    8.5607 H         1 SM91        0.0000 
     66 H          27.5044    7.8758    9.5587 H         1 SM91        0.0000 
     67 H          25.5931    4.8678   10.7524 H         1 SM91        0.0000 
     68 H          26.9632    4.0388    9.9938 H         1 SM91        0.0000 
     69 H          24.6042    8.9053    6.7045 H         1 SM91        0.0000 
     70 H          25.0206    3.7964    9.3771 H         1 SM91        0.0000 
     71 H          23.0693    2.4272    8.8933 H         1 SM91        0.0000 
     72 H          21.3089    3.2770    7.4384 H         1 SM91        0.0000 
     73 H          21.4973    5.5125    6.4882 H         1 SM91        0.0000 
     74 H          28.8073   -4.9930   15.1192 H         1 SM91        0.0000 
     75 H          30.5546   -5.1254   15.3825 H         1 SM91        0.0000 
     76 H          32.3510   -0.6662   10.4684 H         1 SM91        0.0000 
     77 H          30.7695   -0.6495   10.7597 H         1 SM91        0.0000 
     78 H          31.3330   -0.1199    9.3496 H         1 SM91        0.0000 
     79 H          33.1079    2.8467   14.5377 H         1 SM91        0.0000 
     80 H          32.2708    4.2075   14.3538 H         1 SM91        0.0000 
     81 H          31.5238    2.8599   14.8144 H         1 SM91        0.0000 
     82 H          30.6481   -6.6268   13.4417 H         1 SM91        0.0000 
     83 H          29.6290   -7.2149   14.5379 H         1 SM91        0.0000 
     84 H          29.0612   -6.5098   13.2087 H         1 SM91        0.0000 
     85 H          26.9962    1.5779   12.2628 H         1 SM91        0.0000 
@<TRIPOS>BOND
     1    2    1 1    
     2   20    1 1    
     3   42    1 1    
     4   43    1 1    
     5    3    2 1    
     6    4    2 1    
     7   44    2 1    
     8    5    3 1    
     9   45    3 1    
    10   46    3 1    
    11   85    4 1    
    12    6    5 1    
    13   39    5 1    
    14    7    6 1    
    15   47    6 1    
    16   48    6 1    
    17   36    7 1    
    18   49    7 1    
    19   50    7 1    
    20    9    8 ar   
    21   13    8 ar   
    22   39    8 1    
    23   10    9 ar   
    24   15    9 1    
    25   11   10 ar   
    26   51   10 1    
    27   12   11 ar   
    28   52   11 1    
    29   13   12 ar   
    30   53   12 1    
    31   14   13 1    
    32   76   14 1    
    33   77   14 1    
    34   78   14 1    
    35   79   15 1    
    36   80   15 1    
    37   81   15 1    
    38   17   16 1    
    39   21   16 1    
    40   22   16 1    
    41   25   16 1    
    42   18   17 1    
    43   54   17 1    
    44   55   17 1    
    45   19   18 1    
    46   56   18 1    
    47   57   18 1    
    48   20   19 1    
    49   58   19 1    
    50   59   19 1    
    51   21   20 1    
    52   60   20 1    
    53   61   21 1    
    54   62   21 1    
    55   23   22 1    
    56   63   22 1    
    57   64   22 1    
    58   24   23 1    
    59   65   23 1    
    60   66   23 1    
    61   25   24 1    
    62   26   24 1    
    63   67   25 1    
    64   68   25 1    
    65   27   26 ar   
    66   31   26 ar   
    67   28   27 ar   
    68   32   27 ar   
    69   29   28 ar   
    70   35   28 ar   
    71   30   29 ar   
    72   31   30 ar   
    73   69   30 1    
    74   33   32 ar   
    75   70   32 1    
    76   34   33 ar   
    77   71   33 1    
    78   35   34 ar   
    79   72   34 1    
    80   73   35 1    
    81   38   36 1    
    82   38   37 1    
    83   82   37 1    
    84   83   37 1    
    85   84   37 1    
    86   74   38 1    
    87   75   38 1    
    88   40   39 2    
    89   41   39 2    
@<TRIPOS>SUBSTRUCTURE
     1 SM91        1 GROUP   
@<TRIPOS>SET

