#    Name: 2r0u_M54_1_INTS_M
#    Modification time : Mon Mar 24 23:02:31 2014

@<TRIPOS>MOLECULE
2r0u_M54_1_INTS_M
   78     0    12     0     0
SMALL
NO_CHARGES


@<TRIPOS>ATOM
      1 CA         17.8415   -2.0545    7.6335 C.3       4 GLC5        0.0000 
      2 CA         18.6100   -1.3970    9.3630 C.3      12 GLL5        0.0000 
      3 CA         17.0730   -2.7120    5.9040 C.3       8 GLP5        0.0000 
      4 CA         16.6155   -2.0215    7.9220 C.3       4 GLC5        0.0000 
      5 CA         16.1580   -1.3310    9.9400 C.3      12 GLL5        0.0000 
      6 CA         12.5890    1.5185   10.7430 C.3       4 GLC5        0.0000 
      7 CA         13.4940   -0.0980    9.9540 C.3      12 GLL5        0.0000 
      8 CA         11.6840    3.1350   11.5320 C.3       8 GLP5        0.0000 
      9 CA         11.5500    0.4245    9.3650 C.3       4 GLC5        0.0000 
     10 CA          9.6060    0.9470    8.7760 C.3       8 GLP5        0.0000 
     11 O          14.0575    1.5525    8.7525 O.2       1 ALC1        0.0000 
     12 O          14.6310    0.5080    9.2790 O.2       9 ALL1        0.0000 
     13 O          13.4840    2.5970    8.2260 O.2       5 ALP1        0.0000 
     14 N          16.9205    1.9065    8.2120 N.am      2 SEC2        0.0000 
     15 N          16.7780    0.5950    8.5610 N.am     10 SEL2        0.0000 
     16 N          17.0630    3.2180    7.8630 N.am      6 SEP2        0.0000 
     17 O          22.8985    1.2670    7.5265 O.2       1 ALC1        0.0000 
     18 O          22.3530   -0.1360    7.6230 O.2       9 ALL1        0.0000 
     19 O          23.4440    2.6700    7.4300 O.2       5 ALP1        0.0000 
     20 CA         21.2110    1.6285    7.4200 C.3       4 GLC5        0.0000 
     21 CA         21.0880   -0.2820    8.0510 C.3      12 GLL5        0.0000 
     22 CA         21.3340    3.5390    6.7890 C.3       8 GLP5        0.0000 
     23 CA         17.3135   -6.7780   10.9480 C.3       4 GLC5        0.0000 
     24 CA         16.7050   -5.1990   12.1100 C.3      12 GLL5        0.0000 
     25 CA         17.9220   -8.3570    9.7860 C.3       8 GLP5        0.0000 
     26 CA         15.0320   -5.8010   10.9940 C.3       4 GLC5        0.0000 
     27 CA         13.3590   -6.4030    9.8780 C.3       8 GLP5        0.0000 
     28 CA         18.9070   -3.3230   14.6520 C.3       4 GLC5        0.0000 
     29 CA         16.9060   -4.1800   14.4100 C.3      12 GLL5        0.0000 
     30 CA         20.9080   -2.4660   14.8940 C.3       8 GLP5        0.0000 
     31 CA         17.5280   -2.1460   14.2815 C.3       4 GLC5        0.0000 
     32 CA         18.1500   -0.1120   14.1530 C.3       8 GLP5        0.0000 
     33 OD1        18.2345   -4.5770   15.3680 O.co2     3 ASC3        0.0000 
     34 OD1        16.3320   -4.4330   15.7530 O.co2    11 ASL3        0.0000 
     35 OD1        20.1370   -4.7210   14.9830 O.co2     7 ASP3        0.0000 
     36 O          17.2660   -3.5820   16.5130 O.2       1 ALC1        0.0000 
     37 O          16.3320   -4.4330   15.7530 O.2       9 ALL1        0.0000 
     38 O          18.2000   -2.7310   17.2730 O.2       5 ALP1        0.0000 
     39 CA          9.3110   -4.8250   11.8575 C.3       4 GLC5        0.0000 
     40 CA         10.0630   -3.3100   12.3420 C.3      12 GLL5        0.0000 
     41 CA          8.5590   -6.3400   11.3730 C.3       8 GLP5        0.0000 
     42 CA         10.8725   -2.4905   15.1805 C.3       4 GLC5        0.0000 
     43 CA         11.1930   -2.9280   13.1230 C.3      12 GLL5        0.0000 
     44 CA         10.5520   -2.0530   17.2380 C.3       8 GLP5        0.0000 
     45 CA         12.9190   -0.8215   14.0675 C.3       4 GLC5        0.0000 
     46 CA         12.4210   -2.2980   12.6300 C.3      12 GLL5        0.0000 
     47 CA         13.4170    0.6550   15.5050 C.3       8 GLP5        0.0000 
     48 CA         18.9273   -3.7572    8.4275 C.3       4 GLC5        0.0000 
     49 CA         19.8780   -2.0870    9.4050 C.3      12 GLL5        0.0000 
     50 CA         17.9220   -4.7850    7.0930 C.3       8 GLP5        0.0000 
     51 CA         17.8804   -3.7860    8.7389 C.3       4 GLC5        0.0000 
     52 CA         18.8590   -3.9520   10.8160 C.3      12 GLL5        0.0000 
     53 CA         16.4307   -0.5437   11.4080 C.3       4 GLC5        0.0000 
     54 CA         17.4550   -1.9640    9.9920 C.3      12 GLL5        0.0000 
     55 CA         16.0550    0.5600   12.8500 C.3       8 GLP5        0.0000 
     56 CA         14.9810   -4.1357    9.7535 C.3       4 GLC5        0.0000 
     57 CA         15.1960   -3.2330   11.3060 C.3      12 GLL5        0.0000 
     58 CA         14.1410   -4.7260    8.1630 C.3       8 GLP5        0.0000 
     59 CA         15.5738   -1.0180   11.9057 C.3       4 GLC5        0.0000 
     60 CA         14.8573   -3.1855    9.2208 C.3       4 GLC5        0.0000 
     61 CA         14.9890   -1.9590   10.6170 C.3      12 GLL5        0.0000 
     62 CA         14.5203   -1.2860    8.4038 C.3       4 GLC5        0.0000 
     63 CA         13.4670   -0.9270    6.5290 C.3       8 GLP5        0.0000 
     64 CA         13.5292   -0.8168    8.3942 C.3       4 GLC5        0.0000 
     65 CA         13.6890   -1.3150   10.5650 C.3      12 GLL5        0.0000 
     66 CA         14.8232   -0.0732   11.5548 C.3       4 GLC5        0.0000 
     67 CA         20.2715   -2.2032    7.0008 C.3       4 GLC5        0.0000 
     68 CA         21.0740   -1.5050    8.7300 C.3      12 GLL5        0.0000 
     69 CA         19.4620   -3.5130    5.6110 C.3       8 GLP5        0.0000 
     70 CA         21.5510   -0.1735    9.9521 C.3       4 GLC5        0.0000 
     71 CA         22.3200    0.6920   11.3450 C.3       8 GLP5        0.0000 
     72 CA         13.1715   -3.3669    9.3999 C.3       4 GLC5        0.0000 
     73 CA          9.8768   -4.1550    9.8150 C.3       4 GLC5        0.0000 
     74 CA         11.3210   -2.3750   10.3750 C.3      12 GLL5        0.0000 
     75 CA          9.0380   -5.6200    8.9770 C.3       8 GLP5        0.0000 
     76 CA          9.3616   -2.0590   10.4678 C.3       4 GLC5        0.0000 
     77 CA         10.1100   -3.0050   10.9310 C.3      12 GLL5        0.0000 
     78 CA          8.3340   -1.1180    9.4380 C.3       8 GLP5        0.0000 
@<TRIPOS>BOND
@<TRIPOS>SUBSTRUCTURE
     1 ALC1       11 GROUP        1 X    ALC  0     ROOT ALC X 1
     2 SEC2       14 GROUP        1 X    SEC  0     **** SEC X 2
     3 ASC3       33 GROUP        1 X    ASC  0     **** ASC X 3
     4 GLC5        1 GROUP        1 X    GLC  0     **** GLC X 6
     5 ALP1       13 GROUP        1 Y    ALP  0     ROOT ALP Y 8
     6 SEP2       16 GROUP        1 Y    SEP  0     **** SEP Y 9
     7 ASP3       35 GROUP        1 Y    ASP  0     **** ASP Y 10
     8 GLP5        3 GROUP        1 Y    GLP  0     **** GLP Y 13
     9 ALL1       12 GROUP        1 Z    ALL  0     ROOT ALL Z 15
    10 SEL2       15 GROUP        1 Z    SEL  0     **** SEL Z 16
    11 ASL3       34 GROUP        1 Z    ASL  0     **** ASL Z 17
    12 GLL5        2 GROUP        1 Z    GLL  0     **** GLL Z 20
@<TRIPOS>SET

