#    Name: 2r0u_M54_1_ligand
#    Modification time : Mon Mar 24 23:02:31 2014

@<TRIPOS>MOLECULE
2r0u_M54_1_ligand
   54    58     1     0     0
SMALL
NO_CHARGES


@<TRIPOS>ATOM
      1 C          19.8780   -2.0870    9.4050 C.ar      1 M54324      0.0000 
      2 C1         19.9870   -3.3720   10.1190 C.ar      1 M54324      0.0000 
      3 C2         18.8590   -3.9520   10.8160 C.ar      1 M54324      0.0000 
      4 C3         18.6100   -1.3970    9.3630 C.ar      1 M54324      0.0000 
      5 C4         17.4550   -1.9640    9.9920 C.ar      1 M54324      0.0000 
      6 C5         17.5860   -3.2680   10.7390 C.ar      1 M54324      0.0000 
      7 C6         16.4460   -3.8580   11.3820 C.ar      1 M54324      0.0000 
      8 C7         15.1960   -3.2330   11.3060 C.ar      1 M54324      0.0000 
      9 C8         16.1580   -1.3310    9.9400 C.ar      1 M54324      0.0000 
     10 C9         14.9890   -1.9590   10.6170 C.ar      1 M54324      0.0000 
     11 C10        13.6890   -1.3150   10.5650 C.2       1 M54324      0.0000 
     12 C11        13.4940   -0.0980    9.9540 C.2       1 M54324      0.0000 
     13 N          14.6310    0.5080    9.2790 N.am      1 M54324      0.0000 
     14 C12        15.8860   -0.0490    9.2160 C.2       1 M54324      0.0000 
     15 O          16.7780    0.5950    8.5610 O.2       1 M54324      0.0000 
     16 C13        21.0740   -1.5050    8.7300 C.2       1 M54324      0.0000 
     17 C14        22.3460   -2.1160    8.6840 C.2       1 M54324      0.0000 
     18 N15        23.1200   -1.2290    7.9730 N.2       1 M54324      0.0000 
     19 N16        22.3530   -0.1360    7.6230 N.pl3     1 M54324      0.0000 
     20 C17        21.0880   -0.2820    8.0510 C.2       1 M54324      0.0000 
     21 C18        16.7050   -5.1990   12.1100 C.3       1 M54324      0.0000 
     22 C19        16.3020   -5.1920   13.5420 C.3       1 M54324      0.0000 
     23 C20        16.9060   -4.1800   14.4100 C.3       1 M54324      0.0000 
     24 N21        16.3320   -4.4330   15.7530 N.4       1 M54324      0.0000 
     25 C22        12.4770   -1.9660   11.2320 C.ar      1 M54324      0.0000 
     26 C23        11.3210   -2.3750   10.3750 C.ar      1 M54324      0.0000 
     27 C24        10.0630   -3.3100   12.3420 C.ar      1 M54324      0.0000 
     28 C25        11.1930   -2.9280   13.1230 C.ar      1 M54324      0.0000 
     29 C26        10.1100   -3.0050   10.9310 C.ar      1 M54324      0.0000 
     30 C27        12.4210   -2.2980   12.6300 C.ar      1 M54324      0.0000 
     31 O28        11.1560   -3.1890   14.2910 O.3       1 M54324      0.0000 
     32 H          20.8825   -3.8546   10.1151 H         1 M54324      0.0000 
     33 H          18.9560   -4.7969   11.3333 H         1 M54324      0.0000 
     34 H          18.5423   -0.5047    8.8833 H         1 M54324      0.0000 
     35 H          14.3675   -3.6690   11.7470 H         1 M54324      0.0000 
     36 H          12.6134    0.3843    9.9532 H         1 M54324      0.0000 
     37 H          14.4477    1.4365    8.8169 H         1 M54324      0.0000 
     38 H          22.5812   -2.9261    9.0538 H         1 M54324      0.0000 
     39 H          22.7026    0.6313    7.1297 H         1 M54324      0.0000 
     40 H          20.3543    0.2878    7.9379 H         1 M54324      0.0000 
     41 H          17.7804   -5.4314   12.0179 H         1 M54324      0.0000 
     42 H          16.1610   -5.9901   11.5648 H         1 M54324      0.0000 
     43 H          16.5014   -6.2176   13.9716 H         1 M54324      0.0000 
     44 H          15.1770   -5.1028   13.5934 H         1 M54324      0.0000 
     45 H          16.6417   -3.1890   14.0792 H         1 M54324      0.0000 
     46 H          17.9769   -4.2964   14.4413 H         1 M54324      0.0000 
     47 H          11.3816   -2.2088    9.3757 H         1 M54324      0.0000 
     48 H           9.2771   -3.7643   12.7406 H         1 M54324      0.0000 
     49 H           9.3403   -3.2127   10.3299 H         1 M54324      0.0000 
     50 H          13.1733   -2.1140   13.2442 H         1 M54324      0.0000 
     51 H          16.6837   -3.7909   16.4341 H         1 M54324      0.0000 
     52 H          15.3359   -4.3449   15.7538 H         1 M54324      0.0000 
     53 H          16.5450   -5.3535   16.0805 H         1 M54324      0.0000 
     54 H          11.3398   -4.1706   14.3427 H         1 M54324      0.0000 
@<TRIPOS>BOND
     1    2    1 ar   
     2    4    1 ar   
     3   16    1 1    
     4    3    2 ar   
     5   32    2 1    
     6    6    3 ar   
     7   33    3 1    
     8    5    4 ar   
     9   34    4 1    
    10    6    5 ar   
    11    9    5 ar   
    12    7    6 ar   
    13    8    7 ar   
    14   21    7 1    
    15   10    8 ar   
    16   35    8 1    
    17   10    9 ar   
    18   14    9 1    
    19   11   10 1    
    20   12   11 2    
    21   25   11 1    
    22   13   12 1    
    23   36   12 1    
    24   14   13 am   
    25   37   13 1    
    26   15   14 2    
    27   17   16 1    
    28   20   16 2    
    29   18   17 2    
    30   38   17 1    
    31   19   18 1    
    32   20   19 1    
    33   39   19 1    
    34   40   20 1    
    35   22   21 1    
    36   41   21 1    
    37   42   21 1    
    38   23   22 1    
    39   43   22 1    
    40   44   22 1    
    41   24   23 1    
    42   45   23 1    
    43   46   23 1    
    44   51   24 1    
    45   52   24 1    
    46   53   24 1    
    47   26   25 ar   
    48   30   25 ar   
    49   29   26 ar   
    50   47   26 1    
    51   28   27 ar   
    52   29   27 ar   
    53   48   27 1    
    54   30   28 ar   
    55   31   28 1    
    56   49   29 1    
    57   50   30 1    
    58   54   31 1    
@<TRIPOS>SUBSTRUCTURE
     1 M54324      1 GROUP   
@<TRIPOS>SET

