#    Name: 1AV6_1_CAVITY_N1_6.mol2
#    Modification time : Mon Mar 10 13:50:51 2014

@<TRIPOS>MOLECULE
1AV6_1_CAVITY_N1_6.mol2
   61     0     7     0     0
SMALL
NO_CHARGES


@<TRIPOS>ATOM
      1 N          20.5823   59.8949   90.9309 N.2       2 ALA2        0.0000 
      2 DU         17.6482   59.5396   90.4165 H         7 CUB7        0.0000 
      3 N          17.5378   58.6793   91.6403 N.2       2 ALA2        0.0000 
      4 CZ         16.1811   59.3620   90.1593 C.ar      5 PHE5        0.0000 
      5 CZ         16.0708   58.5016   91.3831 C.ar      5 PHE5        0.0000 
      6 CZ         14.7140   59.1843   89.9021 C.ar      5 PHE5        0.0000 
      7 CA         20.8748   58.6790   90.1025 C.3       6 GLY6        0.0000 
      8 OG         19.5181   59.3617   88.6215 O.2       1 SER1        0.0000 
      9 CA         19.4077   58.5014   89.8453 C.3       6 GLY6        0.0000 
     10 CA         19.2973   57.6411   91.0691 C.3       6 GLY6        0.0000 
     11 OG         18.0510   59.1841   88.3643 O.2       1 SER1        0.0000 
     12 DU         17.9406   58.3238   89.5881 H         7 CUB7        0.0000 
     13 N          17.8303   57.4634   90.8119 N.2       2 ALA2        0.0000 
     14 OD1        17.7199   56.6031   92.0357 O.3       3 ASP3        0.0000 
     15 OG         16.5839   59.0064   88.1072 O.2       1 SER1        0.0000 
     16 DU         16.4735   58.1461   89.3310 H         7 CUB7        0.0000 
     17 CZ         16.3632   57.2858   90.5548 C.ar      5 PHE5        0.0000 
     18 OD1        16.2528   56.4255   91.7786 O.3       3 ASP3        0.0000 
     19 N          15.1168   58.8288   87.8500 N.2       2 ALA2        0.0000 
     20 CZ         15.0065   57.9685   89.0738 C.ar      5 PHE5        0.0000 
     21 CZ         14.8961   57.1081   90.2976 C.ar      5 PHE5        0.0000 
     22 CZ         14.7858   56.2478   91.5214 C.ar      5 PHE5        0.0000 
     23 N          14.6754   55.3875   92.7452 N.2       2 ALA2        0.0000 
     24 CZ         13.5394   57.7908   88.8166 C.ar      5 PHE5        0.0000 
     25 CZ         13.4290   56.9305   90.0404 C.ar      5 PHE5        0.0000 
     26 NZ         13.3187   56.0702   91.2642 N.2       4 LYS4        0.0000 
     27 CZ         12.0723   57.6132   88.5594 C.ar      5 PHE5        0.0000 
     28 NZ         10.6053   57.4355   88.3022 N.2       4 LYS4        0.0000 
     29 CA         19.7001   57.2855   89.0170 C.3       6 GLY6        0.0000 
     30 CA         18.2331   57.1079   88.7598 C.3       6 GLY6        0.0000 
     31 CA         18.1227   56.2476   89.9836 C.3       6 GLY6        0.0000 
     32 O          16.8763   57.7906   87.2788 O.2       2 ALA2        0.0000 
     33 CA         16.7660   56.9303   88.5026 C.3       6 GLY6        0.0000 
     34 CA         16.6556   56.0699   89.7264 C.3       6 GLY6        0.0000 
     35 CA         16.5453   55.2096   90.9502 C.3       6 GLY6        0.0000 
     36 N          15.4093   57.6129   87.0216 N.2       2 ALA2        0.0000 
     37 CA         15.2989   56.7526   88.2454 C.3       6 GLY6        0.0000 
     38 CA         15.1886   55.8923   89.4692 C.3       6 GLY6        0.0000 
     39 CA         15.0782   55.0320   90.6930 C.3       6 GLY6        0.0000 
     40 N          13.8318   56.5750   87.9882 N.2       2 ALA2        0.0000 
     41 NZ         13.7215   55.7147   89.2120 N.2       4 LYS4        0.0000 
     42 NZ         13.6111   54.8543   90.4358 N.2       4 LYS4        0.0000 
     43 N          12.4751   57.2576   86.5073 N.2       2 ALA2        0.0000 
     44 NZ         12.3648   56.3973   87.7311 N.2       4 LYS4        0.0000 
     45 NZ         12.2544   55.5370   88.9549 N.2       4 LYS4        0.0000 
     46 N          11.0081   57.0800   86.2501 N.2       2 ALA2        0.0000 
     47 NZ         10.8977   56.2197   87.4739 N.2       4 LYS4        0.0000 
     48 N           9.4306   56.0420   87.2167 N.2       2 ALA2        0.0000 
     49 OD1        14.1243   55.3591   87.1599 O.3       3 ASP3        0.0000 
     50 CA         14.0139   54.4988   88.3837 C.3       6 GLY6        0.0000 
     51 N          12.7676   56.0418   85.6789 N.2       2 ALA2        0.0000 
     52 N          12.6572   55.1815   86.9027 N.2       2 ALA2        0.0000 
     53 NZ         12.5468   54.3212   88.1265 N.2       4 LYS4        0.0000 
     54 N          11.3005   55.8641   85.4217 N.2       2 ALA2        0.0000 
     55 NZ         11.1901   55.0038   86.6455 N.2       4 LYS4        0.0000 
     56 N           9.7231   54.8262   86.3883 N.2       2 ALA2        0.0000 
     57 N          11.5929   54.6483   84.5934 N.2       2 ALA2        0.0000 
     58 N          11.4826   53.7880   85.8172 N.2       2 ALA2        0.0000 
     59 N          11.3722   52.9277   87.0410 N.2       2 ALA2        0.0000 
     60 N          10.0155   53.6103   85.5600 N.2       2 ALA2        0.0000 
     61 N          11.7750   52.5721   84.9888 N.2       2 ALA2        0.0000 
@<TRIPOS>BOND
@<TRIPOS>SUBSTRUCTURE
     1 SER1        8 GROUP   
     2 ALA2        1 GROUP   
     3 ASP3       14 GROUP   
     4 LYS4       26 GROUP   
     5 PHE5        4 GROUP   
     6 GLY6        7 GROUP   
     7 CUB7        2 GROUP   
@<TRIPOS>SET

