#    Name: 1av6_SAH_1_INTS_M
#    Modification time : Mon Mar 24 18:53:06 2014

@<TRIPOS>MOLECULE
1av6_SAH_1_INTS_M
   73     0    12     0     0
SMALL
NO_CHARGES


@<TRIPOS>ATOM
      1 OD1        11.5015   49.1530   85.3105 O.co2     3 ASC3        0.0000 
      2 OD1        10.5940   49.2810   86.3200 O.co2    11 ASL3        0.0000 
      3 OD1        12.4090   49.0250   84.3010 O.co2     7 ASP3        0.0000 
      4 O          11.1095   47.7705   86.3595 O.2       1 ALC1        0.0000 
      5 O          10.5940   49.2810   86.3200 O.2       9 ALL1        0.0000 
      6 O          11.6250   46.2600   86.3990 O.2       5 ALP1        0.0000 
      7 O          11.5575   49.9105   87.2290 O.2       1 ALC1        0.0000 
      8 O          12.5210   50.5400   88.1380 O.2       5 ALP1        0.0000 
      9 O          11.5015   49.1530   85.3105 O.2       1 ALC1        0.0000 
     10 O          12.4090   49.0250   84.3010 O.2       5 ALP1        0.0000 
     11 CA          9.3145   48.6725   84.5970 C.3       4 GLC5        0.0000 
     12 CA          9.3600   50.0500   86.2650 C.3      12 GLL5        0.0000 
     13 CA          9.2690   47.2950   82.9290 C.3       8 GLP5        0.0000 
     14 CA         10.0945   49.8095   88.2260 C.3       4 GLC5        0.0000 
     15 CA         10.8290   49.5690   90.1870 C.3       8 GLP5        0.0000 
     16 CA          8.4980   50.8660   88.0785 C.3       4 GLC5        0.0000 
     17 CA          7.6360   51.6820   89.8920 C.3       8 GLP5        0.0000 
     18 CA         12.5025   50.8720   85.5880 C.3       4 GLC5        0.0000 
     19 CA         10.6760   52.1240   85.5680 C.3      12 GLL5        0.0000 
     20 CA         14.3290   49.6200   85.6080 C.3       8 GLP5        0.0000 
     21 N           6.0330   49.1645   85.0170 N.am      2 SEC2        0.0000 
     22 N           7.0580   49.6990   85.7830 N.am     10 SEL2        0.0000 
     23 N           5.0080   48.6300   84.2510 N.am      6 SEP2        0.0000 
     24 N           6.4570   49.2815   87.1670 N.am      2 SEC2        0.0000 
     25 N           5.8560   48.8640   88.5510 N.am      6 SEP2        0.0000 
     26 CA         14.3405   54.1845   85.8910 C.3       4 GLC5        0.0000 
     27 CA         12.2250   54.4470   85.3970 C.3      12 GLL5        0.0000 
     28 CA         16.4560   53.9220   86.3850 C.3       8 GLP5        0.0000 
     29 CA         13.6270   55.3185   84.0475 C.3       4 GLC5        0.0000 
     30 CA         15.0290   56.1900   82.6980 C.3       8 GLP5        0.0000 
     31 CA         12.8400   53.3015   88.2750 C.3       4 GLC5        0.0000 
     32 CA         11.9790   54.6170   86.8670 C.3      12 GLL5        0.0000 
     33 CA         13.7010   51.9860   89.6830 C.3       8 GLP5        0.0000 
     34 O          10.3665   54.4250   88.9885 O.2       1 ALC1        0.0000 
     35 O           9.8130   55.3220   87.8390 O.2       9 ALL1        0.0000 
     36 O          10.9200   53.5280   90.1380 O.2       5 ALP1        0.0000 
     37 CA         12.1215   57.7990   89.9115 C.3       4 GLC5        0.0000 
     38 CA         11.8980   56.6540   88.0890 C.3      12 GLL5        0.0000 
     39 CA         12.3450   58.9440   91.7340 C.3       8 GLP5        0.0000 
     40 O          11.0065   56.3050   90.2325 O.2       1 ALC1        0.0000 
     41 O          11.1250   57.2050   89.2000 O.2       9 ALL1        0.0000 
     42 O          10.8880   55.4050   91.2650 O.2       5 ALP1        0.0000 
     43 CA         13.3260   53.8480   89.1505 C.3       4 GLC5        0.0000 
     44 CA         12.9510   55.7100   88.6180 C.3      12 GLL5        0.0000 
     45 CA         16.0670   57.3310   93.0475 C.3       4 GLC5        0.0000 
     46 CA         16.8610   56.7700   91.2600 C.3      12 GLL5        0.0000 
     47 CA         15.2730   57.8920   94.8350 C.3       8 GLP5        0.0000 
     48 CA         17.6860   56.3635   93.1980 C.3       4 GLC5        0.0000 
     49 CA         18.5110   55.9570   95.1360 C.3       8 GLP5        0.0000 
     50 CA         17.2235   55.0620   89.9190 C.3       4 GLC5        0.0000 
     51 CA         17.5860   53.3540   88.5780 C.3       8 GLP5        0.0000 
     52 CA         19.0590   56.3715   90.9970 C.3       4 GLC5        0.0000 
     53 CA         21.2570   55.9730   90.7340 C.3       8 GLP5        0.0000 
     54 O          18.8425   57.5670   92.6495 O.2       1 ALC1        0.0000 
     55 O          17.9750   57.5150   91.4420 O.2       9 ALL1        0.0000 
     56 O          19.7100   57.6190   93.8570 O.2       5 ALP1        0.0000 
     57 N          16.8735   56.1200   93.4295 N.am      2 SEC2        0.0000 
     58 N          16.5370   55.7720   92.1100 N.am     10 SEL2        0.0000 
     59 N          17.2100   56.4680   94.7490 N.am      6 SEP2        0.0000 
     60 CA         16.4410   53.4555   92.0120 C.3       4 GLC5        0.0000 
     61 CA         15.4890   54.9920   91.9500 C.3      12 GLL5        0.0000 
     62 CA         17.3930   51.9190   92.0740 C.3       8 GLP5        0.0000 
     63 CA         14.5950   53.4890   90.8165 C.3       4 GLC5        0.0000 
     64 CA         13.6460   54.4975   92.7845 C.3       4 GLC5        0.0000 
     65 CA         11.8030   54.0030   93.6190 C.3       8 GLP5        0.0000 
     66 CA         15.3810   56.4420   93.3925 C.3       4 GLC5        0.0000 
     67 CA         17.0910   54.7510   93.2655 C.3       4 GLC5        0.0000 
     68 CA         18.6930   54.5100   94.5810 C.3       8 GLP5        0.0000 
     69 CA         16.5375   54.1730   90.2640 C.3       4 GLC5        0.0000 
     70 CA         14.3155   54.0160   89.9115 C.3       4 GLC5        0.0000 
     71 CA         14.9300   56.0460   90.1400 C.3      12 GLL5        0.0000 
     72 CA         16.4793   55.4305   88.8110 C.3       4 GLC5        0.0000 
     73 CA         17.5010   54.3790   87.4580 C.3       8 GLP5        0.0000 
@<TRIPOS>BOND
@<TRIPOS>SUBSTRUCTURE
     1 ALC1        4 GROUP        1 X    ALC  0     ROOT ALC X 1
     2 SEC2       21 GROUP        1 X    SEC  0     **** SEC X 2
     3 ASC3        1 GROUP        1 X    ASC  0     **** ASC X 3
     4 GLC5       11 GROUP        1 X    GLC  0     **** GLC X 6
     5 ALP1        6 GROUP        1 Y    ALP  0     ROOT ALP Y 8
     6 SEP2       23 GROUP        1 Y    SEP  0     **** SEP Y 9
     7 ASP3        3 GROUP        1 Y    ASP  0     **** ASP Y 10
     8 GLP5       13 GROUP        1 Y    GLP  0     **** GLP Y 13
     9 ALL1        5 GROUP        1 Z    ALL  0     ROOT ALL Z 15
    10 SEL2       22 GROUP        1 Z    SEL  0     **** SEL Z 16
    11 ASL3        2 GROUP        1 Z    ASL  0     **** ASL Z 17
    12 GLL5       12 GROUP        1 Z    GLL  0     **** GLL Z 20
@<TRIPOS>SET

