#    Name: 1av6_SAH_1_ligand
#    Modification time : Mon Mar 24 18:53:06 2014

@<TRIPOS>MOLECULE
1av6_SAH_1_ligand
   46    48     1     0     0
SMALL
NO_CHARGES


@<TRIPOS>ATOM
      1 N          10.5940   49.2810   86.3200 N.4       1 SAH400      0.0000 
      2 CA          9.3600   50.0500   86.2650 C.3       1 SAH400      0.0000 
      3 CB          9.4920   51.2030   85.2580 C.3       1 SAH400      0.0000 
      4 CG         10.6760   52.1240   85.5680 C.3       1 SAH400      0.0000 
      5 SD         10.8560   53.6280   84.5720 S.3       1 SAH400      0.0000 
      6 C           8.1740   49.1520   85.9080 C.2       1 SAH400      0.0000 
      7 O           8.2820   47.9420   86.2240 O.co2     1 SAH400      0.0000 
      8 OXT         7.0580   49.6990   85.7830 O.co2     1 SAH400      0.0000 
      9 C5'        12.2250   54.4470   85.3970 C.3       1 SAH400      0.0000 
     10 C4'        11.9790   54.6170   86.8670 C.3       1 SAH400      0.0000 
     11 O4'        13.2290   54.8590   87.5280 O.3       1 SAH400      0.0000 
     12 C3'        11.0440   55.7740   87.1710 C.3       1 SAH400      0.0000 
     13 O3'         9.8130   55.3220   87.8390 O.3       1 SAH400      0.0000 
     14 C2'        11.8980   56.6540   88.0890 C.3       1 SAH400      0.0000 
     15 O2'        11.1250   57.2050   89.2000 O.3       1 SAH400      0.0000 
     16 C1'        12.9510   55.7100   88.6180 C.3       1 SAH400      0.0000 
     17 N9         14.2160   56.3890   89.0240 N.pl3     1 SAH400      0.0000 
     18 C8         14.8950   57.4460   88.4550 C.2       1 SAH400      0.0000 
     19 N7         15.9590   57.7960   89.1140 N.2       1 SAH400      0.0000 
     20 C5         15.9850   56.9180   90.1880 C.ar      1 SAH400      0.0000 
     21 C6         16.8610   56.7700   91.2600 C.ar      1 SAH400      0.0000 
     22 N6         17.9750   57.5150   91.4420 N.pl3     1 SAH400      0.0000 
     23 N1         16.5370   55.7720   92.1100 N.ar      1 SAH400      0.0000 
     24 C2         15.4890   54.9920   91.9500 C.ar      1 SAH400      0.0000 
     25 N3         14.6150   55.0390   90.9990 N.ar      1 SAH400      0.0000 
     26 C4         14.9300   56.0460   90.1400 C.ar      1 SAH400      0.0000 
     27 H           9.1560   50.4941   87.2424 H         1 SAH400      0.0000 
     28 H           8.5680   51.7909   85.2679 H         1 SAH400      0.0000 
     29 H           9.6162   50.7849   84.2534 H         1 SAH400      0.0000 
     30 H          11.6452   51.6351   85.4231 H         1 SAH400      0.0000 
     31 H          10.6483   52.5250   86.5867 H         1 SAH400      0.0000 
     32 H          12.2977   55.3740   84.8565 H         1 SAH400      0.0000 
     33 H          13.0529   53.8010   85.1648 H         1 SAH400      0.0000 
     34 H          11.5280   53.7083   87.2546 H         1 SAH400      0.0000 
     35 H          10.8601   56.3068   86.2765 H         1 SAH400      0.0000 
     36 H          12.3691   57.3988   87.5051 H         1 SAH400      0.0000 
     37 H          12.5412   55.1571   89.4338 H         1 SAH400      0.0000 
     38 H          14.5645   57.8762   87.6107 H         1 SAH400      0.0000 
     39 H          18.2537   57.6653   92.3905 H         1 SAH400      0.0000 
     40 H          18.4212   57.8495   90.6119 H         1 SAH400      0.0000 
     41 H          15.3483   54.2113   92.7208 H         1 SAH400      0.0000 
     42 H          11.2251   49.6403   87.0074 H         1 SAH400      0.0000 
     43 H          10.4245   48.3226   86.5501 H         1 SAH400      0.0000 
     44 H          11.0773   49.2912   85.4446 H         1 SAH400      0.0000 
     45 H          10.1247   54.7343   88.5856 H         1 SAH400      0.0000 
     46 H          11.0700   56.4641   89.8694 H         1 SAH400      0.0000 
@<TRIPOS>BOND
     1    2    1 1    
     2   42    1 1    
     3   43    1 1    
     4   44    1 1    
     5    3    2 1    
     6    6    2 1    
     7   27    2 1    
     8    4    3 1    
     9   28    3 1    
    10   29    3 1    
    11    5    4 1    
    12   30    4 1    
    13   31    4 1    
    14    9    5 1    
    15    7    6 ar   
    16    8    6 ar   
    17   10    9 1    
    18   32    9 1    
    19   33    9 1    
    20   11   10 1    
    21   12   10 1    
    22   34   10 1    
    23   16   11 1    
    24   13   12 1    
    25   14   12 1    
    26   35   12 1    
    27   45   13 1    
    28   15   14 1    
    29   16   14 1    
    30   36   14 1    
    31   46   15 1    
    32   17   16 1    
    33   37   16 1    
    34   18   17 1    
    35   26   17 1    
    36   19   18 2    
    37   38   18 1    
    38   20   19 1    
    39   21   20 ar   
    40   26   20 ar   
    41   22   21 1    
    42   23   21 ar   
    43   39   22 1    
    44   40   22 1    
    45   24   23 ar   
    46   25   24 ar   
    47   41   24 1    
    48   26   25 ar   
@<TRIPOS>SUBSTRUCTURE
     1 SAH400      1 GROUP   
@<TRIPOS>SET

