#    Name: 4isu_IKM_1_INTS_M
#    Modification time : Tue Mar 25 04:33:15 2014

@<TRIPOS>MOLECULE
4isu_IKM_1_INTS_M
   43     0    15     0     0
SMALL
NO_CHARGES


@<TRIPOS>ATOM
      1 O          -5.6970   33.1725    3.5025 O.2       1 ALC1        0.0000 
      2 O          -6.4090   32.0160    2.7870 O.2      11 ALL1        0.0000 
      3 O          -4.9850   34.3290    4.2180 O.2       6 ALP1        0.0000 
      4 CA         -5.1480   30.9145    4.6935 C.3       5 GLC5        0.0000 
      5 CA         -6.4930   30.7110    3.4370 C.3      15 GLL5        0.0000 
      6 CA         -3.8030   31.1180    5.9500 C.3      10 GLP5        0.0000 
      7 CA         -5.0025   29.5075    3.2095 C.3       5 GLC5        0.0000 
      8 CA         -7.0540   29.7510    2.3460 C.3      15 GLL5        0.0000 
      9 CA         -2.9510   29.2640    4.0730 C.3      10 GLP5        0.0000 
     10 N          -6.4675   34.1885    0.4930 N.am      2 SEC2        0.0000 
     11 N          -6.8040   33.0140    0.7470 N.am     12 SEL2        0.0000 
     12 N          -6.1310   35.3630    0.2390 N.am      7 SEP2        0.0000 
     13 NZ         -7.7455   29.6425    6.7585 N.4       4 LYC4        0.0000 
     14 NZ         -7.1930   29.8330    5.5660 N.4      14 LYL4        0.0000 
     15 NZ         -8.9870   30.4960    8.3900 N.4       9 LYP4        0.0000 
     16 N          -8.2065   30.6785    6.5705 N.am      2 SEC2        0.0000 
     17 N          -7.1930   29.8330    5.5660 N.am     12 SEL2        0.0000 
     18 N          -9.2200   31.5240    7.5750 N.am      7 SEP2        0.0000 
     19 N          -7.7455   29.6425    6.7585 N.am      2 SEC2        0.0000 
     20 N          -8.2980   29.4520    7.9510 N.am      7 SEP2        0.0000 
     21 N         -11.0030   26.8500    1.5200 N.am      2 SEC2        0.0000 
     22 N          -9.9240   27.3780    2.1150 N.am     12 SEL2        0.0000 
     23 N         -12.0820   26.3220    0.9250 N.am      7 SEP2        0.0000 
     24 NZ         -8.2065   30.6785    6.5705 N.4       4 LYC4        0.0000 
     25 NZ         -8.1200   31.7590    4.8290 N.4      14 LYL4        0.0000 
     26 N          -8.2395   33.1615    5.3530 N.am      2 SEC2        0.0000 
     27 N          -8.1200   31.7590    4.8290 N.am     12 SEL2        0.0000 
     28 N          -8.3590   34.5640    5.8770 N.am      7 SEP2        0.0000 
     29 N          -8.8150   32.7370    4.1450 N.am      2 SEC2        0.0000 
     30 N          -9.5100   33.7150    3.4610 N.am      7 SEP2        0.0000 
     31 N          -8.6700   31.6415    6.2020 N.am      2 SEC2        0.0000 
     32 OD1        -6.7925   30.1665   -2.0605 O.co2     3 ASC3        0.0000 
     33 OD1        -6.7380   29.1500   -0.8590 O.co2    13 ASL3        0.0000 
     34 OD1        -6.8470   31.1830   -3.2620 O.co2     8 ASP3        0.0000 
     35 OD1        -7.7000   30.1330   -1.4340 O.co2     3 ASC3        0.0000 
     36 OD1        -8.6620   31.1160   -2.0090 O.co2     8 ASP3        0.0000 
     37 CA         -3.8590   29.0530    2.4105 C.3       5 GLC5        0.0000 
     38 CA         -4.3560   28.3070    0.4200 C.3      15 GLL5        0.0000 
     39 CA         -5.3664   26.6500   -1.0914 C.3       5 GLC5        0.0000 
     40 CA         -5.9590   25.0830   -1.7730 C.3      10 GLP5        0.0000 
     41 CA         -7.2210   31.8075   -0.9620 C.3       5 GLC5        0.0000 
     42 CA         -6.1420   30.1090    0.1190 C.3      15 GLL5        0.0000 
     43 CA         -7.7660   33.2490   -2.5210 C.3      10 GLP5        0.0000 
@<TRIPOS>BOND
@<TRIPOS>SUBSTRUCTURE
     1 ALC1        1 GROUP        1 X    ALC  0     ROOT ALC X 1
     2 SEC2       10 GROUP        1 X    SEC  0     **** SEC X 2
     3 ASC3       32 GROUP        1 X    ASC  0     **** ASC X 3
     4 LYC4       13 GROUP        1 X    LYC  0     **** LYC X 4
     5 GLC5        4 GROUP        1 X    GLC  0     **** GLC X 6
     6 ALP1        3 GROUP        1 Y    ALP  0     ROOT ALP Y 8
     7 SEP2       12 GROUP        1 Y    SEP  0     **** SEP Y 9
     8 ASP3       34 GROUP        1 Y    ASP  0     **** ASP Y 10
     9 LYP4       15 GROUP        1 Y    LYP  0     **** LYP Y 11
    10 GLP5        6 GROUP        1 Y    GLP  0     **** GLP Y 13
    11 ALL1        2 GROUP        1 Z    ALL  0     ROOT ALL Z 15
    12 SEL2       11 GROUP        1 Z    SEL  0     **** SEL Z 16
    13 ASL3       33 GROUP        1 Z    ASL  0     **** ASL Z 17
    14 LYL4       14 GROUP        1 Z    LYL  0     **** LYL Z 18
    15 GLL5        5 GROUP        1 Z    GLL  0     **** GLL Z 20
@<TRIPOS>SET

