#    Name: 4isu_IKM_1_ligand
#    Modification time : Tue Mar 25 04:33:15 2014

@<TRIPOS>MOLECULE
4isu_IKM_1_ligand
   31    33     1     0     0
SMALL
NO_CHARGES


@<TRIPOS>ATOM
      1 C1         -5.7600   28.3840   -1.6550 C.3       1 IKM301      0.0000 
      2 C2         -4.3560   28.3070    0.4200 C.2       1 IKM301      0.0000 
      3 C3         -4.6230   27.8700   -0.8240 C.2       1 IKM301      0.0000 
      4 C4         -6.1420   30.1090    0.1190 C.3       1 IKM301      0.0000 
      5 C5         -5.1780   29.3770    1.0760 C.3       1 IKM301      0.0000 
      6 O1         -6.0170   28.7780    2.0730 O.3       1 IKM301      0.0000 
      7 N2         -6.4090   32.0160    2.7870 N.am      1 IKM301      0.0000 
      8 C6         -6.4930   30.7110    3.4370 C.3       1 IKM301      0.0000 
      9 C7         -7.0540   29.7510    2.3460 C.3       1 IKM301      0.0000 
     10 C8         -7.2100   30.6230    1.0750 C.3       1 IKM301      0.0000 
     11 C9         -6.7950   32.0190    1.4760 C.2       1 IKM301      0.0000 
     12 O2         -6.8040   33.0140    0.7470 O.2       1 IKM301      0.0000 
     13 C10        -8.2820   28.9480    2.7750 C.3       1 IKM301      0.0000 
     14 C11        -7.3440   30.7750    4.7360 C.2       1 IKM301      0.0000 
     15 O3         -7.1930   29.8330    5.5660 O.co2     1 IKM301      0.0000 
     16 C12        -8.8940   28.0060    1.7580 C.2       1 IKM301      0.0000 
     17 O4         -9.9240   27.3780    2.1150 O.co2     1 IKM301      0.0000 
     18 O5         -8.3240   27.9370    0.6390 O.co2     1 IKM301      0.0000 
     19 O6         -8.1200   31.7590    4.8290 O.co2     1 IKM301      0.0000 
     20 N1         -6.7380   29.1500   -0.8590 N.4       1 IKM301      0.0000 
     21 H          -6.2610   27.5296   -2.1441 H         1 IKM301      0.0000 
     22 H          -5.3547   29.0185   -2.4633 H         1 IKM301      0.0000 
     23 H          -3.5795   27.9382    0.9926 H         1 IKM301      0.0000 
     24 H          -4.0446   27.1354   -1.2910 H         1 IKM301      0.0000 
     25 H          -5.6495   30.9045   -0.3247 H         1 IKM301      0.0000 
     26 H          -4.5391   30.1135    1.5286 H         1 IKM301      0.0000 
     27 H          -6.0951   32.7983    3.2910 H         1 IKM301      0.0000 
     28 H          -5.4960   30.3680    3.6836 H         1 IKM301      0.0000 
     29 H          -8.1336   30.5678    0.6965 H         1 IKM301      0.0000 
     30 H          -9.0687   29.6675    3.1181 H         1 IKM301      0.0000 
     31 H          -8.0153   28.3633    3.6922 H         1 IKM301      0.0000 
@<TRIPOS>BOND
     1    3    1 1    
     2   20    1 1    
     3   21    1 1    
     4   22    1 1    
     5    3    2 2    
     6    5    2 1    
     7   23    2 1    
     8   24    3 1    
     9    5    4 1    
    10   10    4 1    
    11   20    4 1    
    12   25    4 1    
    13    6    5 1    
    14   26    5 1    
    15    9    6 1    
    16    8    7 1    
    17   11    7 am   
    18   27    7 1    
    19    9    8 1    
    20   14    8 1    
    21   28    8 1    
    22   10    9 1    
    23   13    9 1    
    24   11   10 1    
    25   29   10 1    
    26   12   11 2    
    27   16   13 1    
    28   30   13 1    
    29   31   13 1    
    30   15   14 ar   
    31   19   14 ar   
    32   17   16 ar   
    33   18   16 ar   
@<TRIPOS>SUBSTRUCTURE
     1 IKM301      1 GROUP   
@<TRIPOS>SET

