#    Name: 3gnw_XNC_1_INTS_M
#    Modification time : Tue Mar 25 12:46:19 2014

@<TRIPOS>MOLECULE
3gnw_XNC_1_INTS_M
   79     0     9     0     0
SMALL
NO_CHARGES


@<TRIPOS>ATOM
      1 CA         28.1850    6.3120   42.1685 C.3       3 GLC5        0.0000 
      2 CA         29.2100    5.7280   40.5020 C.3       9 GLL5        0.0000 
      3 CA         27.1600    6.8960   43.8350 C.3       6 GLP5        0.0000 
      4 CA         25.6185    7.9870   38.1415 C.3       3 GLC5        0.0000 
      5 CA         27.3780    6.9220   37.3460 C.3       9 GLL5        0.0000 
      6 CA         23.8590    9.0520   38.9370 C.3       6 GLP5        0.0000 
      7 N          23.8910    7.4865   36.9805 N.am      2 SEC2        0.0000 
      8 N          24.6590    6.6790   36.0270 N.am      8 SEL2        0.0000 
      9 N          23.1230    8.2940   37.9340 N.am      5 SEP2        0.0000 
     10 N          24.2385    6.3050   39.2380 N.am      2 SEC2        0.0000 
     11 N          24.6740    5.5040   38.0560 N.am      8 SEL2        0.0000 
     12 N          23.8030    7.1060   40.4200 N.am      5 SEP2        0.0000 
     13 CA         23.3815    3.5490   37.5155 C.3       3 GLC5        0.0000 
     14 CA         24.7630    3.9640   35.8880 C.3       9 GLL5        0.0000 
     15 CA         22.0000    3.1340   39.1430 C.3       6 GLP5        0.0000 
     16 CA         24.5880    0.2085   34.2795 C.3       3 GLC5        0.0000 
     17 CA         25.3440    2.1900   34.2310 C.3       9 GLL5        0.0000 
     18 CA         23.8320   -1.7730   34.3280 C.3       6 GLP5        0.0000 
     19 CA         23.4000    2.2940   33.4930 C.3       3 GLC5        0.0000 
     20 CA         21.4560    2.3980   32.7550 C.3       6 GLP5        0.0000 
     21 CA         24.7145    2.2425   32.1140 C.3       3 GLC5        0.0000 
     22 CA         24.0850    2.2950   29.9970 C.3       6 GLP5        0.0000 
     23 CA         24.5080    5.8820   32.8620 C.3       3 GLC5        0.0000 
     24 CA         25.8350    4.6180   33.6660 C.3       9 GLL5        0.0000 
     25 CA         23.1810    7.1460   32.0580 C.3       6 GLP5        0.0000 
     26 CA         26.9580    5.1410   31.8055 C.3       3 GLC5        0.0000 
     27 CA         28.0810    5.6640   29.9450 C.3       6 GLP5        0.0000 
     28 O          32.7915    4.8820   34.5135 O.2       1 ALC1        0.0000 
     29 O          31.6040    4.6780   35.1050 O.2       7 ALL1        0.0000 
     30 O          33.9790    5.0860   33.9220 O.2       4 ALP1        0.0000 
     31 CA         32.8745    7.9260   35.8005 C.3       3 GLC5        0.0000 
     32 CA         32.3180    6.4040   36.5510 C.3       9 GLL5        0.0000 
     33 CA         33.4310    9.4480   35.0500 C.3       6 GLP5        0.0000 
     34 CA         30.0870    9.6665   36.1420 C.3       3 GLC5        0.0000 
     35 CA         28.1250    9.3010   36.9200 C.3       9 GLL5        0.0000 
     36 CA         32.0490   10.0320   35.3640 C.3       6 GLP5        0.0000 
     37 CA         27.6195   10.8440   39.1205 C.3       3 GLC5        0.0000 
     38 CA         27.9370    9.4960   38.2230 C.3       9 GLL5        0.0000 
     39 CA         27.3020   12.1920   40.0180 C.3       6 GLP5        0.0000 
     40 CA         26.3900   10.1980   37.5330 C.3       3 GLC5        0.0000 
     41 CA         24.8430   10.9000   36.8430 C.3       6 GLP5        0.0000 
     42 CA         30.2555   10.8020   36.3860 C.3       3 GLC5        0.0000 
     43 CA         28.5550   10.3460   36.1000 C.3       9 GLL5        0.0000 
     44 CA         31.9560   11.2580   36.6720 C.3       6 GLP5        0.0000 
     45 CA         30.7445   10.5365   33.9535 C.3       3 GLC5        0.0000 
     46 CA         29.4400   11.0410   32.5430 C.3       9 GLL5        0.0000 
     47 CA         25.4015    8.4875   30.3890 C.3       3 GLC5        0.0000 
     48 CA         26.8260    9.8880   30.0340 C.3       9 GLL5        0.0000 
     49 CA         23.9770    7.0870   30.7440 C.3       6 GLP5        0.0000 
     50 CA         24.5120   11.6220   29.4205 C.3       3 GLC5        0.0000 
     51 CA         25.7290   10.6630   30.3820 C.3       9 GLL5        0.0000 
     52 CA         23.2950   12.5810   28.4590 C.3       6 GLP5        0.0000 
     53 CA         24.7765   12.7350   30.2825 C.3       3 GLC5        0.0000 
     54 CA         25.8350   11.5800   31.4400 C.3       9 GLL5        0.0000 
     55 CA         23.7180   13.8900   29.1250 C.3       6 GLP5        0.0000 
     56 CA         29.0288    6.5585   43.4382 C.3       3 GLC5        0.0000 
     57 CA         30.6440    5.8340   42.4480 C.3       9 GLL5        0.0000 
     58 CA         31.7538    8.6892   36.6005 C.3       3 GLC5        0.0000 
     59 CA         30.8280    7.3740   38.1260 C.3       9 GLL5        0.0000 
     60 CA         32.7777    5.8062   34.4870 C.3       3 GLC5        0.0000 
     61 CA         33.7410    5.6330   32.6450 C.3       6 GLP5        0.0000 
     62 CA         30.3280    9.7622   34.9165 C.3       3 GLC5        0.0000 
     63 CA         28.4790    8.8560   34.2050 C.3       9 GLL5        0.0000 
     64 CA         26.2348    8.8460   33.9502 C.3       3 GLC5        0.0000 
     65 CA         24.2090    9.3510   33.2830 C.3       6 GLP5        0.0000 
     66 CA         28.4775   12.8940   31.9818 C.3       3 GLC5        0.0000 
     67 CA         28.1320   10.9290   31.7720 C.3       9 GLL5        0.0000 
     68 CA         28.1690   14.8030   31.8060 C.3       6 GLP5        0.0000 
     69 CA         28.2372   11.8910   29.9585 C.3       3 GLC5        0.0000 
     70 CA         28.0230   10.0310   30.7260 C.3       9 GLL5        0.0000 
     71 CA         28.3970   13.3020   28.6680 C.3       6 GLP5        0.0000 
     72 CA         25.8950   10.3345   32.6188 C.3       3 GLC5        0.0000 
     73 CA         30.1347   10.1240   30.6679 C.3       3 GLC5        0.0000 
     74 CA         31.8650    9.7400   29.8940 C.3       6 GLP5        0.0000 
     75 CA         27.3372   11.7888   29.4380 C.3       3 GLC5        0.0000 
     76 CA         24.9955   10.2363   32.0970 C.3       3 GLC5        0.0000 
     77 CA         27.3008   13.2233   31.7972 C.3       3 GLC5        0.0000 
     78 CA         27.4147   12.4727   30.2283 C.3       3 GLC5        0.0000 
     79 CA         27.0300   11.7070   32.1370 C.3       9 GLL5        0.0000 
@<TRIPOS>BOND
@<TRIPOS>SUBSTRUCTURE
     1 ALC1       28 GROUP        1 X    ALC  0     ROOT ALC X 1
     2 SEC2        7 GROUP        1 X    SEC  0     **** SEC X 2
     3 GLC5        1 GROUP        1 X    GLC  0     **** GLC X 6
     4 ALP1       30 GROUP        1 Y    ALP  0     ROOT ALP Y 8
     5 SEP2        9 GROUP        1 Y    SEP  0     **** SEP Y 9
     6 GLP5        3 GROUP        1 Y    GLP  0     **** GLP Y 13
     7 ALL1       29 GROUP        1 Z    ALL  0     ROOT ALL Z 15
     8 SEL2        8 GROUP        1 Z    SEL  0     **** SEL Z 16
     9 GLL5        2 GROUP        1 Z    GLL  0     **** GLL Z 20
@<TRIPOS>SET

