#    Name: 3gnw_XNC_1_ligand
#    Modification time : Tue Mar 25 12:46:19 2014

@<TRIPOS>MOLECULE
3gnw_XNC_1_ligand
   76    81     1     0     0
SMALL
NO_CHARGES


@<TRIPOS>ATOM
      1 O35        27.2090    6.8400   40.1460 O.2       1 XNC579      0.0000 
      2 C16        28.2350    6.4290   39.6280 C.2       1 XNC579      0.0000 
      3 C17        29.2100    5.7280   40.5020 C.ar      1 XNC579      0.0000 
      4 C43        29.6290    4.4390   40.2160 C.ar      1 XNC579      0.0000 
      5 C42        30.5430    3.8330   41.0740 C.ar      1 XNC579      0.0000 
      6 C41        31.0460    4.5340   42.1850 C.ar      1 XNC579      0.0000 
      7 C40        30.6440    5.8340   42.4480 C.ar      1 XNC579      0.0000 
      8 C44        31.1510    6.6080   43.6350 C.3       1 XNC579      0.0000 
      9 N39        29.7200    6.4160   41.6040 N.ar      1 XNC579      0.0000 
     10 N7         28.4990    6.6200   38.2610 N.am      1 XNC579      0.0000 
     11 C4         29.7960    6.5320   37.6850 C.ar      1 XNC579      0.0000 
     12 C3         30.8280    7.3740   38.1260 C.ar      1 XNC579      0.0000 
     13 C2         32.0890    7.3190   37.5480 C.ar      1 XNC579      0.0000 
     14 C8         27.3780    6.9220   37.3460 C.3       1 XNC579      0.0000 
     15 C9         26.9060    5.6410   36.7090 C.2       1 XNC579      0.0000 
     16 S12        25.2010    5.5080   36.7120 S.o2      1 XNC579      0.0000 
     17 O32        24.6590    6.6790   36.0270 O.2       1 XNC579      0.0000 
     18 O33        24.6740    5.5040   38.0560 O.2       1 XNC579      0.0000 
     19 C13        24.7630    3.9640   35.8880 C.3       1 XNC579      0.0000 
     20 C14        25.7620    3.5660   34.8060 C.3       1 XNC579      0.0000 
     21 C37        25.3440    2.1900   34.2310 C.3       1 XNC579      0.0000 
     22 C38        25.8350    4.6180   33.6660 C.3       1 XNC579      0.0000 
     23 C15        27.1250    3.4330   35.5270 C.3       1 XNC579      0.0000 
     24 C10        27.7020    4.6770   36.1870 C.2       1 XNC579      0.0000 
     25 N11        29.0900    4.7110   36.1600 N.pl3     1 XNC579      0.0000 
     26 C5         30.0430    5.6160   36.6560 C.ar      1 XNC579      0.0000 
     27 C6         31.3110    5.5550   36.1070 C.ar      1 XNC579      0.0000 
     28 O36        31.6040    4.6780   35.1050 O.3       1 XNC579      0.0000 
     29 C1         32.3180    6.4040   36.5510 C.ar      1 XNC579      0.0000 
     30 C18        27.8670    8.0410   36.3960 C.ar      1 XNC579      0.0000 
     31 C23        28.1250    9.3010   36.9200 C.ar      1 XNC579      0.0000 
     32 F34        27.9370    9.4960   38.2230 F         1 XNC579      0.0000 
     33 C22        28.5550   10.3460   36.1000 C.ar      1 XNC579      0.0000 
     34 C21        28.7350   10.1290   34.7330 C.ar      1 XNC579      0.0000 
     35 C20        28.4790    8.8560   34.2050 C.ar      1 XNC579      0.0000 
     36 C19        28.0420    7.8260   35.0300 C.ar      1 XNC579      0.0000 
     37 O24        29.1790   11.1700   33.9580 O.3       1 XNC579      0.0000 
     38 C25        29.4400   11.0410   32.5430 C.3       1 XNC579      0.0000 
     39 C26        28.1320   10.9290   31.7720 C.ar      1 XNC579      0.0000 
     40 C31        28.0230   10.0310   30.7260 C.ar      1 XNC579      0.0000 
     41 C30        26.8260    9.8880   30.0340 C.ar      1 XNC579      0.0000 
     42 C29        25.7290   10.6630   30.3820 C.ar      1 XNC579      0.0000 
     43 C28        25.8350   11.5800   31.4400 C.ar      1 XNC579      0.0000 
     44 C27        27.0300   11.7070   32.1370 C.ar      1 XNC579      0.0000 
     45 H          29.2789    3.9435   39.3985 H         1 XNC579      0.0000 
     46 H          30.8554    2.8698   40.9003 H         1 XNC579      0.0000 
     47 H          31.7238    4.0656   42.8078 H         1 XNC579      0.0000 
     48 H          30.6405    8.0417   38.8915 H         1 XNC579      0.0000 
     49 H          32.8282    7.9512   37.8641 H         1 XNC579      0.0000 
     50 H          26.5663    7.3423   37.9544 H         1 XNC579      0.0000 
     51 H          23.7811    4.1744   35.5059 H         1 XNC579      0.0000 
     52 H          24.7192    3.2681   36.7054 H         1 XNC579      0.0000 
     53 H          27.8665    3.0379   34.7892 H         1 XNC579      0.0000 
     54 H          27.0294    2.6268   36.2959 H         1 XNC579      0.0000 
     55 H          29.5522    3.8335   35.6323 H         1 XNC579      0.0000 
     56 H          33.2598    6.3387   36.1148 H         1 XNC579      0.0000 
     57 H          28.7383   11.2719   36.5018 H         1 XNC579      0.0000 
     58 H          28.6171    8.6878   33.1986 H         1 XNC579      0.0000 
     59 H          27.8456    6.8962   34.6303 H         1 XNC579      0.0000 
     60 H          30.0390   10.1472   32.3295 H         1 XNC579      0.0000 
     61 H          29.9883   11.9102   32.1594 H         1 XNC579      0.0000 
     62 H          28.8400    9.4575   30.4529 H         1 XNC579      0.0000 
     63 H          26.7547    9.2086   29.2655 H         1 XNC579      0.0000 
     64 H          24.8442   10.5723   29.8750 H         1 XNC579      0.0000 
     65 H          25.0228   12.1557   31.6943 H         1 XNC579      0.0000 
     66 H          27.1069   12.3683   32.9172 H         1 XNC579      0.0000 
     67 H          32.1451    6.7139   43.6122 H         1 XNC579      0.0000 
     68 H          30.7591    7.5272   43.6739 H         1 XNC579      0.0000 
     69 H          30.9241    6.1559   44.4976 H         1 XNC579      0.0000 
     70 H          25.9710    1.8802   33.5162 H         1 XNC579      0.0000 
     71 H          25.3305    1.4813   34.9364 H         1 XNC579      0.0000 
     72 H          24.4298    2.2186   33.8268 H         1 XNC579      0.0000 
     73 H          26.1177    5.5150   34.0059 H         1 XNC579      0.0000 
     74 H          26.4895    4.3534   32.9578 H         1 XNC579      0.0000 
     75 H          24.9502    4.7404   33.2164 H         1 XNC579      0.0000 
     76 H          32.3282    5.1213   34.5767 H         1 XNC579      0.0000 
@<TRIPOS>BOND
     1    2    1 2    
     2    3    2 1    
     3   10    2 am   
     4    4    3 ar   
     5    9    3 ar   
     6    5    4 ar   
     7   45    4 1    
     8    6    5 ar   
     9   46    5 1    
    10    7    6 ar   
    11   47    6 1    
    12    8    7 1    
    13    9    7 ar   
    14   67    8 1    
    15   68    8 1    
    16   69    8 1    
    17   11   10 1    
    18   14   10 1    
    19   12   11 ar   
    20   26   11 ar   
    21   13   12 ar   
    22   48   12 1    
    23   29   13 ar   
    24   49   13 1    
    25   15   14 1    
    26   30   14 1    
    27   50   14 1    
    28   16   15 1    
    29   24   15 2    
    30   17   16 2    
    31   18   16 2    
    32   19   16 1    
    33   20   19 1    
    34   51   19 1    
    35   52   19 1    
    36   21   20 1    
    37   22   20 1    
    38   23   20 1    
    39   70   21 1    
    40   71   21 1    
    41   72   21 1    
    42   73   22 1    
    43   74   22 1    
    44   75   22 1    
    45   24   23 1    
    46   53   23 1    
    47   54   23 1    
    48   25   24 1    
    49   26   25 1    
    50   55   25 1    
    51   27   26 ar   
    52   28   27 1    
    53   29   27 ar   
    54   76   28 1    
    55   56   29 1    
    56   31   30 ar   
    57   36   30 ar   
    58   32   31 1    
    59   33   31 ar   
    60   34   33 ar   
    61   57   33 1    
    62   35   34 ar   
    63   37   34 1    
    64   36   35 ar   
    65   58   35 1    
    66   59   36 1    
    67   38   37 1    
    68   39   38 1    
    69   60   38 1    
    70   61   38 1    
    71   40   39 ar   
    72   44   39 ar   
    73   41   40 ar   
    74   62   40 1    
    75   42   41 ar   
    76   63   41 1    
    77   43   42 ar   
    78   64   42 1    
    79   44   43 ar   
    80   65   43 1    
    81   66   44 1    
@<TRIPOS>SUBSTRUCTURE
     1 XNC579      1 GROUP   
@<TRIPOS>SET

