#    Name: 2bsa_NAP_2_INTS_M
#    Modification time : Mon Mar 24 21:36:35 2014

@<TRIPOS>MOLECULE
2bsa_NAP_2_INTS_M
  103     0     9     0     0
SMALL
NO_CHARGES


@<TRIPOS>ATOM
      1 N         -12.9875   41.7625   -7.6795 N.am      2 SEC2        0.0000 
      2 N         -12.6800   41.8480   -6.2610 N.am      8 SEL2        0.0000 
      3 N         -13.2950   41.6770   -9.0980 N.am      5 SEP2        0.0000 
      4 CA        -12.8695   42.4360   -3.4210 C.3       3 GLC5        0.0000 
      5 CA        -12.1250   40.5350   -3.0750 C.3       9 GLL5        0.0000 
      6 CA        -13.6140   44.3370   -3.7670 C.3       6 GLP5        0.0000 
      7 CA        -13.4365   39.1455   -1.9100 C.3       3 GLC5        0.0000 
      8 CA        -14.7480   37.7560   -0.7450 C.3       6 GLP5        0.0000 
      9 CA         -9.2820   40.7160   -3.6490 C.3       3 GLC5        0.0000 
     10 CA        -10.2160   38.7580   -3.3100 C.3       9 GLL5        0.0000 
     11 CA         -8.3480   42.6740   -3.9880 C.3       6 GLP5        0.0000 
     12 CA         -9.5765   39.8295   -4.8115 C.3       3 GLC5        0.0000 
     13 CA         -8.9370   40.9010   -6.3130 C.3       6 GLP5        0.0000 
     14 N          -7.3715   38.3705   -3.6945 N.am      2 SEC2        0.0000 
     15 N          -8.8150   39.0620   -3.1900 N.am      8 SEL2        0.0000 
     16 N          -5.9280   37.6790   -4.1990 N.am      5 SEP2        0.0000 
     17 O          -7.3715   38.3705   -3.6945 O.2       1 ALC1        0.0000 
     18 O          -8.8150   39.0620   -3.1900 O.2       7 ALL1        0.0000 
     19 O          -5.9280   37.6790   -4.1990 O.2       4 ALP1        0.0000 
     20 CA         -9.1235   36.5420   -1.8545 C.3       3 GLC5        0.0000 
     21 CA        -10.6960   37.3700   -2.8080 C.3       9 GLL5        0.0000 
     22 CA         -7.5510   35.7140   -0.9010 C.3       6 GLP5        0.0000 
     23 CA         -9.2050   37.1525   -0.5735 C.3       3 GLC5        0.0000 
     24 CA        -10.8360   37.7040   -1.3240 C.3       9 GLL5        0.0000 
     25 CA         -7.5740   36.6010    0.1770 C.3       6 GLP5        0.0000 
     26 CA        -12.7920   37.7300   -1.0345 C.3       3 GLC5        0.0000 
     27 CA        -14.4690   35.5385    3.9550 C.3       3 GLC5        0.0000 
     28 CA        -12.5390   35.6860    2.8090 C.3       9 GLL5        0.0000 
     29 CA        -16.3990   35.3910    5.1010 C.3       6 GLP5        0.0000 
     30 O         -13.7230   35.0775    4.5690 O.2       1 ALC1        0.0000 
     31 O         -13.3200   34.7310    3.3070 O.2       7 ALL1        0.0000 
     32 O         -14.1260   35.4240    5.8310 O.2       4 ALP1        0.0000 
     33 N         -11.1060   37.4795    4.6445 N.am      2 SEC2        0.0000 
     34 N         -12.1290   36.7490    3.6180 N.am      8 SEL2        0.0000 
     35 N         -10.0830   38.2100    5.6710 N.am      5 SEP2        0.0000 
     36 CA        -11.8020   39.8805    2.2740 C.3       3 GLC5        0.0000 
     37 CA        -11.5140   37.8550    3.0710 C.3       9 GLL5        0.0000 
     38 CA        -12.0900   41.9060    1.4770 C.3       6 GLP5        0.0000 
     39 CA        -10.7610   39.4095    3.7565 C.3       3 GLC5        0.0000 
     40 CA        -10.0080   40.9640    4.4420 C.3       6 GLP5        0.0000 
     41 CA        -12.7015   38.6280    4.2890 C.3       3 GLC5        0.0000 
     42 CA        -13.8890   39.4010    5.5070 C.3       6 GLP5        0.0000 
     43 N         -16.0050   41.2170   -7.9525 N.am      2 SEC2        0.0000 
     44 N         -16.4420   40.6770   -6.4330 N.am      8 SEL2        0.0000 
     45 N         -15.5680   41.7570   -9.4720 N.am      5 SEP2        0.0000 
     46 N         -15.8740   44.1805   -4.8370 N.am      2 SEC2        0.0000 
     47 N         -16.0050   42.9760   -5.4310 N.am      8 SEL2        0.0000 
     48 N         -15.7430   45.3850   -4.2430 N.am      5 SEP2        0.0000 
     49 N         -17.2460   43.9325   -5.0425 N.am      2 SEC2        0.0000 
     50 N         -18.4870   44.8890   -4.6540 N.am      5 SEP2        0.0000 
     51 CA        -17.7850   44.1385   -4.2170 C.3       3 GLC5        0.0000 
     52 CA        -17.6310   42.1570   -3.2880 C.3       9 GLL5        0.0000 
     53 CA        -17.9390   46.1200   -5.1460 C.3       6 GLP5        0.0000 
     54 CA        -18.0465   42.2525   -0.5375 C.3       3 GLC5        0.0000 
     55 CA        -18.6400   41.4110   -2.4520 C.3       9 GLL5        0.0000 
     56 CA        -17.4530   43.0940    1.3770 C.3       6 GLP5        0.0000 
     57 CA        -22.8325   42.2890   -3.5475 C.3       3 GLC5        0.0000 
     58 CA        -21.0390   41.7690   -2.5240 C.3       9 GLL5        0.0000 
     59 CA        -24.6260   42.8090   -4.5710 C.3       6 GLP5        0.0000 
     60 O         -23.0215   41.0550   -1.1275 O.2       1 ALC1        0.0000 
     61 O         -22.1880   40.9350   -2.2980 O.2       7 ALL1        0.0000 
     62 O         -23.8550   41.1750    0.0430 O.2       4 ALP1        0.0000 
     63 CA        -18.9300   42.6405    0.0920 C.3       3 GLC5        0.0000 
     64 CA        -20.4070   42.1870   -1.1930 C.3       9 GLL5        0.0000 
     65 CA        -23.0950   41.8920    0.5785 C.3       3 GLC5        0.0000 
     66 CA        -21.8720   43.5270    0.1380 C.3       9 GLL5        0.0000 
     67 CA        -24.3180   40.2570    1.0190 C.3       6 GLP5        0.0000 
     68 CA        -23.0625   45.7320    2.3275 C.3       3 GLC5        0.0000 
     69 CA        -22.4200   44.7020    0.5690 C.3       9 GLL5        0.0000 
     70 CA        -23.7050   46.7620    4.0860 C.3       6 GLP5        0.0000 
     71 CA        -24.5425   45.3650    0.7145 C.3       3 GLC5        0.0000 
     72 CA        -26.6650   46.0280    0.8600 C.3       6 GLP5        0.0000 
     73 N         -23.9765   42.3000    1.0400 N.am      2 SEC2        0.0000 
     74 N         -24.0980   43.4250    2.0370 N.am      8 SEL2        0.0000 
     75 N         -23.8550   41.1750    0.0430 N.am      5 SEP2        0.0000 
     76 O         -23.8780   46.9120    1.8980 O.2       1 ALC1        0.0000 
     77 O         -24.3270   45.7320    1.6720 O.2       7 ALL1        0.0000 
     78 O         -23.4290   48.0920    2.1240 O.2       4 ALP1        0.0000 
     79 CA        -18.8885   43.8840    0.0155 C.3       3 GLC5        0.0000 
     80 CA        -20.3240   44.6740   -1.3460 C.3       9 GLL5        0.0000 
     81 N          -7.0330   37.1885   -4.5070 N.am      2 SEC2        0.0000 
     82 N          -8.1380   36.6980   -4.8150 N.am      8 SEL2        0.0000 
     83 N          -7.6720   33.9745   -2.8925 N.am      2 SEC2        0.0000 
     84 N          -8.3520   34.3860   -3.9860 N.am      8 SEL2        0.0000 
     85 N          -6.9920   33.5630   -1.7990 N.am      5 SEP2        0.0000 
     86 CA        -12.2440   41.2000   -1.2415 C.3       3 GLC5        0.0000 
     87 CA        -10.9870   39.7490   -2.4030 C.3       9 GLL5        0.0000 
     88 CA        -12.9320   42.2580    0.2560 C.3       6 GLP5        0.0000 
     89 CA         -9.9520   41.4080   -3.3635 C.3       3 GLC5        0.0000 
     90 CA        -13.3513   37.0280    0.2118 C.3       3 GLC5        0.0000 
     91 CA        -11.6290   36.8610    0.9080 C.3       9 GLL5        0.0000 
     92 CA        -18.0571   39.8275   -2.2498 C.3       3 GLC5        0.0000 
     93 CA        -17.0980   38.2400   -1.4470 C.3       6 GLP5        0.0000 
     94 CA        -21.8555   43.1202    2.1398 C.3       3 GLC5        0.0000 
     95 CA        -21.5650   42.1260    3.9260 C.3       6 GLP5        0.0000 
     96 CA        -20.8685   46.2257    1.1518 C.3       3 GLC5        0.0000 
     97 CA        -19.5710   47.1530    1.9980 C.3       6 GLP5        0.0000 
     98 CA        -18.7770   46.0440   -0.8468 C.3       3 GLC5        0.0000 
     99 CA        -20.9020   45.8860   -0.9210 C.3       9 GLL5        0.0000 
    100 CA        -16.9410   46.8080   -0.5600 C.3       6 GLP5        0.0000 
    101 CA        -20.0920   46.2165    0.4322 C.3       3 GLC5        0.0000 
    102 CA        -21.9395   45.0895   -2.8308 C.3       3 GLC5        0.0000 
    103 CA        -23.2660   44.8990   -4.5280 C.3       6 GLP5        0.0000 
@<TRIPOS>BOND
@<TRIPOS>SUBSTRUCTURE
     1 ALC1       17 GROUP        1 X    ALC  0     ROOT ALC X 1
     2 SEC2        1 GROUP        1 X    SEC  0     **** SEC X 2
     3 GLC5        4 GROUP        1 X    GLC  0     **** GLC X 6
     4 ALP1       19 GROUP        1 Y    ALP  0     ROOT ALP Y 8
     5 SEP2        3 GROUP        1 Y    SEP  0     **** SEP Y 9
     6 GLP5        6 GROUP        1 Y    GLP  0     **** GLP Y 13
     7 ALL1       18 GROUP        1 Z    ALL  0     ROOT ALL Z 15
     8 SEL2        2 GROUP        1 Z    SEL  0     **** SEL Z 16
     9 GLL5        5 GROUP        1 Z    GLL  0     **** GLL Z 20
@<TRIPOS>SET

