#    Name: 2bsa_NAP_2_ligand
#    Modification time : Mon Mar 24 21:36:36 2014

@<TRIPOS>MOLECULE
2bsa_NAP_2_ligand
   73    77     1     0     0
SMALL
NO_CHARGES


@<TRIPOS>ATOM
      1 PA        -13.2510   40.6000   -5.5310 P.3       1 NAP1305     0.0000 
      2 O1A       -13.3470   39.3980   -6.4080 O.co2     1 NAP1305     0.0000 
      3 O2A       -12.6800   41.8480   -6.2610 O.co2     1 NAP1305     0.0000 
      4 O5B       -12.2010   40.1220   -4.4140 O.3       1 NAP1305     0.0000 
      5 C5B       -12.1250   40.5350   -3.0750 C.3       1 NAP1305     0.0000 
      6 C4B       -10.9870   39.7490   -2.4030 C.3       1 NAP1305     0.0000 
      7 O4B       -11.4880   38.9720   -1.3200 O.3       1 NAP1305     0.0000 
      8 C3B       -10.2160   38.7580   -3.3100 C.3       1 NAP1305     0.0000 
      9 O3B        -8.8150   39.0620   -3.1900 O.3       1 NAP1305     0.0000 
     10 C2B       -10.6960   37.3700   -2.8080 C.3       1 NAP1305     0.0000 
     11 O2B        -9.8820   36.2060   -2.9670 O.3       1 NAP1305     0.0000 
     12 C1B       -10.8360   37.7040   -1.3240 C.3       1 NAP1305     0.0000 
     13 N9A       -11.5000   36.6860   -0.4540 N.pl3     1 NAP1305     0.0000 
     14 C8A       -12.0440   35.4580   -0.7640 C.2       1 NAP1305     0.0000 
     15 N7A       -12.5290   34.9010    0.3860 N.2       1 NAP1305     0.0000 
     16 C5A       -12.2800   35.7390    1.4290 C.ar      1 NAP1305     0.0000 
     17 C6A       -12.5390   35.6860    2.8090 C.ar      1 NAP1305     0.0000 
     18 N6A       -13.3200   34.7310    3.3070 N.pl3     1 NAP1305     0.0000 
     19 N1A       -12.1290   36.7490    3.6180 N.ar      1 NAP1305     0.0000 
     20 C2A       -11.5140   37.8550    3.0710 C.ar      1 NAP1305     0.0000 
     21 N3A       -11.2480   37.8860    1.7180 N.ar      1 NAP1305     0.0000 
     22 C4A       -11.6290   36.8610    0.9080 C.ar      1 NAP1305     0.0000 
     23 O3        -14.6250   40.8950   -4.6890 O.3       1 NAP1305     0.0000 
     24 PN        -16.0230   41.5120   -5.2670 P.3       1 NAP1305     0.0000 
     25 O1N       -16.4420   40.6770   -6.4330 O.co2     1 NAP1305     0.0000 
     26 O2N       -16.0050   42.9760   -5.4310 O.co2     1 NAP1305     0.0000 
     27 O5D       -17.0070   41.1720   -4.0550 O.3       1 NAP1305     0.0000 
     28 C5D       -17.6310   42.1570   -3.2880 C.3       1 NAP1305     0.0000 
     29 C4D       -18.6400   41.4110   -2.4520 C.3       1 NAP1305     0.0000 
     30 O4D       -19.0010   42.1950   -1.3350 O.3       1 NAP1305     0.0000 
     31 C3D       -19.8970   41.0460   -3.2350 C.3       1 NAP1305     0.0000 
     32 O3D       -20.0270   39.6290   -3.2190 O.3       1 NAP1305     0.0000 
     33 C2D       -21.0390   41.7690   -2.5240 C.3       1 NAP1305     0.0000 
     34 O2D       -22.1880   40.9350   -2.2980 O.3       1 NAP1305     0.0000 
     35 C1D       -20.4070   42.1870   -1.1930 C.3       1 NAP1305     0.0000 
     36 N1N       -20.8990   43.5290   -0.8220 N.pl3     1 NAP1305     0.0000 
     37 C2N       -21.8720   43.5270    0.1380 C.ar      1 NAP1305     0.0000 
     38 C3N       -22.4200   44.7020    0.5690 C.ar      1 NAP1305     0.0000 
     39 C7N       -23.6450   44.6230    1.4410 C.2       1 NAP1305     0.0000 
     40 O7N       -24.0980   43.4250    2.0370 O.2       1 NAP1305     0.0000 
     41 N7N       -24.3270   45.7320    1.6720 N.am      1 NAP1305     0.0000 
     42 C4N       -21.9120   45.8950    0.0420 C.ar      1 NAP1305     0.0000 
     43 C5N       -20.9020   45.8860   -0.9210 C.ar      1 NAP1305     0.0000 
     44 C6N       -20.3240   44.6740   -1.3460 C.ar      1 NAP1305     0.0000 
     45 P2B        -9.1210   35.6650   -4.3040 P.3       1 NAP1305     0.0000 
     46 O1X       -10.0780   35.4680   -5.4030 O.co2     1 NAP1305     0.0000 
     47 O2X        -8.1380   36.6980   -4.8150 O.co2     1 NAP1305     0.0000 
     48 O3X        -8.3520   34.3860   -3.9860 O.co2     1 NAP1305     0.0000 
     49 H         -13.0380   40.3249   -2.5163 H         1 NAP1305     0.0000 
     50 H         -11.8906   41.5955   -2.9734 H         1 NAP1305     0.0000 
     51 H         -10.2510   40.4657   -2.0190 H         1 NAP1305     0.0000 
     52 H         -10.6014   38.9084   -4.3000 H         1 NAP1305     0.0000 
     53 H         -11.7168   37.2493   -3.1592 H         1 NAP1305     0.0000 
     54 H          -9.7923   37.8657   -0.9576 H         1 NAP1305     0.0000 
     55 H         -12.0737   35.0685   -1.6364 H         1 NAP1305     0.0000 
     56 H         -13.4757   34.7602    4.2944 H         1 NAP1305     0.0000 
     57 H         -13.6809   34.0701    2.6490 H         1 NAP1305     0.0000 
     58 H         -11.2550   38.6522    3.6679 H         1 NAP1305     0.0000 
     59 H         -18.1622   42.8833   -3.8899 H         1 NAP1305     0.0000 
     60 H         -16.9469   42.6636   -2.6191 H         1 NAP1305     0.0000 
     61 H         -18.1785   40.4749   -2.1203 H         1 NAP1305     0.0000 
     62 H         -19.7920   41.4478   -4.2162 H         1 NAP1305     0.0000 
     63 H         -21.2592   42.6599   -3.0663 H         1 NAP1305     0.0000 
     64 H         -20.7243   41.4703   -0.4488 H         1 NAP1305     0.0000 
     65 H         -22.1966   42.6266    0.5421 H         1 NAP1305     0.0000 
     66 H         -23.9554   46.5689    1.2701 H         1 NAP1305     0.0000 
     67 H         -25.1525   45.6332    2.2276 H         1 NAP1305     0.0000 
     68 H         -22.2927   46.7975    0.3730 H         1 NAP1305     0.0000 
     69 H         -20.5719   46.7719   -1.3286 H         1 NAP1305     0.0000 
     70 H         -19.5575   44.6549   -1.9780 H         1 NAP1305     0.0000 
     71 H          -8.3494   38.3451   -3.7089 H         1 NAP1305     0.0000 
     72 H         -20.9775   39.4594   -2.9587 H         1 NAP1305     0.0000 
     73 H         -22.5431   41.2196   -1.4076 H         1 NAP1305     0.0000 
@<TRIPOS>BOND
     1    2    1 ar   
     2    3    1 ar   
     3    4    1 1    
     4   23    1 1    
     5    5    4 1    
     6    6    5 1    
     7   49    5 1    
     8   50    5 1    
     9    7    6 1    
    10    8    6 1    
    11   51    6 1    
    12   12    7 1    
    13    9    8 1    
    14   10    8 1    
    15   52    8 1    
    16   71    9 1    
    17   11   10 1    
    18   12   10 1    
    19   53   10 1    
    20   45   11 1    
    21   13   12 1    
    22   54   12 1    
    23   14   13 1    
    24   22   13 1    
    25   15   14 2    
    26   55   14 1    
    27   16   15 1    
    28   17   16 ar   
    29   22   16 ar   
    30   18   17 1    
    31   19   17 ar   
    32   56   18 1    
    33   57   18 1    
    34   20   19 ar   
    35   21   20 ar   
    36   58   20 1    
    37   22   21 ar   
    38   24   23 1    
    39   25   24 ar   
    40   26   24 ar   
    41   27   24 1    
    42   28   27 1    
    43   29   28 1    
    44   59   28 1    
    45   60   28 1    
    46   30   29 1    
    47   31   29 1    
    48   61   29 1    
    49   35   30 1    
    50   32   31 1    
    51   33   31 1    
    52   62   31 1    
    53   72   32 1    
    54   34   33 1    
    55   35   33 1    
    56   63   33 1    
    57   73   34 1    
    58   36   35 1    
    59   64   35 1    
    60   37   36 ar   
    61   44   36 ar   
    62   38   37 ar   
    63   65   37 1    
    64   39   38 1    
    65   42   38 ar   
    66   40   39 2    
    67   41   39 am   
    68   66   41 1    
    69   67   41 1    
    70   43   42 ar   
    71   68   42 1    
    72   44   43 ar   
    73   69   43 1    
    74   70   44 1    
    75   46   45 ar   
    76   47   45 ar   
    77   48   45 ar   
@<TRIPOS>SUBSTRUCTURE
     1 NAP1305     1 GROUP   
@<TRIPOS>SET

