#    Name: 3ocp_CMP_2_INTS_M
#    Modification time : Tue Mar 25 03:39:09 2014

@<TRIPOS>MOLECULE
3ocp_CMP_2_INTS_M
   59     0    12     0     0
SMALL
NO_CHARGES


@<TRIPOS>ATOM
      1 N           1.4770   25.9700   13.7425 N.am      2 SEC2        0.0000 
      2 N           0.4200   25.0800   13.7830 N.am     10 SEL2        0.0000 
      3 N           2.5340   26.8600   13.7020 N.am      6 SEP2        0.0000 
      4 N           0.6230   25.8620   14.9880 N.am      2 SEC2        0.0000 
      5 N           0.8260   26.6440   16.1930 N.am      6 SEP2        0.0000 
      6 NZ         -0.1465   22.8620   10.7245 N.4       3 LYC4        0.0000 
      7 NZ         -0.4600   23.6970   11.7780 N.4      11 LYL4        0.0000 
      8 NZ          1.2470   21.8180    8.9230 N.4       7 LYP4        0.0000 
      9 N          -1.4170   24.7350   11.5465 N.am      2 SEC2        0.0000 
     10 N          -0.4600   23.6970   11.7780 N.am     10 SEL2        0.0000 
     11 N          -2.3740   25.7730   11.3150 N.am      6 SEP2        0.0000 
     12 N          -0.1465   22.8620   10.7245 N.am      2 SEC2        0.0000 
     13 N           0.1670   22.0270    9.6710 N.am      6 SEP2        0.0000 
     14 CA          3.3940   22.0965   13.2140 C.3       4 GLC5        0.0000 
     15 CA          2.0030   22.5770   14.5060 C.3      12 GLL5        0.0000 
     16 CA          4.7850   21.6160   11.9220 C.3       8 GLP5        0.0000 
     17 CA          3.0355   23.4355   16.0715 C.3       4 GLC5        0.0000 
     18 CA          4.0680   24.2940   17.6370 C.3       8 GLP5        0.0000 
     19 N          -2.4180   23.3155   13.4740 N.am      2 SEC2        0.0000 
     20 N          -0.9310   22.9120   14.1760 N.am     10 SEL2        0.0000 
     21 N          -3.9050   23.7190   12.7720 N.am      6 SEP2        0.0000 
     22 N          -1.6585   20.2100   14.5120 N.am      2 SEC2        0.0000 
     23 N          -1.8100   20.8490   15.7860 N.am     10 SEL2        0.0000 
     24 N          -1.5070   19.5710   13.2380 N.am      6 SEP2        0.0000 
     25 O          -3.0640   20.6255   15.2435 O.2       1 ALC1        0.0000 
     26 O          -1.8100   20.8490   15.7860 O.2       9 ALL1        0.0000 
     27 O          -4.3180   20.4020   14.7010 O.2       5 ALP1        0.0000 
     28 CA          1.8375   21.3860   18.5010 C.3       4 GLC5        0.0000 
     29 CA          0.0240   21.2700   17.2770 C.3      12 GLL5        0.0000 
     30 CA          3.6510   21.5020   19.7250 C.3       8 GLP5        0.0000 
     31 CA          0.2890   19.4545   17.8860 C.3       4 GLC5        0.0000 
     32 CA          0.5540   17.6390   18.4950 C.3       8 GLP5        0.0000 
     33 CA         -0.4145   19.3480   16.3495 C.3       4 GLC5        0.0000 
     34 CA         -0.8530   17.4260   15.4220 C.3       8 GLP5        0.0000 
     35 CA         -0.7230   25.8220   21.2380 C.3       4 GLC5        0.0000 
     36 CA          0.5460   24.2320   21.2160 C.3      12 GLL5        0.0000 
     37 CA         -1.9920   27.4120   21.2600 C.3       8 GLP5        0.0000 
     38 CA          2.3000   24.6705   21.5205 C.3       4 GLC5        0.0000 
     39 CA          4.0540   25.1090   21.8250 C.3       8 GLP5        0.0000 
     40 CA         -0.5350   26.3835   20.2365 C.3       4 GLC5        0.0000 
     41 CA          0.9220   25.3550   19.2130 C.3      12 GLL5        0.0000 
     42 CA          2.4880   25.2320   20.5190 C.3       4 GLC5        0.0000 
     43 CA         -0.8995   25.2350   18.0040 C.3       4 GLC5        0.0000 
     44 CA         -2.7210   25.1150   16.7950 C.3       8 GLP5        0.0000 
     45 CA          1.1170   26.6100   17.4110 C.3       4 GLC5        0.0000 
     46 CA          1.3120   27.8650   15.6090 C.3       8 GLP5        0.0000 
     47 CA          2.4950   24.8245   18.4250 C.3       4 GLC5        0.0000 
     48 CA         -1.1885   24.0790   17.9615 C.3       4 GLC5        0.0000 
     49 CA          0.3440   23.0430   19.1280 C.3      12 GLL5        0.0000 
     50 CA          2.2060   23.6685   18.3825 C.3       4 GLC5        0.0000 
     51 CA          2.7548   20.7765   15.2875 C.3       4 GLC5        0.0000 
     52 CA          0.9260   21.8750   15.2740 C.3      12 GLL5        0.0000 
     53 CA          4.0450   19.3270   15.6850 C.3       8 GLP5        0.0000 
     54 CA         -0.4492   21.2683   13.6695 C.3       4 GLC5        0.0000 
     55 CA         -1.2040   20.2420   11.9860 C.3       8 GLP5        0.0000 
     56 CA         -1.7153   23.7097   16.3663 C.3       4 GLC5        0.0000 
     57 CA         -0.3150   22.7140   15.4320 C.3      12 GLL5        0.0000 
     58 CA          2.0145   22.4192   19.8536 C.3       4 GLC5        0.0000 
     59 CA          0.2780   23.0280   20.4570 C.3      12 GLL5        0.0000 
@<TRIPOS>BOND
@<TRIPOS>SUBSTRUCTURE
     1 ALC1       25 GROUP        1 X    ALC  0     ROOT ALC X 1
     2 SEC2        1 GROUP        1 X    SEC  0     **** SEC X 2
     3 LYC4        6 GROUP        1 X    LYC  0     **** LYC X 4
     4 GLC5       14 GROUP        1 X    GLC  0     **** GLC X 6
     5 ALP1       27 GROUP        1 Y    ALP  0     ROOT ALP Y 8
     6 SEP2        3 GROUP        1 Y    SEP  0     **** SEP Y 9
     7 LYP4        8 GROUP        1 Y    LYP  0     **** LYP Y 11
     8 GLP5       16 GROUP        1 Y    GLP  0     **** GLP Y 13
     9 ALL1       26 GROUP        1 Z    ALL  0     ROOT ALL Z 15
    10 SEL2        2 GROUP        1 Z    SEL  0     **** SEL Z 16
    11 LYL4        7 GROUP        1 Z    LYL  0     **** LYL Z 18
    12 GLL5       15 GROUP        1 Z    GLL  0     **** GLL Z 20
@<TRIPOS>SET

