#    Name: 3ocp_CMP_2_ligand
#    Modification time : Tue Mar 25 03:39:09 2014

@<TRIPOS>MOLECULE
3ocp_CMP_2_ligand
   33    36     1     0     0
SMALL
NO_CHARGES


@<TRIPOS>ATOM
      1 P           0.1690   23.7300   13.2890 P.3       1 CMP250      0.0000 
      2 O1P         0.4200   25.0800   13.7830 O.co2     1 CMP250      0.0000 
      3 O2P        -0.4600   23.6970   11.7780 O.co2     1 CMP250      0.0000 
      4 O5'         1.4880   22.9020   13.2160 O.3       1 CMP250      0.0000 
      5 C5'         2.0030   22.5770   14.5060 C.3       1 CMP250      0.0000 
      6 C4'         0.9260   21.8750   15.2740 C.3       1 CMP250      0.0000 
      7 O4'         1.2550   21.5770   16.6500 O.3       1 CMP250      0.0000 
      8 C3'        -0.3150   22.7140   15.4320 C.3       1 CMP250      0.0000 
      9 O3'        -0.9310   22.9120   14.1760 O.3       1 CMP250      0.0000 
     10 C2'        -1.1040   21.8950   16.4430 C.3       1 CMP250      0.0000 
     11 O2'        -1.8100   20.8490   15.7860 O.3       1 CMP250      0.0000 
     12 C1'         0.0240   21.2700   17.2770 C.3       1 CMP250      0.0000 
     13 N9          0.0460   21.7470   18.6750 N.pl3     1 CMP250      0.0000 
     14 C8         -0.1960   20.9960   19.7480 C.2       1 CMP250      0.0000 
     15 N7         -0.0540   21.7710   20.8750 N.2       1 CMP250      0.0000 
     16 C5          0.2780   23.0280   20.4570 C.ar      1 CMP250      0.0000 
     17 C6          0.5460   24.2320   21.2160 C.ar      1 CMP250      0.0000 
     18 N6          0.4420   24.1770   22.6630 N.pl3     1 CMP250      0.0000 
     19 N1          0.8580   25.3360   20.5960 N.ar      1 CMP250      0.0000 
     20 C2          0.9220   25.3550   19.2130 C.ar      1 CMP250      0.0000 
     21 N3          0.6590   24.1880   18.4730 N.ar      1 CMP250      0.0000 
     22 C4          0.3440   23.0430   19.1280 C.ar      1 CMP250      0.0000 
     23 H           2.2974   23.4732   15.0575 H         1 CMP250      0.0000 
     24 H           2.8699   21.9155   14.4364 H         1 CMP250      0.0000 
     25 H           0.6283   20.9632   14.7709 H         1 CMP250      0.0000 
     26 H          -0.0109   23.6256   15.9171 H         1 CMP250      0.0000 
     27 H          -1.6660   22.5143   17.0418 H         1 CMP250      0.0000 
     28 H          -0.1351   20.1885   17.2688 H         1 CMP250      0.0000 
     29 H          -0.4340   20.0585   19.7591 H         1 CMP250      0.0000 
     30 H           0.1602   23.2994   23.0509 H         1 CMP250      0.0000 
     31 H           0.6607   25.0212   23.1523 H         1 CMP250      0.0000 
     32 H           1.1625   26.2228   18.7146 H         1 CMP250      0.0000 
     33 H          -2.7148   21.2288   15.5934 H         1 CMP250      0.0000 
@<TRIPOS>BOND
     1    2    1 ar   
     2    3    1 ar   
     3    4    1 1    
     4    9    1 1    
     5    5    4 1    
     6    6    5 1    
     7   23    5 1    
     8   24    5 1    
     9    7    6 1    
    10    8    6 1    
    11   25    6 1    
    12   12    7 1    
    13    9    8 1    
    14   10    8 1    
    15   26    8 1    
    16   11   10 1    
    17   12   10 1    
    18   27   10 1    
    19   33   11 1    
    20   13   12 1    
    21   28   12 1    
    22   14   13 1    
    23   22   13 1    
    24   15   14 2    
    25   29   14 1    
    26   16   15 1    
    27   17   16 ar   
    28   22   16 ar   
    29   18   17 1    
    30   19   17 ar   
    31   30   18 1    
    32   31   18 1    
    33   20   19 ar   
    34   21   20 ar   
    35   32   20 1    
    36   22   21 ar   
@<TRIPOS>SUBSTRUCTURE
     1 CMP250      1 GROUP   
@<TRIPOS>SET

