#    Name: 4ie7_RHN_1_INTS_M
#    Modification time : Tue Mar 25 03:53:34 2014

@<TRIPOS>MOLECULE
4ie7_RHN_1_INTS_M
   39     0     6     0     0
SMALL
NO_CHARGES


@<TRIPOS>ATOM
      1 NZ         27.0945   -7.8740  -24.7210 N.4       1 LYC4        0.0000 
      2 NZ         27.6450   -7.8350  -26.6420 N.4       5 LYL4        0.0000 
      3 NZ         26.5440   -7.9130  -22.8000 N.4       3 LYP4        0.0000 
      4 NZ         31.5400   -9.6925  -28.8585 N.4       1 LYC4        0.0000 
      5 NZ         31.6900   -7.7830  -29.3750 N.4       5 LYL4        0.0000 
      6 NZ         31.3900  -11.6020  -28.3420 N.4       3 LYP4        0.0000 
      7 CA         24.2845   -4.7375  -29.8600 C.3       2 GLC5        0.0000 
      8 CA         25.7010   -5.4060  -29.3790 C.3       6 GLL5        0.0000 
      9 CA         22.8680   -4.0690  -30.3410 C.3       4 GLP5        0.0000 
     10 CA         32.7690   -6.3810  -29.9085 C.3       2 GLC5        0.0000 
     11 CA         31.7570   -6.5390  -31.3810 C.3       6 GLL5        0.0000 
     12 CA         33.7810   -6.2230  -28.4360 C.3       4 GLP5        0.0000 
     13 CA         26.8475   -6.8470  -31.5590 C.3       2 GLC5        0.0000 
     14 CA         27.0110   -5.7630  -29.6170 C.3       6 GLL5        0.0000 
     15 CA         26.6840   -7.9310  -33.5010 C.3       4 GLP5        0.0000 
     16 CA         29.6890   -4.3555  -29.8575 C.3       2 GLC5        0.0000 
     17 CA         29.1520   -5.7180  -31.0430 C.3       6 GLL5        0.0000 
     18 CA         30.2260   -2.9930  -28.6720 C.3       4 GLP5        0.0000 
     19 CA         31.7675   -6.3890  -29.2675 C.3       2 GLC5        0.0000 
     20 CA         29.7540   -6.5550  -30.0990 C.3       6 GLL5        0.0000 
     21 CA         29.5705   -5.0930  -28.9590 C.3       2 GLC5        0.0000 
     22 CA         29.3870   -3.6310  -27.8190 C.3       4 GLP5        0.0000 
     23 CA         24.7115   -7.6755  -28.7360 C.3       2 GLC5        0.0000 
     24 CA         25.7000   -6.6630  -27.3170 C.3       6 GLL5        0.0000 
     25 CA         24.0400   -9.0920  -29.6960 C.3       4 GLP5        0.0000 
     26 CA         23.7540   -5.4870  -28.4815 C.3       2 GLC5        0.0000 
     27 CA         25.0660   -5.8550  -28.2350 C.3       6 GLL5        0.0000 
     28 CA         22.1250   -4.7150  -29.1870 C.3       4 GLP5        0.0000 
     29 CA         25.1980   -7.3383  -29.5970 C.3       2 GLC5        0.0000 
     30 CA         25.4755   -4.5427  -27.2918 C.3       2 GLC5        0.0000 
     31 CA         25.4090   -3.2530  -26.0060 C.3       4 GLP5        0.0000 
     32 CA         29.3453   -6.8510  -32.9138 C.3       2 GLC5        0.0000 
     33 CA         29.8540   -5.2870  -32.1730 C.3       6 GLL5        0.0000 
     34 CA         28.1740   -8.2040  -33.5720 C.3       4 GLP5        0.0000 
     35 CA         30.2387   -3.8275  -31.0682 C.3       2 GLC5        0.0000 
     36 CA         29.9610   -2.1570  -29.8810 C.3       4 GLP5        0.0000 
     37 CA         28.8135   -7.1703  -32.0715 C.3       2 GLC5        0.0000 
     38 CA         28.1935   -4.8576  -28.4560 C.3       2 GLC5        0.0000 
     39 CA         27.6440   -6.5840  -28.6880 C.3       6 GLL5        0.0000 
@<TRIPOS>BOND
@<TRIPOS>SUBSTRUCTURE
     1 LYC4        1 GROUP        1 X    LYC  0     ROOT LYC X 4
     2 GLC5        7 GROUP        1 X    GLC  0     **** GLC X 6
     3 LYP4        3 GROUP        1 Y    LYP  0     ROOT LYP Y 11
     4 GLP5        9 GROUP        1 Y    GLP  0     **** GLP Y 13
     5 LYL4        2 GROUP        1 Z    LYL  0     ROOT LYL Z 18
     6 GLL5        8 GROUP        1 Z    GLL  0     **** GLL Z 20
@<TRIPOS>SET

