#    Name: 4ie7_RHN_1_ligand
#    Modification time : Tue Mar 25 03:53:34 2014

@<TRIPOS>MOLECULE
4ie7_RHN_1_ligand
   26    28     1     0     0
SMALL
NO_CHARGES


@<TRIPOS>ATOM
      1 OAA        31.5210   -4.6430  -34.4500 O.co2     1 RHN602      0.0000 
      2 OAB        27.2180   -4.5290  -31.6920 O.2       1 RHN602      0.0000 
      3 OAC        29.5590   -7.7620  -28.0240 O.2       1 RHN602      0.0000 
      4 OAD        33.2850   -5.6660  -33.6590 O.co2     1 RHN602      0.0000 
      5 OAE        27.6450   -7.8350  -26.6420 O.co2     1 RHN602      0.0000 
      6 OAF        31.6900   -7.7830  -29.3750 O.co2     1 RHN602      0.0000 
      7 CAG        25.0660   -5.8550  -28.2350 C.ar      1 RHN602      0.0000 
      8 CAH        25.7000   -6.6630  -27.3170 C.ar      1 RHN602      0.0000 
      9 CAI        25.7010   -5.4060  -29.3790 C.ar      1 RHN602      0.0000 
     10 CAJ        31.7570   -6.5390  -31.3810 C.ar      1 RHN602      0.0000 
     11 CAK        29.8540   -5.2870  -32.1730 C.ar      1 RHN602      0.0000 
     12 CAL        32.0060   -5.3010  -33.5370 C.2       1 RHN602      0.0000 
     13 CAM        31.1790   -5.7090  -32.3380 C.ar      1 RHN602      0.0000 
     14 CAN        27.0000   -7.0440  -27.5470 C.ar      1 RHN602      0.0000 
     15 CAO        31.0560   -6.9570  -30.2620 C.ar      1 RHN602      0.0000 
     16 CAP        27.7440   -5.2800  -30.8350 C.2       1 RHN602      0.0000 
     17 CAQ        29.0360   -7.0090  -28.8880 C.2       1 RHN602      0.0000 
     18 CAR        27.0110   -5.7630  -29.6170 C.ar      1 RHN602      0.0000 
     19 CAS        29.1520   -5.7180  -31.0430 C.ar      1 RHN602      0.0000 
     20 CAT        27.6440   -6.5840  -28.6880 C.ar      1 RHN602      0.0000 
     21 CAU        29.7540   -6.5550  -30.0990 C.ar      1 RHN602      0.0000 
     22 H          24.0741   -5.5709  -28.0641 H         1 RHN602      0.0000 
     23 H          25.2063   -6.9756  -26.4724 H         1 RHN602      0.0000 
     24 H          25.1960   -4.8085  -30.0478 H         1 RHN602      0.0000 
     25 H          32.7409   -6.8515  -31.5128 H         1 RHN602      0.0000 
     26 H          29.4138   -4.6819  -32.8587 H         1 RHN602      0.0000 
@<TRIPOS>BOND
     1   12    1 ar   
     2   16    2 2    
     3   17    3 2    
     4   12    4 ar   
     5   14    5 ar   
     6   15    6 ar   
     7    8    7 ar   
     8    9    7 ar   
     9   22    7 1    
    10   14    8 ar   
    11   23    8 1    
    12   18    9 ar   
    13   24    9 1    
    14   13   10 ar   
    15   15   10 ar   
    16   25   10 1    
    17   13   11 ar   
    18   19   11 ar   
    19   26   11 1    
    20   13   12 1    
    21   20   14 ar   
    22   21   15 ar   
    23   18   16 1    
    24   19   16 1    
    25   20   17 1    
    26   21   17 1    
    27   20   18 ar   
    28   21   19 ar   
@<TRIPOS>SUBSTRUCTURE
     1 RHN602      1 GROUP   
@<TRIPOS>SET

