#    Name: 4k6z_1Q3_1_INTS_M
#    Modification time : Tue Mar 25 07:23:04 2014

@<TRIPOS>MOLECULE
4k6z_1Q3_1_INTS_M
   53     0     9     0     0
SMALL
NO_CHARGES


@<TRIPOS>ATOM
      1 CA         27.6825    7.2880    0.3090 C.3       3 GLC5        0.0000 
      2 CA         26.5510    6.3990    1.9700 C.3       9 GLL5        0.0000 
      3 CA         28.8140    8.1770   -1.3520 C.3       6 GLP5        0.0000 
      4 CA         26.2585    8.3235    1.8345 C.3       3 GLC5        0.0000 
      5 CA         25.9660   10.2480    1.6990 C.3       6 GLP5        0.0000 
      6 N          31.3980    4.4070    0.2350 N.am      2 SEC2        0.0000 
      7 N          29.9070    4.6280    0.3230 N.am      8 SEL2        0.0000 
      8 N          32.8890    4.1860    0.1470 N.am      5 SEP2        0.0000 
      9 CA         27.6340    4.6170   -1.1575 C.3       3 GLC5        0.0000 
     10 CA         27.5300    4.4170    0.7900 C.3       9 GLL5        0.0000 
     11 CA         27.7380    4.8170   -3.1050 C.3       6 GLP5        0.0000 
     12 CA         26.5350    3.1640    2.4605 C.3       3 GLC5        0.0000 
     13 CA         25.2020    4.2420    1.3440 C.3       9 GLL5        0.0000 
     14 CA         27.8680    2.0860    3.5770 C.3       6 GLP5        0.0000 
     15 CA         27.8880   -0.0330    0.3975 C.3       3 GLC5        0.0000 
     16 CA         26.1900    1.1600   -0.0770 C.3       9 GLL5        0.0000 
     17 CA         29.5860   -1.2260    0.8720 C.3       6 GLP5        0.0000 
     18 O          24.4765   -2.0200    0.1915 O.2       1 ALC1        0.0000 
     19 O          25.2250   -0.8870   -0.2310 O.2       7 ALL1        0.0000 
     20 O          23.7280   -3.1530    0.6140 O.2       4 ALP1        0.0000 
     21 CA         23.3935    1.5345   -0.5630 C.3       3 GLC5        0.0000 
     22 CA         25.0200    0.3660    0.1500 C.3       9 GLL5        0.0000 
     23 CA         21.7670    2.7030   -1.2760 C.3       6 GLP5        0.0000 
     24 CA         25.4450   -0.4260    2.0175 C.3       3 GLC5        0.0000 
     25 CA         25.8700   -1.2180    3.8850 C.3       6 GLP5        0.0000 
     26 CA         21.7765    3.9630    0.5160 C.3       3 GLC5        0.0000 
     27 CA         21.7860    5.2230    2.3080 C.3       9 GLL5        0.0000 
     28 CA         19.1450    5.0800    2.8265 C.3       3 GLC5        0.0000 
     29 CA         21.0120    4.2540    3.2230 C.3       9 GLL5        0.0000 
     30 CA         17.2780    5.9060    2.4300 C.3       6 GLP5        0.0000 
     31 CA         26.0735    3.0090    4.1865 C.3       3 GLC5        0.0000 
     32 CA         24.2790    3.9320    4.7960 C.3       9 GLL5        0.0000 
     33 CA         25.7890    4.9385    5.8950 C.3       3 GLC5        0.0000 
     34 CA         27.2990    5.9450    6.9940 C.3       6 GLP5        0.0000 
     35 CA         23.5235    5.3180    5.7485 C.3       3 GLC5        0.0000 
     36 CA         22.7680    6.7040    6.7010 C.3       6 GLP5        0.0000 
     37 CA         27.9025    4.7016    2.7089 C.3       3 GLC5        0.0000 
     38 CA         26.3770    5.0720    1.3890 C.3       9 GLL5        0.0000 
     39 CA         28.8080    4.3270    4.1830 C.3       6 GLP5        0.0000 
     40 CA         25.4413    5.9041    0.0927 C.3       3 GLC5        0.0000 
     41 CA         24.7830    7.1490   -1.1040 C.3       6 GLP5        0.0000 
     42 CA         25.9260    2.6800   -1.5142 C.3       3 GLC5        0.0000 
     43 CA         26.3500    2.5300    0.3220 C.3       9 GLL5        0.0000 
     44 CA         25.5820    3.5150   -3.1510 C.3       6 GLP5        0.0000 
     45 CA         27.0690    1.9655    1.8498 C.3       3 GLC5        0.0000 
     46 CA         22.6680    6.5803    1.3748 C.3       3 GLC5        0.0000 
     47 CA         23.2460    5.1820    2.7890 C.3       9 GLL5        0.0000 
     48 CA         22.8200    7.9580    0.2010 C.3       6 GLP5        0.0000 
     49 CA         22.6833    5.3941    5.1936 C.3       3 GLC5        0.0000 
     50 CA         22.0480    3.3580    3.8940 C.3       9 GLL5        0.0000 
     51 CA         23.4312    3.0116    6.1743 C.3       3 GLC5        0.0000 
     52 CA         23.0520    4.4390    4.1680 C.3       9 GLL5        0.0000 
     53 CA         23.4480    2.1080    7.9350 C.3       6 GLP5        0.0000 
@<TRIPOS>BOND
@<TRIPOS>SUBSTRUCTURE
     1 ALC1       18 GROUP        1 X    ALC  0     ROOT ALC X 1
     2 SEC2        6 GROUP        1 X    SEC  0     **** SEC X 2
     3 GLC5        1 GROUP        1 X    GLC  0     **** GLC X 6
     4 ALP1       20 GROUP        1 Y    ALP  0     ROOT ALP Y 8
     5 SEP2        8 GROUP        1 Y    SEP  0     **** SEP Y 9
     6 GLP5        3 GROUP        1 Y    GLP  0     **** GLP Y 13
     7 ALL1       19 GROUP        1 Z    ALL  0     ROOT ALL Z 15
     8 SEL2        7 GROUP        1 Z    SEL  0     **** SEL Z 16
     9 GLL5        2 GROUP        1 Z    GLL  0     **** GLL Z 20
@<TRIPOS>SET

