#    Name: 4k6z_1Q3_1_ligand
#    Modification time : Tue Mar 25 07:23:04 2014

@<TRIPOS>MOLECULE
4k6z_1Q3_1_ligand
   39    42     1     0     0
SMALL
NO_CHARGES


@<TRIPOS>ATOM
      1 C1         26.5510    6.3990    1.9700 C.3       1 1Q31201     0.0000 
      2 C2         27.8130    7.0090    1.9280 C.2       1 1Q31201     0.0000 
      3 N3         28.9070    6.4210    1.3690 N.2       1 1Q31201     0.0000 
      4 C5         28.8640    5.1080    0.7670 C.2       1 1Q31201     0.0000 
      5 O6         29.9070    4.6280    0.3230 O.2       1 1Q31201     0.0000 
      6 C7         27.5300    4.4170    0.7900 C.ar      1 1Q31201     0.0000 
      7 C8         26.3770    5.0720    1.3890 C.ar      1 1Q31201     0.0000 
      8 C9         25.2020    4.2420    1.3440 C.ar      1 1Q31201     0.0000 
      9 N10        25.2130    3.0190    0.8020 N.ar      1 1Q31201     0.0000 
     10 C11        26.3500    2.5300    0.3220 C.ar      1 1Q31201     0.0000 
     11 N12        27.5200    3.1710    0.2800 N.ar      1 1Q31201     0.0000 
     12 C13        26.1900    1.1600   -0.0770 C.2       1 1Q31201     0.0000 
     13 C14        27.0850    0.2750   -0.6410 C.2       1 1Q31201     0.0000 
     14 N15        26.4890   -0.9190   -0.7010 N.2       1 1Q31201     0.0000 
     15 N17        25.2250   -0.8870   -0.2310 N.pl3     1 1Q31201     0.0000 
     16 C18        25.0200    0.3660    0.1500 C.2       1 1Q31201     0.0000 
     17 N19        23.9740    4.3540    1.8680 N.pl3     1 1Q31201     0.0000 
     18 C20        23.2460    5.1820    2.7890 C.3       1 1Q31201     0.0000 
     19 C21        21.7860    5.2230    2.3080 C.3       1 1Q31201     0.0000 
     20 C22        21.0120    4.2540    3.2230 C.3       1 1Q31201     0.0000 
     21 C23        22.0480    3.3580    3.8940 C.3       1 1Q31201     0.0000 
     22 C24        23.0520    4.4390    4.1680 C.3       1 1Q31201     0.0000 
     23 C25        24.2790    3.9320    4.7960 C.1       1 1Q31201     0.0000 
     24 N26        25.2260    3.5860    5.3220 N.1       1 1Q31201     0.0000 
     25 H          25.7683    7.0916    1.4949 H         1 1Q31201     0.0000 
     26 H          26.1760    6.3554    3.0542 H         1 1Q31201     0.0000 
     27 H          27.9020    7.9685    2.3539 H         1 1Q31201     0.0000 
     28 H          27.9696    0.5012   -0.9295 H         1 1Q31201     0.0000 
     29 H          24.6181   -1.6197   -0.1881 H         1 1Q31201     0.0000 
     30 H          24.2153    0.7482    0.5337 H         1 1Q31201     0.0000 
     31 H          23.2456    3.5271    1.4629 H         1 1Q31201     0.0000 
     32 H          23.5873    6.1172    2.9496 H         1 1Q31201     0.0000 
     33 H          21.7312    4.8808    1.2999 H         1 1Q31201     0.0000 
     34 H          21.3979    6.2090    2.4246 H         1 1Q31201     0.0000 
     35 H          20.3482    3.6608    2.6277 H         1 1Q31201     0.0000 
     36 H          20.4818    4.8163    3.9644 H         1 1Q31201     0.0000 
     37 H          22.4197    2.6766    3.2064 H         1 1Q31201     0.0000 
     38 H          21.6633    2.9803    4.7798 H         1 1Q31201     0.0000 
     39 H          22.5542    5.1742    4.8249 H         1 1Q31201     0.0000 
@<TRIPOS>BOND
     1    2    1 1    
     2    7    1 1    
     3   25    1 1    
     4   26    1 1    
     5    3    2 2    
     6   27    2 1    
     7    4    3 1    
     8    5    4 2    
     9    6    4 1    
    10    7    6 ar   
    11   11    6 ar   
    12    8    7 ar   
    13    9    8 ar   
    14   17    8 1    
    15   10    9 ar   
    16   11   10 ar   
    17   12   10 1    
    18   13   12 1    
    19   16   12 2    
    20   14   13 2    
    21   28   13 1    
    22   15   14 1    
    23   16   15 1    
    24   29   15 1    
    25   30   16 1    
    26   18   17 1    
    27   31   17 1    
    28   19   18 1    
    29   22   18 1    
    30   32   18 1    
    31   20   19 1    
    32   33   19 1    
    33   34   19 1    
    34   21   20 1    
    35   35   20 1    
    36   36   20 1    
    37   22   21 1    
    38   37   21 1    
    39   38   21 1    
    40   23   22 1    
    41   39   22 1    
    42   24   23 3    
@<TRIPOS>SUBSTRUCTURE
     1 1Q31201     1 GROUP   
@<TRIPOS>SET

