#    Name: 1wsv_THH_2_INTS_M
#    Modification time : Tue Mar 25 09:17:49 2014

@<TRIPOS>MOLECULE
1wsv_THH_2_INTS_M
   78     0     9     0     0
SMALL
NO_CHARGES


@<TRIPOS>ATOM
      1 N          12.9725   17.7580    7.4865 N.am      2 SEC2        0.0000 
      2 N          12.1420   17.2300    6.2250 N.am      8 SEL2        0.0000 
      3 N          13.8030   18.2860    8.7480 N.am      5 SEP2        0.0000 
      4 CA          8.7785   16.9640    4.8615 C.3       3 GLC5        0.0000 
      5 CA          9.9240   16.2210    5.9920 C.3       9 GLL5        0.0000 
      6 CA          7.6330   17.7070    3.7310 C.3       6 GLP5        0.0000 
      7 CA          9.6635   18.3290    6.1405 C.3       3 GLC5        0.0000 
      8 CA          9.4030   20.4370    6.2890 C.3       6 GLP5        0.0000 
      9 CA          7.7525   16.0745    5.8540 C.3       3 GLC5        0.0000 
     10 CA          8.6430   14.2660    6.8370 C.3       9 GLL5        0.0000 
     11 CA          6.8620   17.8830    4.8710 C.3       6 GLP5        0.0000 
     12 CA          7.3165   13.0905    8.1745 C.3       3 GLC5        0.0000 
     13 CA          5.9900   11.9150    9.5120 C.3       6 GLP5        0.0000 
     14 CA          6.9395   14.3090    5.4485 C.3       3 GLC5        0.0000 
     15 CA          5.2360   14.3520    4.0600 C.3       6 GLP5        0.0000 
     16 N           5.8200   13.3845    6.1175 N.am      2 SEC2        0.0000 
     17 N           7.1350   12.7560    5.9260 N.am      8 SEL2        0.0000 
     18 N           4.5050   14.0130    6.3090 N.am      5 SEP2        0.0000 
     19 CA          7.2355   12.8480   12.3095 C.3       3 GLC5        0.0000 
     20 CA          8.8590   14.2590   12.6900 C.3       9 GLL5        0.0000 
     21 CA          5.6120   11.4370   11.9290 C.3       6 GLP5        0.0000 
     22 CA         10.9345   16.1880   13.6565 C.3       3 GLC5        0.0000 
     23 CA          9.9090   16.4490   15.2560 C.3       9 GLL5        0.0000 
     24 CA         11.9600   15.9270   12.0570 C.3       6 GLP5        0.0000 
     25 CA         11.5480   15.3530   15.6490 C.3       3 GLC5        0.0000 
     26 CA         13.1870   14.2570   16.0420 C.3       6 GLP5        0.0000 
     27 CA         11.7560   17.6090   15.3725 C.3       3 GLC5        0.0000 
     28 CA         13.6030   18.7690   15.4890 C.3       6 GLP5        0.0000 
     29 CA         11.9025   18.6235   16.2055 C.3       3 GLC5        0.0000 
     30 CA         10.2020   18.4780   16.9220 C.3       9 GLL5        0.0000 
     31 CA         11.1565   19.6740   18.0320 C.3       3 GLC5        0.0000 
     32 CA         12.1110   20.8700   19.1420 C.3       6 GLP5        0.0000 
     33 O          10.9310   20.5960   16.2980 O.2       1 ALC1        0.0000 
     34 O           9.9480   19.6760   16.1290 O.2       7 ALL1        0.0000 
     35 O          11.9140   21.5160   16.4670 O.2       4 ALP1        0.0000 
     36 CA          9.7205   19.9935   13.8050 C.3       3 GLC5        0.0000 
     37 CA          8.7710   19.9530   15.5230 C.3       9 GLL5        0.0000 
     38 CA         10.6700   20.0340   12.0870 C.3       6 GLP5        0.0000 
     39 CA          9.0065   21.8000   16.2000 C.3       3 GLC5        0.0000 
     40 CA          9.2420   23.6470   16.8770 C.3       6 GLP5        0.0000 
     41 CA          6.6990   18.8180   17.7530 C.3       3 GLC5        0.0000 
     42 CA          6.8340   16.9940   16.7720 C.3       9 GLL5        0.0000 
     43 CA          6.5640   20.6420   18.7340 C.3       6 GLP5        0.0000 
     44 CA          6.2320   15.5690   15.8260 C.3       3 GLC5        0.0000 
     45 CA          5.6300   14.1440   14.8800 C.3       6 GLP5        0.0000 
     46 CA          6.0930   20.5840   16.1970 C.3       3 GLC5        0.0000 
     47 CA          6.4460   19.4050   14.8670 C.3       9 GLL5        0.0000 
     48 CA          5.7400   21.7630   17.5270 C.3       6 GLP5        0.0000 
     49 CA          7.8525   19.7995   13.1805 C.3       3 GLC5        0.0000 
     50 CA          9.2590   20.1940   11.4940 C.3       6 GLP5        0.0000 
     51 CA          4.8525   18.0720   14.1475 C.3       3 GLC5        0.0000 
     52 CA          3.2590   16.7390   13.4280 C.3       6 GLP5        0.0000 
     53 N           4.2695   18.5915   15.8890 N.am      2 SEC2        0.0000 
     54 N           5.2560   18.8410   14.6780 N.am      8 SEL2        0.0000 
     55 N           3.2830   18.3420   17.1000 N.am      5 SEP2        0.0000 
     56 N           5.4205   21.3745   13.8350 N.am      2 SEC2        0.0000 
     57 N           6.5640   20.6620   14.3030 N.am      8 SEL2        0.0000 
     58 N           4.2770   22.0870   13.3670 N.am      5 SEP2        0.0000 
     59 CA          6.6770   21.6565   15.9075 C.3       3 GLC5        0.0000 
     60 CA          7.6140   21.5500   14.2880 C.3       9 GLL5        0.0000 
     61 CA          8.4365   20.8720   12.8910 C.3       3 GLC5        0.0000 
     62 CA          8.4280   22.5985   15.5825 C.3       3 GLC5        0.0000 
     63 O           6.4175   23.3715   13.5630 O.2       1 ALC1        0.0000 
     64 O           7.4760   22.7410   13.6490 O.2       7 ALL1        0.0000 
     65 O           5.3590   24.0020   13.4770 O.2       4 ALP1        0.0000 
     66 CA         11.1489   14.1420    6.7142 C.3       3 GLC5        0.0000 
     67 CA         13.0120   13.4160    6.9630 C.3       6 GLP5        0.0000 
     68 CA         10.2705   14.3755   10.6605 C.3       3 GLC5        0.0000 
     69 CA          8.2120   15.2830   10.4510 C.3       9 GLL5        0.0000 
     70 CA         12.1100   14.0120   10.4640 C.3       6 GLP5        0.0000 
     71 CA          7.2105   13.3270   10.1845 C.3       3 GLC5        0.0000 
     72 CA          8.6500   14.1950   11.2630 C.3       9 GLL5        0.0000 
     73 CA         10.3523   15.3930   12.5478 C.3       3 GLC5        0.0000 
     74 CA         10.0310   16.2070   11.9677 C.3       3 GLC5        0.0000 
     75 CA          8.2020   16.5210   12.5720 C.3       9 GLL5        0.0000 
     76 CA          8.6805   18.3405   11.6863 C.3       3 GLC5        0.0000 
     77 CA          7.3920   20.0400   17.1385 C.3       3 GLC5        0.0000 
     78 CA          7.6690   18.9230   15.5630 C.3       9 GLL5        0.0000 
@<TRIPOS>BOND
@<TRIPOS>SUBSTRUCTURE
     1 ALC1       33 GROUP        1 X    ALC  0     ROOT ALC X 1
     2 SEC2        1 GROUP        1 X    SEC  0     **** SEC X 2
     3 GLC5        4 GROUP        1 X    GLC  0     **** GLC X 6
     4 ALP1       35 GROUP        1 Y    ALP  0     ROOT ALP Y 8
     5 SEP2        3 GROUP        1 Y    SEP  0     **** SEP Y 9
     6 GLP5        6 GROUP        1 Y    GLP  0     **** GLP Y 13
     7 ALL1       34 GROUP        1 Z    ALL  0     ROOT ALL Z 15
     8 SEL2        2 GROUP        1 Z    SEL  0     **** SEL Z 16
     9 GLL5        5 GROUP        1 Z    GLL  0     **** GLL Z 20
@<TRIPOS>SET

