#    Name: 1wsv_THH_2_ligand
#    Modification time : Tue Mar 25 09:17:49 2014

@<TRIPOS>MOLECULE
1wsv_THH_2_ligand
   56    58     1     0     0
SMALL
NO_CHARGES


@<TRIPOS>ATOM
      1 OE1        11.5200   16.4120    4.2870 O.co2     1 THH4001     0.0000 
      2 CD         11.2860   16.6600    5.5070 C.2       1 THH4001     0.0000 
      3 OE2        12.1420   17.2300    6.2250 O.co2     1 THH4001     0.0000 
      4 CG          9.9240   16.2210    5.9920 C.3       1 THH4001     0.0000 
      5 CB          9.9330   14.7190    6.1960 C.3       1 THH4001     0.0000 
      6 CA          8.6430   14.2660    6.8370 C.3       1 THH4001     0.0000 
      7 CT          8.2360   12.8690    6.5060 C.2       1 THH4001     0.0000 
      8 O1          8.9640   11.9040    6.8040 O.co2     1 THH4001     0.0000 
      9 O2          7.1350   12.7560    5.9260 O.co2     1 THH4001     0.0000 
     10 N           8.7590   14.4180    8.2660 N.am      1 THH4001     0.0000 
     11 C           7.9710   15.2520    8.9580 C.2       1 THH4001     0.0000 
     12 O           7.0820   15.9790    8.5320 O.2       1 THH4001     0.0000 
     13 C12         8.2120   15.2830   10.4510 C.ar      1 THH4001     0.0000 
     14 C13         8.6500   14.1950   11.2630 C.ar      1 THH4001     0.0000 
     15 C14         8.8590   14.2590   12.6900 C.ar      1 THH4001     0.0000 
     16 C15         8.6300   15.4590   13.3870 C.ar      1 THH4001     0.0000 
     17 C16         8.2020   16.5210   12.5720 C.ar      1 THH4001     0.0000 
     18 C17         8.0020   16.4530   11.1850 C.ar      1 THH4001     0.0000 
     19 N10         8.7410   15.7530   14.6830 N.pl3     1 THH4001     0.0000 
     20 C9          9.9090   16.4490   15.2560 C.3       1 THH4001     0.0000 
     21 C6          9.3820   17.3330   16.3950 C.3       1 THH4001     0.0000 
     22 C7         10.2020   18.4780   16.9220 C.3       1 THH4001     0.0000 
     23 N8          9.9480   19.6760   16.1290 N.pl3     1 THH4001     0.0000 
     24 C8A         8.7710   19.9530   15.5230 C.ar      1 THH4001     0.0000 
     25 N1          8.7350   21.1830   14.9160 N.ar      1 THH4001     0.0000 
     26 C4A         7.6690   18.9230   15.5630 C.ar      1 THH4001     0.0000 
     27 N5          7.9610   17.7190   16.2380 N.3       1 THH4001     0.0000 
     28 C11         6.8340   16.9940   16.7720 C.3       1 THH4001     0.0000 
     29 C4          6.4460   19.4050   14.8670 C.ar      1 THH4001     0.0000 
     30 O4          5.2560   18.8410   14.6780 O.3       1 THH4001     0.0000 
     31 N3          6.5640   20.6620   14.3030 N.ar      1 THH4001     0.0000 
     32 C2          7.6140   21.5500   14.2880 C.ar      1 THH4001     0.0000 
     33 NA2         7.4760   22.7410   13.6490 N.pl3     1 THH4001     0.0000 
     34 H           9.1730   16.4808    5.2543 H         1 THH4001     0.0000 
     35 H           9.6958   16.7118    6.9316 H         1 THH4001     0.0000 
     36 H          10.7732   14.4471    6.8357 H         1 THH4001     0.0000 
     37 H          10.0540   14.2249    5.2315 H         1 THH4001     0.0000 
     38 H           7.8447   14.9488    6.4845 H         1 THH4001     0.0000 
     39 H           9.4917   13.8423    8.7355 H         1 THH4001     0.0000 
     40 H           8.8364   13.2747   10.7933 H         1 THH4001     0.0000 
     41 H           9.1738   13.4226   13.1793 H         1 THH4001     0.0000 
     42 H           8.0144   17.4531   13.0470 H         1 THH4001     0.0000 
     43 H           7.6839   17.3114   10.6843 H         1 THH4001     0.0000 
     44 H           7.9947   15.5025   15.3751 H         1 THH4001     0.0000 
     45 H          10.3817   17.0798   14.5218 H         1 THH4001     0.0000 
     46 H          10.6156   15.7462   15.6650 H         1 THH4001     0.0000 
     47 H           9.3366   16.5793   17.3222 H         1 THH4001     0.0000 
     48 H          11.2614   18.2037   16.8783 H         1 THH4001     0.0000 
     49 H           9.9394   18.6472   17.9717 H         1 THH4001     0.0000 
     50 H          10.7615   20.3427   16.0486 H         1 THH4001     0.0000 
     51 H           8.0991   22.9049   12.8842 H         1 THH4001     0.0000 
     52 H           6.7635   23.3486   13.9999 H         1 THH4001     0.0000 
     53 H           6.7907   16.0604   16.4163 H         1 THH4001     0.0000 
     54 H           6.8745   16.9263   17.7689 H         1 THH4001     0.0000 
     55 H           5.9663   17.4353   16.5432 H         1 THH4001     0.0000 
     56 H           4.9237   19.2213   13.8149 H         1 THH4001     0.0000 
@<TRIPOS>BOND
     1    2    1 ar   
     2    3    2 ar   
     3    4    2 1    
     4    5    4 1    
     5   34    4 1    
     6   35    4 1    
     7    6    5 1    
     8   36    5 1    
     9   37    5 1    
    10    7    6 1    
    11   10    6 1    
    12   38    6 1    
    13    8    7 ar   
    14    9    7 ar   
    15   11   10 am   
    16   39   10 1    
    17   12   11 2    
    18   13   11 1    
    19   14   13 ar   
    20   18   13 ar   
    21   15   14 ar   
    22   40   14 1    
    23   16   15 ar   
    24   41   15 1    
    25   17   16 ar   
    26   19   16 1    
    27   18   17 ar   
    28   42   17 1    
    29   43   18 1    
    30   20   19 1    
    31   44   19 1    
    32   21   20 1    
    33   45   20 1    
    34   46   20 1    
    35   22   21 1    
    36   27   21 1    
    37   47   21 1    
    38   23   22 1    
    39   48   22 1    
    40   49   22 1    
    41   24   23 1    
    42   50   23 1    
    43   25   24 ar   
    44   26   24 ar   
    45   32   25 ar   
    46   27   26 1    
    47   29   26 ar   
    48   28   27 1    
    49   53   28 1    
    50   54   28 1    
    51   55   28 1    
    52   30   29 1    
    53   31   29 ar   
    54   56   30 1    
    55   32   31 ar   
    56   33   32 1    
    57   51   33 1    
    58   52   33 1    
@<TRIPOS>SUBSTRUCTURE
     1 THH4001     1 GROUP   
@<TRIPOS>SET

