#    Name: 3kb6_NAD_2_INTS_M
#    Modification time : Mon Mar 24 19:06:22 2014

@<TRIPOS>MOLECULE
3kb6_NAD_2_INTS_M
   73     0     9     0     0
SMALL
NO_CHARGES


@<TRIPOS>ATOM
      1 N          -9.5085   -6.0910   61.3465 N.am      2 SEC2        0.0000 
      2 N          -8.4690   -6.1890   62.4280 N.am      8 SEL2        0.0000 
      3 N         -10.5480   -5.9930   60.2650 N.am      5 SEP2        0.0000 
      4 CA         -8.0140  -12.0530   60.1275 C.3       3 GLC5        0.0000 
      5 CA         -7.6840  -10.7940   61.9550 C.3       9 GLL5        0.0000 
      6 CA         -8.3440  -13.3120   58.3000 C.3       6 GLP5        0.0000 
      7 O         -10.2615  -12.8485   62.8945 O.2       1 ALC1        0.0000 
      8 O          -9.9250  -11.2650   62.6370 O.2       7 ALL1        0.0000 
      9 O         -10.5980  -14.4320   63.1520 O.2       4 ALP1        0.0000 
     10 O         -10.0955  -12.2640   61.9720 O.2       1 ALC1        0.0000 
     11 O         -10.2660  -13.2630   61.3070 O.2       4 ALP1        0.0000 
     12 O          -9.8570  -13.7045   63.8280 O.2       1 ALC1        0.0000 
     13 O          -9.1160  -12.9770   64.5040 O.2       7 ALL1        0.0000 
     14 O          -9.6910  -13.1200   62.9055 O.2       1 ALC1        0.0000 
     15 CA         -6.1270  -13.5095   61.0395 C.3       3 GLC5        0.0000 
     16 CA         -7.3860  -12.9360   62.7370 C.3       9 GLL5        0.0000 
     17 CA         -4.8680  -14.0830   59.3420 C.3       6 GLP5        0.0000 
     18 CA         -6.5385  -17.8305   64.2890 C.3       3 GLC5        0.0000 
     19 CA         -4.7080  -16.9840   63.3050 C.3       9 GLL5        0.0000 
     20 CA         -8.3690  -18.6770   65.2730 C.3       6 GLP5        0.0000 
     21 CA         -8.6955  -17.0625   61.5985 C.3       3 GLC5        0.0000 
     22 CA         -6.7370  -17.3820   62.0810 C.3       9 GLL5        0.0000 
     23 CA        -10.6540  -16.7430   61.1160 C.3       6 GLP5        0.0000 
     24 CA         -7.5530  -18.0295   63.6770 C.3       3 GLC5        0.0000 
     25 CA         -7.5815  -15.7630   64.4315 C.3       3 GLC5        0.0000 
     26 CA         -6.2410  -15.1910   62.8540 C.3       9 GLL5        0.0000 
     27 CA         -8.9220  -16.3350   66.0090 C.3       6 GLP5        0.0000 
     28 N          -8.4005   -5.8455   58.5140 N.am      2 SEC2        0.0000 
     29 N          -7.3210   -6.4370   59.3350 N.am      8 SEL2        0.0000 
     30 N          -9.4800   -5.2540   57.6930 N.am      5 SEP2        0.0000 
     31 CA         -4.9125   -5.6530   58.0845 C.3       3 GLC5        0.0000 
     32 CA         -4.3460   -7.1600   59.3750 C.3       9 GLL5        0.0000 
     33 CA         -5.4790   -4.1460   56.7940 C.3       6 GLP5        0.0000 
     34 CA         -2.7215   -4.6830   60.9850 C.3       3 GLC5        0.0000 
     35 CA         -2.1120   -6.2770   60.1080 C.3       9 GLL5        0.0000 
     36 CA         -3.3310   -3.0890   61.8620 C.3       6 GLP5        0.0000 
     37 CA          0.0720   -4.8795   60.9830 C.3       3 GLC5        0.0000 
     38 CA         -0.9250   -5.8930   59.2710 C.3       9 GLL5        0.0000 
     39 CA          1.0690   -3.8660   62.6950 C.3       6 GLP5        0.0000 
     40 CA         -0.9435   -7.4030   56.5785 C.3       3 GLC5        0.0000 
     41 CA         -1.4070   -5.9190   57.8050 C.3       9 GLL5        0.0000 
     42 CA         -0.4800   -8.8870   55.3520 C.3       6 GLP5        0.0000 
     43 CA         -0.6125   -6.6700   55.6615 C.3       3 GLC5        0.0000 
     44 CA         -0.7450   -4.4530   55.9710 C.3       9 GLL5        0.0000 
     45 N          -0.4655   -0.6745   52.7955 N.am      2 SEC2        0.0000 
     46 N           0.2400   -1.7950   53.6290 N.am      8 SEL2        0.0000 
     47 N          -1.1710    0.4460   51.9620 N.am      5 SEP2        0.0000 
     48 O          -0.3810   -5.3640   53.5645 O.2       1 ALC1        0.0000 
     49 O           0.2500   -4.1130   53.2050 O.2       7 ALL1        0.0000 
     50 O          -1.0120   -6.6150   53.9240 O.2       4 ALP1        0.0000 
     51 O           0.8080   -3.8025   51.8510 O.2       1 ALC1        0.0000 
     52 O           1.3660   -3.4920   50.4970 O.2       4 ALP1        0.0000 
     53 CA         -1.1970   -0.3640   55.0865 C.3       3 GLC5        0.0000 
     54 CA         -1.3620   -2.1140   55.9420 C.3       9 GLL5        0.0000 
     55 CA         -1.0320    1.3860   54.2310 C.3       6 GLP5        0.0000 
     56 CA         -5.3503  -10.5117   61.9913 C.3       3 GLC5        0.0000 
     57 CA         -3.4630  -10.8430   61.9810 C.3       6 GLP5        0.0000 
     58 CA         -9.3164   -9.4804   61.5739 C.3       3 GLC5        0.0000 
     59 CA         -6.7910   -9.5670   62.0480 C.3       9 GLL5        0.0000 
     60 CA        -10.6960   -8.3840   60.5790 C.3       6 GLP5        0.0000 
     61 CA         -5.2572  -14.7520   61.2383 C.3       3 GLC5        0.0000 
     62 CA         -3.0435  -16.1638   62.5330 C.3       3 GLC5        0.0000 
     63 CA         -5.0520  -15.6510   63.4150 C.3       9 GLL5        0.0000 
     64 CA         -1.2070  -16.0100   61.7060 C.3       6 GLP5        0.0000 
     65 CA         -1.8008   -8.5000   60.5897 C.3       3 GLC5        0.0000 
     66 CA         -2.8750   -7.1110   59.0910 C.3       9 GLL5        0.0000 
     67 CA         -1.1080  -10.3060   61.5800 C.3       6 GLP5        0.0000 
     68 CA         -2.3250   -2.3995   59.3783 C.3       3 GLC5        0.0000 
     69 CA         -2.0570   -2.3050   57.1490 C.3       9 GLL5        0.0000 
     70 CA         -2.5910   -1.8710   61.3090 C.3       6 GLP5        0.0000 
     71 CA         -2.7004   -2.1402   55.0977 C.3       3 GLC5        0.0000 
     72 CA         -3.8480   -1.7900   53.8030 C.3       6 GLP5        0.0000 
     73 CA         -3.7690   -3.5370   57.1208 C.3       3 GLC5        0.0000 
@<TRIPOS>BOND
@<TRIPOS>SUBSTRUCTURE
     1 ALC1        7 GROUP        1 X    ALC  0     ROOT ALC X 1
     2 SEC2        1 GROUP        1 X    SEC  0     **** SEC X 2
     3 GLC5        4 GROUP        1 X    GLC  0     **** GLC X 6
     4 ALP1        9 GROUP        1 Y    ALP  0     ROOT ALP Y 8
     5 SEP2        3 GROUP        1 Y    SEP  0     **** SEP Y 9
     6 GLP5        6 GROUP        1 Y    GLP  0     **** GLP Y 13
     7 ALL1        8 GROUP        1 Z    ALL  0     ROOT ALL Z 15
     8 SEL2        2 GROUP        1 Z    SEL  0     **** SEL Z 16
     9 GLL5        5 GROUP        1 Z    GLL  0     **** GLL Z 20
@<TRIPOS>SET

