#    Name: 3kb6_NAD_2_ligand
#    Modification time : Mon Mar 24 19:06:22 2014

@<TRIPOS>MOLECULE
3kb6_NAD_2_ligand
   70    74     1     0     0
SMALL
NO_CHARGES


@<TRIPOS>ATOM
      1 PA         -7.3130   -7.0890   62.4740 P.3       1 NAD400      0.0000 
      2 O1A        -6.6610   -7.2450   63.7810 O.co2     1 NAD400      0.0000 
      3 O2A        -8.4690   -6.1890   62.4280 O.co2     1 NAD400      0.0000 
      4 O5B        -7.5640   -8.4570   61.7480 O.3       1 NAD400      0.0000 
      5 C5B        -6.7910   -9.5670   62.0480 C.3       1 NAD400      0.0000 
      6 C4B        -7.6840  -10.7940   61.9550 C.3       1 NAD400      0.0000 
      7 O4B        -6.8410  -11.9100   61.9370 O.3       1 NAD400      0.0000 
      8 C3B        -8.6360  -10.9730   63.1360 C.3       1 NAD400      0.0000 
      9 O3B        -9.9250  -11.2650   62.6370 O.3       1 NAD400      0.0000 
     10 C2B        -8.0950  -12.1790   63.8790 C.3       1 NAD400      0.0000 
     11 O2B        -9.1160  -12.9770   64.5040 O.3       1 NAD400      0.0000 
     12 C1B        -7.3860  -12.9360   62.7370 C.3       1 NAD400      0.0000 
     13 N9A        -6.3130  -13.8610   63.1370 N.pl3     1 NAD400      0.0000 
     14 C8A        -5.2030  -13.5320   63.8460 C.2       1 NAD400      0.0000 
     15 N7A        -4.4090  -14.6170   64.0110 N.2       1 NAD400      0.0000 
     16 C5A        -5.0520  -15.6510   63.4150 C.ar      1 NAD400      0.0000 
     17 C6A        -4.7080  -16.9840   63.3050 C.ar      1 NAD400      0.0000 
     18 N6A        -3.6750  -17.4150   64.0210 N.pl3     1 NAD400      0.0000 
     19 N1A        -5.5480  -17.8460   62.6280 N.ar      1 NAD400      0.0000 
     20 C2A        -6.7370  -17.3820   62.0810 C.ar      1 NAD400      0.0000 
     21 N3A        -7.0790  -16.0470   62.2040 N.ar      1 NAD400      0.0000 
     22 C4A        -6.2410  -15.1910   62.8540 C.ar      1 NAD400      0.0000 
     23 O3         -6.1420   -6.4410   61.5740 O.3       1 NAD400      0.0000 
     24 PN         -6.3410   -5.6870   60.1510 P.3       1 NAD400      0.0000 
     25 O1N        -6.4750   -4.1990   60.3700 O.co2     1 NAD400      0.0000 
     26 O2N        -7.3210   -6.4370   59.3350 O.co2     1 NAD400      0.0000 
     27 O5D        -4.8050   -5.8540   59.6260 O.3       1 NAD400      0.0000 
     28 C5D        -4.3460   -7.1600   59.3750 C.3       1 NAD400      0.0000 
     29 C4D        -2.8750   -7.1110   59.0910 C.3       1 NAD400      0.0000 
     30 O4D        -2.7060   -6.4570   57.8110 O.3       1 NAD400      0.0000 
     31 C3D        -2.1120   -6.2770   60.1080 C.3       1 NAD400      0.0000 
     32 O3D        -1.7950   -6.9580   61.3170 O.3       1 NAD400      0.0000 
     33 C2D        -0.9250   -5.8930   59.2710 C.3       1 NAD400      0.0000 
     34 O2D         0.0640   -6.8700   59.3940 O.3       1 NAD400      0.0000 
     35 C1D        -1.4070   -5.9190   57.8050 C.3       1 NAD400      0.0000 
     36 N1N        -1.4000   -4.6090   57.1620 N.pl3     1 NAD400      0.0000 
     37 C2N        -0.7450   -4.4530   55.9710 C.ar      1 NAD400      0.0000 
     38 C3N        -0.7350   -3.2380   55.3300 C.ar      1 NAD400      0.0000 
     39 C7N        -0.0540   -3.0880   54.0020 C.2       1 NAD400      0.0000 
     40 O7N         0.2400   -1.7950   53.6290 O.2       1 NAD400      0.0000 
     41 N7N         0.2500   -4.1130   53.2050 N.am      1 NAD400      0.0000 
     42 C4N        -1.3620   -2.1140   55.9420 C.ar      1 NAD400      0.0000 
     43 C5N        -2.0570   -2.3050   57.1490 C.ar      1 NAD400      0.0000 
     44 C6N        -2.0610   -3.5510   57.7460 C.ar      1 NAD400      0.0000 
     45 H          -6.3784   -9.5379   63.0615 H         1 NAD400      0.0000 
     46 H          -5.9620   -9.7110   61.3478 H         1 NAD400      0.0000 
     47 H          -8.2628  -10.7372   61.0498 H         1 NAD400      0.0000 
     48 H          -8.5851  -10.1296   63.7478 H         1 NAD400      0.0000 
     49 H          -7.3354  -11.8433   64.5472 H         1 NAD400      0.0000 
     50 H          -8.1547  -13.4582   62.1759 H         1 NAD400      0.0000 
     51 H          -5.0064  -12.6393   64.1878 H         1 NAD400      0.0000 
     52 H          -3.2532  -16.7453   64.6322 H         1 NAD400      0.0000 
     53 H          -3.4126  -18.3702   63.8840 H         1 NAD400      0.0000 
     54 H          -7.3618  -18.0324   61.5849 H         1 NAD400      0.0000 
     55 H          -4.8476   -7.6117   58.5088 H         1 NAD400      0.0000 
     56 H          -4.5073   -7.8238   60.2348 H         1 NAD400      0.0000 
     57 H          -2.4702   -8.0928   59.0622 H         1 NAD400      0.0000 
     58 H          -2.6948   -5.3738   60.2559 H         1 NAD400      0.0000 
     59 H          -0.6121   -4.9238   59.5011 H         1 NAD400      0.0000 
     60 H          -0.7305   -6.5976   57.2717 H         1 NAD400      0.0000 
     61 H          -0.2489   -5.2610   55.5445 H         1 NAD400      0.0000 
     62 H           0.0436   -5.0241   53.5618 H         1 NAD400      0.0000 
     63 H           0.6570   -3.8783   52.3222 H         1 NAD400      0.0000 
     64 H          -1.3032   -1.2025   55.5104 H         1 NAD400      0.0000 
     65 H          -2.5549   -1.5170   57.5753 H         1 NAD400      0.0000 
     66 H          -2.5657   -3.6887   58.6399 H         1 NAD400      0.0000 
     67 H          -9.9653  -12.2632   62.5928 H         1 NAD400      0.0000 
     68 H          -9.8355  -13.0625   63.8148 H         1 NAD400      0.0000 
     69 H          -1.8859   -6.2673   62.0344 H         1 NAD400      0.0000 
     70 H          -0.0686   -7.2590   60.3056 H         1 NAD400      0.0000 
@<TRIPOS>BOND
     1    2    1 ar   
     2    3    1 ar   
     3    4    1 1    
     4   23    1 1    
     5    5    4 1    
     6    6    5 1    
     7   45    5 1    
     8   46    5 1    
     9    7    6 1    
    10    8    6 1    
    11   47    6 1    
    12   12    7 1    
    13    9    8 1    
    14   10    8 1    
    15   48    8 1    
    16   67    9 1    
    17   11   10 1    
    18   12   10 1    
    19   49   10 1    
    20   68   11 1    
    21   13   12 1    
    22   50   12 1    
    23   14   13 1    
    24   22   13 1    
    25   15   14 2    
    26   51   14 1    
    27   16   15 1    
    28   17   16 ar   
    29   22   16 ar   
    30   18   17 1    
    31   19   17 ar   
    32   52   18 1    
    33   53   18 1    
    34   20   19 ar   
    35   21   20 ar   
    36   54   20 1    
    37   22   21 ar   
    38   24   23 1    
    39   25   24 ar   
    40   26   24 ar   
    41   27   24 1    
    42   28   27 1    
    43   29   28 1    
    44   55   28 1    
    45   56   28 1    
    46   30   29 1    
    47   31   29 1    
    48   57   29 1    
    49   35   30 1    
    50   32   31 1    
    51   33   31 1    
    52   58   31 1    
    53   69   32 1    
    54   34   33 1    
    55   35   33 1    
    56   59   33 1    
    57   70   34 1    
    58   36   35 1    
    59   60   35 1    
    60   37   36 ar   
    61   44   36 ar   
    62   38   37 ar   
    63   61   37 1    
    64   39   38 1    
    65   42   38 ar   
    66   40   39 2    
    67   41   39 am   
    68   62   41 1    
    69   63   41 1    
    70   43   42 ar   
    71   64   42 1    
    72   44   43 ar   
    73   65   43 1    
    74   66   44 1    
@<TRIPOS>SUBSTRUCTURE
     1 NAD400      1 GROUP   
@<TRIPOS>SET

