#    Name: 3nu0_3TU_1_INTS_M
#    Modification time : Tue Mar 25 02:35:53 2014

@<TRIPOS>MOLECULE
3nu0_3TU_1_INTS_M
   56     0    12     0     0
SMALL
NO_CHARGES


@<TRIPOS>ATOM
      1 NZ        -14.6105   -2.3370   -0.3430 N.4       3 LYC4        0.0000 
      2 NZ        -13.6570   -3.5530   -0.8790 N.4      11 LYL4        0.0000 
      3 NZ        -16.6520   -1.8850    0.1710 N.4       7 LYP4        0.0000 
      4 N         -15.0925   -3.3365   -0.6000 N.am      2 SEC2        0.0000 
      5 N         -13.6570   -3.5530   -0.8790 N.am     10 SEL2        0.0000 
      6 N         -16.5280   -3.1200   -0.3210 N.am      6 SEP2        0.0000 
      7 N         -14.6105   -2.3370   -0.3430 N.am      2 SEC2        0.0000 
      8 N         -15.5640   -1.1210    0.1930 N.am      6 SEP2        0.0000 
      9 O         -12.8570  -12.0080   -4.5635 O.2       1 ALC1        0.0000 
     10 O         -13.6640  -12.0240   -3.4060 O.2       9 ALL1        0.0000 
     11 O         -12.0500  -11.9920   -5.7210 O.2       5 ALP1        0.0000 
     12 CA         -9.4710   -5.2910   -3.5915 C.3       4 GLC5        0.0000 
     13 CA         -9.3560   -3.4250   -2.8150 C.3      12 GLL5        0.0000 
     14 CA         -9.5860   -7.1570   -4.3680 C.3       8 GLP5        0.0000 
     15 O         -14.6350  -12.3535   -5.9200 O.2       1 ALC1        0.0000 
     16 O         -15.4650  -12.4200   -4.7900 O.2       9 ALL1        0.0000 
     17 O         -13.8050  -12.2870   -7.0500 O.2       5 ALP1        0.0000 
     18 CA         -9.9230  -12.2340   -0.2470 C.3       4 GLC5        0.0000 
     19 CA        -11.1210  -10.9830    0.4420 C.3      12 GLL5        0.0000 
     20 CA         -8.7250  -13.4850   -0.9360 C.3       8 GLP5        0.0000 
     21 CA         -9.9555  -10.5675   -0.8180 C.3       4 GLC5        0.0000 
     22 CA         -8.7900  -10.1520   -2.0780 C.3       8 GLP5        0.0000 
     23 CA        -10.5935   -6.4720   -2.5205 C.3       4 GLC5        0.0000 
     24 CA        -11.6010   -5.7870   -0.6730 C.3      12 GLL5        0.0000 
     25 CA        -13.1975   -6.4105   -1.1505 C.3       4 GLC5        0.0000 
     26 CA        -14.7940   -7.0340   -1.6280 C.3       8 GLP5        0.0000 
     27 CA        -12.6680   -4.9930    1.1320 C.3       4 GLC5        0.0000 
     28 CA        -13.7350   -4.1990    2.9370 C.3       8 GLP5        0.0000 
     29 CA        -18.0135  -11.3600   -0.7985 C.3       4 GLC5        0.0000 
     30 CA        -16.1840  -12.0430    0.1110 C.3      12 GLL5        0.0000 
     31 CA        -19.8430  -10.6770   -1.7080 C.3       8 GLP5        0.0000 
     32 CA        -17.4795  -11.2725    1.3670 C.3       4 GLC5        0.0000 
     33 CA        -18.7750  -10.5020    2.6230 C.3       8 GLP5        0.0000 
     34 NZ        -14.2280   -1.3200   -0.1525 N.4       3 LYC4        0.0000 
     35 NZ        -12.8920   -1.5190   -0.4980 N.4      11 LYL4        0.0000 
     36 N         -14.2280   -1.3200   -0.1525 N.am      2 SEC2        0.0000 
     37 N         -12.8920   -1.5190   -0.4980 N.am     10 SEL2        0.0000 
     38 CA        -16.6370  -13.6765   -1.5600 C.3       4 GLC5        0.0000 
     39 CA        -15.2540  -12.0370   -1.2730 C.3      12 GLL5        0.0000 
     40 CA        -17.5550  -15.3130   -2.5390 C.3       8 GLP5        0.0000 
     41 CA        -12.7188   -3.0753   -3.0000 C.3       4 GLC5        0.0000 
     42 CA        -11.3790   -3.2800   -1.1710 C.3      12 GLL5        0.0000 
     43 CA        -14.3330   -2.9760   -4.1540 C.3       8 GLP5        0.0000 
     44 CA        -14.7922  -11.5800    4.4602 C.3       4 GLC5        0.0000 
     45 CA        -13.8040  -10.8250    3.1170 C.3      12 GLL5        0.0000 
     46 CA        -15.1790  -12.1350    6.1320 C.3       8 GLP5        0.0000 
     47 CA        -12.5610   -9.3825    4.0888 C.3       4 GLC5        0.0000 
     48 CA        -11.9200   -7.9750    5.4150 C.3       8 GLP5        0.0000 
     49 CA         -8.0310   -7.1937    3.1335 C.3       4 GLC5        0.0000 
     50 CA         -8.8140   -6.7280    1.4770 C.3      12 GLL5        0.0000 
     51 CA         -7.1530   -6.9680    4.7050 C.3       8 GLP5        0.0000 
     52 CA        -16.8447  -10.9275    2.1938 C.3       4 GLC5        0.0000 
     53 CA        -15.0070  -11.2250    2.4600 C.3      12 GLL5        0.0000 
     54 CA         -9.9120   -6.2946    3.1390 C.3       4 GLC5        0.0000 
     55 CA         -9.0040   -8.1110    1.6470 C.3      12 GLL5        0.0000 
     56 CA        -10.5010   -5.8640    5.1360 C.3       8 GLP5        0.0000 
@<TRIPOS>BOND
@<TRIPOS>SUBSTRUCTURE
     1 ALC1        9 GROUP        1 X    ALC  0     ROOT ALC X 1
     2 SEC2        4 GROUP        1 X    SEC  0     **** SEC X 2
     3 LYC4        1 GROUP        1 X    LYC  0     **** LYC X 4
     4 GLC5       12 GROUP        1 X    GLC  0     **** GLC X 6
     5 ALP1       11 GROUP        1 Y    ALP  0     ROOT ALP Y 8
     6 SEP2        6 GROUP        1 Y    SEP  0     **** SEP Y 9
     7 LYP4        3 GROUP        1 Y    LYP  0     **** LYP Y 11
     8 GLP5       14 GROUP        1 Y    GLP  0     **** GLP Y 13
     9 ALL1       10 GROUP        1 Z    ALL  0     ROOT ALL Z 15
    10 SEL2        5 GROUP        1 Z    SEL  0     **** SEL Z 16
    11 LYL4        2 GROUP        1 Z    LYL  0     **** LYL Z 18
    12 GLL5       13 GROUP        1 Z    GLL  0     **** GLL Z 20
@<TRIPOS>SET

