#    Name: 3nu0_3TU_1_ligand
#    Modification time : Tue Mar 25 02:35:54 2014

@<TRIPOS>MOLECULE
3nu0_3TU_1_ligand
   55    59     1     0     0
SMALL
NO_CHARGES


@<TRIPOS>ATOM
      1 C         -12.7150   -2.7170   -0.8000 C.2       1 3TU188      0.0000 
      2 N         -10.9200   -4.4890   -0.4270 N.am      1 3TU188      0.0000 
      3 O         -13.6570   -3.5530   -0.8790 O.co2     1 3TU188      0.0000 
      4 N1        -13.6640  -12.0240   -3.4060 N.am      1 3TU188      0.0000 
      5 C2        -15.0040  -12.2290   -3.5430 C.2       1 3TU188      0.0000 
      6 N3        -15.8120  -12.3070   -2.4990 N.2       1 3TU188      0.0000 
      7 C4        -15.2540  -12.0370   -1.2730 C.2       1 3TU188      0.0000 
      8 C5        -13.8800  -11.6830   -1.0500 C.2       1 3TU188      0.0000 
      9 C6        -13.0960  -11.8380   -2.1810 C.2       1 3TU188      0.0000 
     10 O6        -11.7640  -11.7670   -2.2500 O.2       1 3TU188      0.0000 
     11 CA        -11.3790   -3.2800   -1.1710 C.3       1 3TU188      0.0000 
     12 CB        -10.8300   -3.0690   -2.5210 C.3       1 3TU188      0.0000 
     13 CD         -8.5330   -2.2280   -2.2440 C.2       1 3TU188      0.0000 
     14 CG         -9.3560   -3.4250   -2.8150 C.3       1 3TU188      0.0000 
     15 NAA       -15.4650  -12.4200   -4.7900 N.pl3     1 3TU188      0.0000 
     16 OAD        -9.0170   -3.7830    0.5060 O.2       1 3TU188      0.0000 
     17 CAH       -13.8040  -10.8250    3.1170 C.ar      1 3TU188      0.0000 
     18 CAI        -9.0040   -8.1110    1.6470 C.ar      1 3TU188      0.0000 
     19 CAJ       -12.6000  -10.7550    2.4080 C.ar      1 3TU188      0.0000 
     20 CAK        -8.8140   -6.7280    1.4770 C.ar      1 3TU188      0.0000 
     21 CAL       -15.0070  -11.2250    2.4600 C.ar      1 3TU188      0.0000 
     22 CAM       -10.9960   -8.1230    0.2530 C.ar      1 3TU188      0.0000 
     23 CAP       -11.1210  -10.9830    0.4420 C.3       1 3TU188      0.0000 
     24 CAQ       -11.6010   -5.7870   -0.6730 C.3       1 3TU188      0.0000 
     25 NAT       -10.1750  -10.1330    1.2440 N.pl3     1 3TU188      0.0000 
     26 SAU       -16.1840  -12.0430    0.1110 S.3       1 3TU188      0.0000 
     27 CAX        -9.8550   -4.6880    0.3270 C.2       1 3TU188      0.0000 
     28 CAZ       -10.0810   -8.8200    1.0580 C.ar      1 3TU188      0.0000 
     29 CBB       -10.7980   -6.7170    0.1110 C.ar      1 3TU188      0.0000 
     30 CBC       -12.4660  -11.0600    1.0690 C.ar      1 3TU188      0.0000 
     31 CBD        -9.7370   -6.0310    0.7220 C.ar      1 3TU188      0.0000 
     32 CBE       -14.8220  -11.4810    1.0690 C.ar      1 3TU188      0.0000 
     33 CBH       -13.6590  -11.4290    0.3240 C.ar      1 3TU188      0.0000 
     34 OE1        -9.1530   -1.1360   -2.1850 O.co2     1 3TU188      0.0000 
     35 OE2        -7.3150   -2.4060   -1.9310 O.co2     1 3TU188      0.0000 
     36 OXT       -12.8920   -1.5190   -0.4980 O.co2     1 3TU188      0.0000 
     37 H         -13.0576  -12.0090   -4.2595 H         1 3TU188      0.0000 
     38 H         -10.6458   -2.4146   -0.5379 H         1 3TU188      0.0000 
     39 H         -10.9731   -1.9862   -2.8247 H         1 3TU188      0.0000 
     40 H         -11.4604   -3.6281   -3.2795 H         1 3TU188      0.0000 
     41 H          -9.2026   -3.4849   -3.8610 H         1 3TU188      0.0000 
     42 H          -9.0896   -4.3090   -2.2964 H         1 3TU188      0.0000 
     43 H         -16.4405  -12.6241   -4.8720 H         1 3TU188      0.0000 
     44 H         -14.7915  -12.3411   -5.5250 H         1 3TU188      0.0000 
     45 H         -13.8360  -10.5907    4.1128 H         1 3TU188      0.0000 
     46 H          -8.3246   -8.6431    2.2318 H         1 3TU188      0.0000 
     47 H         -11.7382  -10.4465    2.9415 H         1 3TU188      0.0000 
     48 H          -8.0172   -6.2658    1.9020 H         1 3TU188      0.0000 
     49 H         -15.8570  -11.3128    2.9111 H         1 3TU188      0.0000 
     50 H         -11.7567   -8.5817   -0.2054 H         1 3TU188      0.0000 
     51 H         -10.6986  -11.9947    0.3425 H         1 3TU188      0.0000 
     52 H         -11.2071  -10.5651   -0.5728 H         1 3TU188      0.0000 
     53 H         -11.5603   -6.0270   -1.7130 H         1 3TU188      0.0000 
     54 H         -12.6044   -5.7452   -0.3093 H         1 3TU188      0.0000 
     55 H          -9.6136  -10.6538    1.9418 H         1 3TU188      0.0000 
@<TRIPOS>BOND
     1    3    1 ar   
     2   11    1 1    
     3   36    1 ar   
     4   11    2 1    
     5   24    2 1    
     6   27    2 am   
     7    5    4 1    
     8    9    4 am   
     9   37    4 1    
    10    6    5 2    
    11   15    5 1    
    12    7    6 1    
    13    8    7 2    
    14   26    7 1    
    15    9    8 1    
    16   33    8 1    
    17   10    9 2    
    18   12   11 1    
    19   38   11 1    
    20   14   12 1    
    21   39   12 1    
    22   40   12 1    
    23   14   13 1    
    24   34   13 ar   
    25   35   13 ar   
    26   41   14 1    
    27   42   14 1    
    28   43   15 1    
    29   44   15 1    
    30   27   16 2    
    31   19   17 ar   
    32   21   17 ar   
    33   45   17 1    
    34   20   18 ar   
    35   28   18 ar   
    36   46   18 1    
    37   30   19 ar   
    38   47   19 1    
    39   31   20 ar   
    40   48   20 1    
    41   32   21 ar   
    42   49   21 1    
    43   28   22 ar   
    44   29   22 ar   
    45   50   22 1    
    46   25   23 1    
    47   30   23 1    
    48   51   23 1    
    49   52   23 1    
    50   29   24 1    
    51   53   24 1    
    52   54   24 1    
    53   28   25 1    
    54   55   25 1    
    55   32   26 1    
    56   31   27 1    
    57   31   29 ar   
    58   33   30 ar   
    59   33   32 ar   
@<TRIPOS>SUBSTRUCTURE
     1 3TU188      1 GROUP   
@<TRIPOS>SET

