#    Name: 3kfc_61X_2_INTS_M
#    Modification time : Mon Mar 24 19:26:14 2014

@<TRIPOS>MOLECULE
3kfc_61X_2_INTS_M
   82     0     6     0     0
SMALL
NO_CHARGES


@<TRIPOS>ATOM
      1 CA         48.2295   29.9135   45.3430 C.3       2 GLC5        0.0000 
      2 CA         47.7890   28.1750   45.0510 C.3       6 GLL5        0.0000 
      3 CA         48.6700   31.6520   45.6350 C.3       4 GLP5        0.0000 
      4 CA         47.0870   27.9610   46.7810 C.3       2 GLC5        0.0000 
      5 CA         46.3850   27.7470   48.5110 C.3       4 GLP5        0.0000 
      6 CA         49.1010   27.1140   45.7295 C.3       2 GLC5        0.0000 
      7 CA         50.4130   26.0530   46.4080 C.3       4 GLP5        0.0000 
      8 CA         42.3610   40.4035   41.4620 C.3       2 GLC5        0.0000 
      9 CA         44.3460   40.9410   41.7000 C.3       6 GLL5        0.0000 
     10 CA         40.3760   39.8660   41.2240 C.3       4 GLP5        0.0000 
     11 N          42.3585   39.1730   41.6190 N.am      1 SEC2        0.0000 
     12 N          43.1340   38.5230   42.6650 N.am      5 SEL2        0.0000 
     13 N          41.5830   39.8230   40.5730 N.am      3 SEP2        0.0000 
     14 CA         41.4080   40.1925   44.2170 C.3       2 GLC5        0.0000 
     15 CA         43.2000   41.2170   43.4890 C.3       6 GLL5        0.0000 
     16 CA         39.6160   39.1680   44.9450 C.3       4 GLP5        0.0000 
     17 CA         41.7880   40.5415   42.3565 C.3       2 GLC5        0.0000 
     18 CA         41.9835   42.2040   44.0620 C.3       2 GLC5        0.0000 
     19 CA         40.7670   43.1910   44.6350 C.3       4 GLP5        0.0000 
     20 N          46.9630   25.4620   46.3450 N.am      1 SEC2        0.0000 
     21 N          46.3240   25.9860   45.2250 N.am      5 SEL2        0.0000 
     22 N          47.6020   24.9380   47.4650 N.am      3 SEP2        0.0000 
     23 CA         46.6020   42.2610   44.7510 C.3       2 GLC5        0.0000 
     24 CA         45.1880   42.0390   43.3960 C.3       6 GLL5        0.0000 
     25 CA         48.0160   42.4830   46.1060 C.3       4 GLP5        0.0000 
     26 CA         41.6045   27.3355   42.5125 C.3       2 GLC5        0.0000 
     27 CA         42.9090   28.2720   43.5610 C.3       6 GLL5        0.0000 
     28 CA         40.3000   26.3990   41.4640 C.3       4 GLP5        0.0000 
     29 CA         40.9680   28.3940   44.4585 C.3       2 GLC5        0.0000 
     30 CA         39.0270   28.5160   45.3560 C.3       4 GLP5        0.0000 
     31 CA         41.7235   30.1980   41.6675 C.3       2 GLC5        0.0000 
     32 CA         43.1030   29.6430   43.3510 C.3       6 GLL5        0.0000 
     33 CA         40.3440   30.7530   39.9840 C.3       4 GLP5        0.0000 
     34 CA         47.0795   30.4875   44.6790 C.3       2 GLC5        0.0000 
     35 CA         45.4890   29.3230   43.7230 C.3       6 GLL5        0.0000 
     36 CA         46.0765   32.9020   42.9490 C.3       2 GLC5        0.0000 
     37 CA         44.6780   32.4360   44.1710 C.3       6 GLL5        0.0000 
     38 CA         47.4750   33.3680   41.7270 C.3       4 GLP5        0.0000 
     39 CA         46.5300   32.4690   47.1995 C.3       2 GLC5        0.0000 
     40 CA         44.7920   33.4090   46.3540 C.3       6 GLL5        0.0000 
     41 CA         48.2680   31.5290   48.0450 C.3       4 GLP5        0.0000 
     42 CA         43.7820   33.7045   41.6495 C.3       2 GLC5        0.0000 
     43 CA         44.3710   33.6700   43.6010 C.3       6 GLL5        0.0000 
     44 CA         43.1930   33.7390   39.6980 C.3       4 GLP5        0.0000 
     45 CA         43.0000   34.9545   41.3490 C.3       2 GLC5        0.0000 
     46 CA         42.8070   36.1700   43.0000 C.3       6 GLL5        0.0000 
     47 CA         41.4135   38.6235   41.8365 C.3       2 GLC5        0.0000 
     48 CA         42.4510   37.3810   42.4490 C.3       6 GLL5        0.0000 
     49 CA         47.9740   37.1530   44.3860 C.3       2 GLC5        0.0000 
     50 CA         45.8670   37.3430   44.8820 C.3       6 GLL5        0.0000 
     51 CA         50.0810   36.9630   43.8900 C.3       4 GLP5        0.0000 
     52 CA         44.7455   39.7155   40.9753 C.3       2 GLC5        0.0000 
     53 CA         45.0880   38.4850   39.5740 C.3       4 GLP5        0.0000 
     54 CA         45.5685   29.1975   41.9935 C.3       2 GLC5        0.0000 
     55 CA         45.7520   29.7490   40.1640 C.3       4 GLP5        0.0000 
     56 CA         42.9445   26.4110   44.9382 C.3       2 GLC5        0.0000 
     57 CA         42.4370   24.9710   46.1760 C.3       4 GLP5        0.0000 
     58 CA         43.9695   41.1343   45.1938 C.3       2 GLC5        0.0000 
     59 CA         44.4600   40.9510   43.0530 C.3       6 GLL5        0.0000 
     60 CA         43.4300   40.7070   47.0540 C.3       4 GLP5        0.0000 
     61 CA         43.5484   42.3601   41.5962 C.3       2 GLC5        0.0000 
     62 CA         42.6020   43.1600   40.0280 C.3       4 GLP5        0.0000 
     63 CA         45.4928   43.1853   42.8716 C.3       2 GLC5        0.0000 
     64 CA         46.1900   44.8780   42.8570 C.3       4 GLP5        0.0000 
     65 CA         46.2702   41.7013   41.8631 C.3       2 GLC5        0.0000 
     66 CA         47.7450   41.9100   40.8400 C.3       4 GLP5        0.0000 
     67 CA         44.7540   29.8212   41.7820 C.3       2 GLC5        0.0000 
     68 CA         44.4090   30.1440   43.4490 C.3       6 GLL5        0.0000 
     69 CA         46.7295   32.0062   45.2458 C.3       2 GLC5        0.0000 
     70 CA         45.7403   34.5422   42.8545 C.3       2 GLC5        0.0000 
     71 CA         47.1520   34.8470   41.7080 C.3       4 GLP5        0.0000 
     72 CA         41.2225   36.6287   41.3672 C.3       2 GLC5        0.0000 
     73 CA         39.8160   36.4820   40.0100 C.3       4 GLP5        0.0000 
     74 CA         44.0145   39.8967   45.3123 C.3       2 GLC5        0.0000 
     75 CA         44.2370   38.4950   43.4600 C.3       6 GLL5        0.0000 
     76 CA         47.1373   37.2883   46.4737 C.3       2 GLC5        0.0000 
     77 CA         46.5680   38.5260   45.1030 C.3       6 GLL5        0.0000 
     78 CA         48.0570   36.6420   47.9550 C.3       4 GLP5        0.0000 
     79 CA         46.1239   35.9345   43.0602 C.3       2 GLC5        0.0000 
     80 CA         48.1980   39.3123   44.4350 C.3       2 GLC5        0.0000 
     81 CA         50.0580   39.5170   44.0680 C.3       4 GLP5        0.0000 
     82 CA         44.8840   39.9073   45.9280 C.3       2 GLC5        0.0000 
@<TRIPOS>BOND
@<TRIPOS>SUBSTRUCTURE
     1 SEC2       11 GROUP        1 X    SEC  0     ROOT SEC X 2
     2 GLC5        1 GROUP        1 X    GLC  0     **** GLC X 6
     3 SEP2       13 GROUP        1 Y    SEP  0     ROOT SEP Y 9
     4 GLP5        3 GROUP        1 Y    GLP  0     **** GLP Y 13
     5 SEL2       12 GROUP        1 Z    SEL  0     ROOT SEL Z 16
     6 GLL5        2 GROUP        1 Z    GLL  0     **** GLL Z 20
@<TRIPOS>SET

