#    Name: 3kfc_61X_2_ligand
#    Modification time : Mon Mar 24 19:26:14 2014

@<TRIPOS>MOLECULE
3kfc_61X_2_ligand
   47    50     1     0     0
SMALL
NO_CHARGES


@<TRIPOS>ATOM
      1 C1         47.7890   28.1750   45.0510 C.3       1 61X1        0.0000 
      2 F1         44.3460   40.9410   41.7000 F         1 61X1        0.0000 
      3 N1         43.1340   38.5230   42.6650 N.ar      1 61X1        0.0000 
      4 O1         47.3360   26.6580   43.0290 O.2       1 61X1        0.0000 
      5 S1         46.7100   27.0040   44.2800 S.o2      1 61X1        0.0000 
      6 C2         45.2810   27.9690   43.9230 C.ar      1 61X1        0.0000 
      7 F2         43.2000   41.2170   43.4890 F         1 61X1        0.0000 
      8 O2         46.3240   25.9860   45.2250 O.2       1 61X1        0.0000 
      9 C3         43.9950   27.4300   43.8400 C.ar      1 61X1        0.0000 
     10 F3         45.1880   42.0390   43.3960 F         1 61X1        0.0000 
     11 O3         44.7630   31.4450   43.2310 O.3       1 61X1        0.0000 
     12 C4         42.9090   28.2720   43.5610 C.ar      1 61X1        0.0000 
     13 C5         43.1030   29.6430   43.3510 C.ar      1 61X1        0.0000 
     14 C6         44.4090   30.1440   43.4490 C.ar      1 61X1        0.0000 
     15 C7         45.4890   29.3230   43.7230 C.ar      1 61X1        0.0000 
     16 C8         44.6780   32.4360   44.1710 C.ar      1 61X1        0.0000 
     17 C9         44.9000   32.2850   45.5420 C.ar      1 61X1        0.0000 
     18 C10        44.7920   33.4090   46.3540 C.ar      1 61X1        0.0000 
     19 C11        44.4740   34.6580   45.7910 C.ar      1 61X1        0.0000 
     20 C12        44.2860   34.8050   44.4010 C.ar      1 61X1        0.0000 
     21 C13        44.3710   33.6700   43.6010 C.ar      1 61X1        0.0000 
     22 C14        43.9470   36.1080   43.8180 C.ar      1 61X1        0.0000 
     23 C15        42.8070   36.1700   43.0000 C.ar      1 61X1        0.0000 
     24 C16        42.4510   37.3810   42.4490 C.ar      1 61X1        0.0000 
     25 C17        44.2370   38.4950   43.4600 C.ar      1 61X1        0.0000 
     26 C18        44.7020   37.2940   44.0680 C.ar      1 61X1        0.0000 
     27 C19        45.8670   37.3430   44.8820 C.ar      1 61X1        0.0000 
     28 C20        46.5680   38.5260   45.1030 C.ar      1 61X1        0.0000 
     29 C21        46.1080   39.6890   44.5010 C.ar      1 61X1        0.0000 
     30 C22        44.9610   39.6780   43.6810 C.ar      1 61X1        0.0000 
     31 C23        44.4600   40.9510   43.0530 C.3       1 61X1        0.0000 
     32 H          43.8441   26.4290   43.9813 H         1 61X1        0.0000 
     33 H          41.9594   27.8775   43.5102 H         1 61X1        0.0000 
     34 H          42.3269   30.2526   43.1356 H         1 61X1        0.0000 
     35 H          46.4363   29.7146   43.7775 H         1 61X1        0.0000 
     36 H          45.1338   31.3778   45.9324 H         1 61X1        0.0000 
     37 H          44.9433   33.3341   47.3664 H         1 61X1        0.0000 
     38 H          44.3763   35.4811   46.4033 H         1 61X1        0.0000 
     39 H          44.2074   33.7406   42.5886 H         1 61X1        0.0000 
     40 H          42.2611   35.3266   42.8248 H         1 61X1        0.0000 
     41 H          41.5937   37.4036   41.8245 H         1 61X1        0.0000 
     42 H          46.1959   36.4613   45.3205 H         1 61X1        0.0000 
     43 H          47.3974   38.5352   45.6921 H         1 61X1        0.0000 
     44 H          46.6068   40.5809   44.6500 H         1 61X1        0.0000 
     45 H          48.6986   27.7920   45.2120 H         1 61X1        0.0000 
     46 H          47.9108   28.9935   44.4896 H         1 61X1        0.0000 
     47 H          47.4371   28.4770   45.9370 H         1 61X1        0.0000 
@<TRIPOS>BOND
     1    5    1 1    
     2   45    1 1    
     3   46    1 1    
     4   47    1 1    
     5   31    2 1    
     6   24    3 ar   
     7   25    3 ar   
     8    5    4 2    
     9    6    5 1    
    10    8    5 2    
    11    9    6 ar   
    12   15    6 ar   
    13   31    7 1    
    14   12    9 ar   
    15   32    9 1    
    16   31   10 1    
    17   14   11 1    
    18   16   11 1    
    19   13   12 ar   
    20   33   12 1    
    21   14   13 ar   
    22   34   13 1    
    23   15   14 ar   
    24   35   15 1    
    25   17   16 ar   
    26   21   16 ar   
    27   18   17 ar   
    28   36   17 1    
    29   19   18 ar   
    30   37   18 1    
    31   20   19 ar   
    32   38   19 1    
    33   21   20 ar   
    34   22   20 1    
    35   39   21 1    
    36   23   22 ar   
    37   26   22 ar   
    38   24   23 ar   
    39   40   23 1    
    40   41   24 1    
    41   26   25 ar   
    42   30   25 ar   
    43   27   26 ar   
    44   28   27 ar   
    45   42   27 1    
    46   29   28 ar   
    47   43   28 1    
    48   30   29 ar   
    49   44   29 1    
    50   31   30 1    
@<TRIPOS>SUBSTRUCTURE
     1 61X1        1 GROUP   
@<TRIPOS>SET

