#    Name: 3q43_D66_1_INTS_M
#    Modification time : Tue Mar 25 08:52:26 2014

@<TRIPOS>MOLECULE
3q43_D66_1_INTS_M
   81     0    15     0     0
SMALL
NO_CHARGES


@<TRIPOS>ATOM
      1 CA         11.6940    8.8925   21.0845 C.3       5 GLC5        0.0000 
      2 CA         12.7870    9.3880   19.3530 C.3      15 GLL5        0.0000 
      3 CA         10.6010    8.3970   22.8160 C.3      10 GLP5        0.0000 
      4 CA         11.3010    8.6725   18.5600 C.3       5 GLC5        0.0000 
      5 CA          9.8150    7.9570   17.7670 C.3      10 GLP5        0.0000 
      6 OD1        10.9690   13.4150   13.1390 O.co2     3 ASC3        0.0000 
      7 OD1        11.7900   12.7360   12.2200 O.co2    13 ASL3        0.0000 
      8 OD1        10.1480   14.0940   14.0580 O.co2     8 ASP3        0.0000 
      9 OD1        10.2395   12.6165   13.3485 O.co2     3 ASC3        0.0000 
     10 OD1         8.6890   12.4970   14.4770 O.co2     8 ASP3        0.0000 
     11 OD1        11.8115   13.9235   11.4560 O.co2     3 ASC3        0.0000 
     12 OD1        11.8330   15.1110   10.6920 O.co2     8 ASP3        0.0000 
     13 OD1        10.7210   13.8610   11.3605 O.co2     3 ASC3        0.0000 
     14 OD1         9.6520   14.9860   10.5010 O.co2     8 ASP3        0.0000 
     15 OD1        10.9370   11.7345   11.5295 O.co2     3 ASC3        0.0000 
     16 OD1        10.0840   10.7330   10.8390 O.co2     8 ASP3        0.0000 
     17 O          10.9690   13.4150   13.1390 O.2       1 ALC1        0.0000 
     18 O          11.7900   12.7360   12.2200 O.2      11 ALL1        0.0000 
     19 O          10.1480   14.0940   14.0580 O.2       6 ALP1        0.0000 
     20 O          11.8115   13.9235   11.4560 O.2       1 ALC1        0.0000 
     21 O          11.8330   15.1110   10.6920 O.2       6 ALP1        0.0000 
     22 O          10.9370   11.7345   11.5295 O.2       1 ALC1        0.0000 
     23 O          10.0840   10.7330   10.8390 O.2       6 ALP1        0.0000 
     24 O          16.1915   12.1240    9.8515 O.2       1 ALC1        0.0000 
     25 O          16.0230   10.9360   10.6630 O.2      11 ALL1        0.0000 
     26 O          16.3600   13.3120    9.0400 O.2       6 ALP1        0.0000 
     27 Zn         12.7920   11.6820    9.5665 Zn        4 ZIC7        0.0000 
     28 Zn         13.3370   12.3110   10.0810 Zn       14 ZIL7        0.0000 
     29 Zn         12.2470   11.0530    9.0520 Zn        9 ZIP7        0.0000 
     30 O          13.8970   13.3270    9.4345 O.2       1 ALC1        0.0000 
     31 O          13.3370   12.3110   10.0810 O.2      11 ALL1        0.0000 
     32 O          14.4570   14.3430    8.7880 O.2       6 ALP1        0.0000 
     33 O          14.8485   12.8115    9.5605 O.2       1 ALC1        0.0000 
     34 N          13.5115    9.1950   12.3150 N.am      2 SEC2        0.0000 
     35 N          14.6360    9.8690   11.9850 N.am     12 SEL2        0.0000 
     36 N          12.3870    8.5210   12.6450 N.am      7 SEP2        0.0000 
     37 N          19.3020   10.1935   13.0890 N.am      2 SEC2        0.0000 
     38 N          18.7290    8.9920   12.1680 N.am     12 SEL2        0.0000 
     39 N          19.8750   11.3950   14.0100 N.am      7 SEP2        0.0000 
     40 N          20.2820    9.0870   11.5865 N.am      2 SEC2        0.0000 
     41 N          21.8350    9.1820   11.0050 N.am      7 SEP2        0.0000 
     42 N          18.7755   11.1305   13.3790 N.am      2 SEC2        0.0000 
     43 N          17.6760   10.8660   12.7480 N.am     12 SEL2        0.0000 
     44 N          18.3250   12.2445   12.5660 N.am      2 SEC2        0.0000 
     45 N          18.9740   13.6230   12.3840 N.am      7 SEP2        0.0000 
     46 CA         14.1355   11.7855    9.1100 C.3       5 GLC5        0.0000 
     47 CA         14.0170   12.1470   11.3230 C.3      15 GLL5        0.0000 
     48 CA         14.2540   11.4240    6.8970 C.3      10 GLP5        0.0000 
     49 CA         19.4920   10.3270    8.5215 C.3       5 GLC5        0.0000 
     50 CA         17.7300    9.6240    9.4720 C.3      15 GLL5        0.0000 
     51 CA         21.2540   11.0300    7.5710 C.3      10 GLP5        0.0000 
     52 CA         14.7810    6.6315    7.4835 C.3       5 GLC5        0.0000 
     53 CA         16.4860    7.5980    8.5350 C.3      15 GLL5        0.0000 
     54 CA         13.0760    5.6650    6.4320 C.3      10 GLP5        0.0000 
     55 CA         14.7905    7.3485    9.7165 C.3       5 GLC5        0.0000 
     56 CA         13.0950    7.0990   10.8980 C.3      10 GLP5        0.0000 
     57 CA         19.0495    8.6380    5.7825 C.3       5 GLC5        0.0000 
     58 CA         17.9590    9.0950    7.1010 C.3      15 GLL5        0.0000 
     59 CA         20.1400    8.1810    4.4640 C.3      10 GLP5        0.0000 
     60 CA         19.6065   10.0625    7.3360 C.3       5 GLC5        0.0000 
     61 CA         16.9680   10.1680    6.0230 C.3       5 GLC5        0.0000 
     62 CA         15.9770   11.2410    4.9450 C.3      10 GLP5        0.0000 
     63 CA         15.3690   11.5075   15.5330 C.3       5 GLC5        0.0000 
     64 CA         13.4760   10.7600   15.3290 C.3      15 GLL5        0.0000 
     65 CA         17.2620   12.2550   15.7370 C.3      10 GLP5        0.0000 
     66 CA         15.2295   10.2150   16.9090 C.3       5 GLC5        0.0000 
     67 CA         13.1640   10.2960   16.6280 C.3      15 GLL5        0.0000 
     68 CA         17.2950   10.1340   17.1900 C.3      10 GLP5        0.0000 
     69 CA         12.4220    8.3870   16.7565 C.3       5 GLC5        0.0000 
     70 CA         11.6800    6.4780   16.8850 C.3      10 GLP5        0.0000 
     71 CA         11.4240   14.0623   16.6025 C.3       5 GLC5        0.0000 
     72 CA         12.7540   12.5200   17.3410 C.3      15 GLL5        0.0000 
     73 CA          9.9450   15.3610   16.5100 C.3      10 GLP5        0.0000 
     74 CA         15.3749   12.4420   15.1721 C.3       5 GLC5        0.0000 
     75 CA         13.0520   13.0070   16.0490 C.3      15 GLL5        0.0000 
     76 CA         12.9799   14.4660   14.3556 C.3       5 GLC5        0.0000 
     77 CA         13.4110   12.1250   15.0400 C.3      15 GLL5        0.0000 
     78 CA         12.4720   16.3030   14.1040 C.3      10 GLP5        0.0000 
     79 CA         15.8355    9.5392    7.1615 C.3       5 GLC5        0.0000 
     80 CA         16.9920    9.0190    8.2750 C.3      15 GLL5        0.0000 
     81 CA         14.9320   10.7700    5.9180 C.3      10 GLP5        0.0000 
@<TRIPOS>BOND
@<TRIPOS>SUBSTRUCTURE
     1 ALC1       17 GROUP        1 X    ALC  0     ROOT ALC X 1
     2 SEC2       34 GROUP        1 X    SEC  0     **** SEC X 2
     3 ASC3        6 GROUP        1 X    ASC  0     **** ASC X 3
     4 ZIC7       27 GROUP        1 X    ZIC  0     **** ZIC X 5
     5 GLC5        1 GROUP        1 X    GLC  0     **** GLC X 6
     6 ALP1       19 GROUP        1 Y    ALP  0     ROOT ALP Y 8
     7 SEP2       36 GROUP        1 Y    SEP  0     **** SEP Y 9
     8 ASP3        8 GROUP        1 Y    ASP  0     **** ASP Y 10
     9 ZIP7       29 GROUP        1 Y    ZIP  0     **** ZIP Y 12
    10 GLP5        3 GROUP        1 Y    GLP  0     **** GLP Y 13
    11 ALL1       18 GROUP        1 Z    ALL  0     ROOT ALL Z 15
    12 SEL2       35 GROUP        1 Z    SEL  0     **** SEL Z 16
    13 ASL3        7 GROUP        1 Z    ASL  0     **** ASL Z 17
    14 ZIL7       28 GROUP        1 Z    ZIL  0     **** ZIL Z 19
    15 GLL5        2 GROUP        1 Z    GLL  0     **** GLL Z 20
@<TRIPOS>SET

