#    Name: 3q43_D66_1_ligand
#    Modification time : Tue Mar 25 08:52:26 2014

@<TRIPOS>MOLECULE
3q43_D66_1_ligand
   50    50     1     0     0
SMALL
NO_CHARGES


@<TRIPOS>ATOM
      1 C1         12.7870    9.3880   19.3530 C.3       1 D661087     0.0000 
      2 N1         11.7900   12.7360   12.2200 N.4       1 D661087     0.0000 
      3 O1         12.4990   10.7280   18.9290 O.3       1 D661087     0.0000 
      4 C2         12.7980   11.1710   17.6370 C.ar      1 D661087     0.0000 
      5 N2         16.0230   10.9360   10.6630 N.am      1 D661087     0.0000 
      6 O2         13.3370   12.3110   10.0810 O.3       1 D661087     0.0000 
      7 C3         12.7540   12.5200   17.3410 C.ar      1 D661087     0.0000 
      8 O3         14.6360    9.8690   11.9850 O.2       1 D661087     0.0000 
      9 C4         13.0520   13.0070   16.0490 C.ar      1 D661087     0.0000 
     10 O4         18.7290    8.9920   12.1680 O.co2     1 D661087     0.0000 
     11 C5         13.4110   12.1250   15.0400 C.ar      1 D661087     0.0000 
     12 O5         17.6760   10.8660   12.7480 O.co2     1 D661087     0.0000 
     13 C6         13.7440   12.6920   13.6700 C.3       1 D661087     0.0000 
     14 C7         13.0500   12.0360   12.4850 C.3       1 D661087     0.0000 
     15 C8         14.0170   12.1470   11.3230 C.3       1 D661087     0.0000 
     16 C9         14.9110   10.8990   11.3390 C.2       1 D661087     0.0000 
     17 C10        16.8830    9.7510   10.7440 C.3       1 D661087     0.0000 
     18 C11        17.7300    9.6240    9.4720 C.3       1 D661087     0.0000 
     19 C12        16.9920    9.0190    8.2750 C.3       1 D661087     0.0000 
     20 C13        16.4860    7.5980    8.5350 C.3       1 D661087     0.0000 
     21 C14        17.9590    9.0950    7.1010 C.3       1 D661087     0.0000 
     22 C15        17.8150    9.8280   11.9350 C.2       1 D661087     0.0000 
     23 C16        13.4760   10.7600   15.3290 C.ar      1 D661087     0.0000 
     24 C17        13.1640   10.2960   16.6280 C.ar      1 D661087     0.0000 
     25 H          16.3479   11.7020   10.0898 H         1 D661087     0.0000 
     26 H          12.4966   13.2041   18.0785 H         1 D661087     0.0000 
     27 H          12.9998   14.0150   15.8679 H         1 D661087     0.0000 
     28 H          14.8454   12.6311   13.5158 H         1 D661087     0.0000 
     29 H          13.5045   13.7798   13.6653 H         1 D661087     0.0000 
     30 H          12.8933   11.0094   12.7154 H         1 D661087     0.0000 
     31 H          14.6712   13.0024   11.5312 H         1 D661087     0.0000 
     32 H          16.2867    8.8544   10.8316 H         1 D661087     0.0000 
     33 H          18.6159    9.0045    9.6956 H         1 D661087     0.0000 
     34 H          18.1036   10.6245    9.1926 H         1 D661087     0.0000 
     35 H          16.1475    9.6676    8.0492 H         1 D661087     0.0000 
     36 H          13.7487   10.0891   14.6057 H         1 D661087     0.0000 
     37 H          13.2140    9.2794   16.8156 H         1 D661087     0.0000 
     38 H          13.7634    9.1808   19.2916 H         1 D661087     0.0000 
     39 H          12.5134    9.2319   20.3021 H         1 D661087     0.0000 
     40 H          12.3079    8.7107   18.7946 H         1 D661087     0.0000 
     41 H          11.1003   12.1250   11.8313 H         1 D661087     0.0000 
     42 H          11.3995   13.1262   13.0538 H         1 D661087     0.0000 
     43 H          11.9123   13.4889   11.5733 H         1 D661087     0.0000 
     44 H          17.2343    6.9713    8.7525 H         1 D661087     0.0000 
     45 H          15.8450    7.5665    9.3019 H         1 D661087     0.0000 
     46 H          16.0104    7.2218    7.7398 H         1 D661087     0.0000 
     47 H          18.2235   10.0378    6.8982 H         1 D661087     0.0000 
     48 H          18.8012    8.5864    7.2800 H         1 D661087     0.0000 
     49 H          17.5598    8.7164    6.2659 H         1 D661087     0.0000 
     50 H          13.8226   13.0512    9.6160 H         1 D661087     0.0000 
@<TRIPOS>BOND
     1    3    1 1    
     2   38    1 1    
     3   39    1 1    
     4   40    1 1    
     5   14    2 1    
     6   41    2 1    
     7   42    2 1    
     8   43    2 1    
     9    4    3 1    
    10    7    4 ar   
    11   24    4 ar   
    12   16    5 am   
    13   17    5 1    
    14   25    5 1    
    15   15    6 1    
    16   50    6 1    
    17    9    7 ar   
    18   26    7 1    
    19   16    8 2    
    20   11    9 ar   
    21   27    9 1    
    22   22   10 ar   
    23   13   11 1    
    24   23   11 ar   
    25   22   12 ar   
    26   14   13 1    
    27   28   13 1    
    28   29   13 1    
    29   15   14 1    
    30   30   14 1    
    31   16   15 1    
    32   31   15 1    
    33   18   17 1    
    34   22   17 1    
    35   32   17 1    
    36   19   18 1    
    37   33   18 1    
    38   34   18 1    
    39   20   19 1    
    40   21   19 1    
    41   35   19 1    
    42   44   20 1    
    43   45   20 1    
    44   46   20 1    
    45   47   21 1    
    46   48   21 1    
    47   49   21 1    
    48   24   23 ar   
    49   36   23 1    
    50   37   24 1    
@<TRIPOS>SUBSTRUCTURE
     1 D661087     1 GROUP   
@<TRIPOS>SET

