#    Name: 1mkd_ZAR_5_INTS_M
#    Modification time : Mon Apr  7 14:38:27 2014

@<TRIPOS>MOLECULE
1mkd_ZAR_5_INTS_M
   39     0     6     0     0
SMALL
NO_CHARGES


@<TRIPOS>ATOM
      1 CA         92.6730   11.2080   82.6855 C.3       2 GLC5        0.0000 
      2 CA         93.9960   11.8650   81.4300 C.3       6 GLL5        0.0000 
      3 CA         91.3500   10.5510   83.9410 C.3       4 GLP5        0.0000 
      4 CA         95.4210   11.5225   74.1350 C.3       2 GLC5        0.0000 
      5 CA         93.6330   11.0840   74.8670 C.3       6 GLL5        0.0000 
      6 CA         97.2090   11.9610   73.4030 C.3       4 GLP5        0.0000 
      7 N          94.0815    9.7785   72.6185 N.am      1 SEC2        0.0000 
      8 N          93.5070   11.0950   73.4930 N.am      5 SEL2        0.0000 
      9 N          94.6560    8.4620   71.7440 N.am      3 SEP2        0.0000 
     10 CA         90.0290   12.5205   72.8275 C.3       2 GLC5        0.0000 
     11 CA         91.8540   12.5610   72.8450 C.3       6 GLL5        0.0000 
     12 CA         88.2040   12.4800   72.8100 C.3       4 GLP5        0.0000 
     13 CA         91.1460   11.1775   74.2995 C.3       2 GLC5        0.0000 
     14 CA         90.4380    9.7940   75.7540 C.3       4 GLP5        0.0000 
     15 CA         94.4730   14.8010   73.7895 C.3       2 GLC5        0.0000 
     16 CA         93.9760   13.2490   72.7020 C.3       6 GLL5        0.0000 
     17 CA         94.9700   16.3530   74.8770 C.3       4 GLP5        0.0000 
     18 CA         93.8185   14.7805   71.7705 C.3       2 GLC5        0.0000 
     19 CA         93.6610   16.3120   70.8390 C.3       4 GLP5        0.0000 
     20 N          94.4390    8.6145   73.2085 N.am      1 SEC2        0.0000 
     21 N          94.2220    8.7670   74.6730 N.am      5 SEL2        0.0000 
     22 CA         96.1770    6.7635   75.0300 C.3       2 GLC5        0.0000 
     23 CA         94.5990    7.4520   75.0570 C.3       6 GLL5        0.0000 
     24 CA         97.7550    6.0750   75.0030 C.3       4 GLP5        0.0000 
     25 CA         92.8970    6.8040   74.9885 C.3       2 GLC5        0.0000 
     26 CA         91.1950    6.1560   74.9200 C.3       4 GLP5        0.0000 
     27 CA         95.7211   11.2681   76.1403 C.3       2 GLC5        0.0000 
     28 CA         94.1430    9.7810   76.9100 C.3       6 GLL5        0.0000 
     29 CA         97.4240   12.4350   75.8710 C.3       4 GLP5        0.0000 
     30 CA         95.4505   12.3135   76.1360 C.3       2 GLC5        0.0000 
     31 CA         93.5480   12.1510   77.1030 C.3       6 GLL5        0.0000 
     32 CA         91.6770   11.8508   71.2185 C.3       2 GLC5        0.0000 
     33 CA         90.8540   11.3490   69.7190 C.3       4 GLP5        0.0000 
     34 CA         94.7825   12.6738   71.3208 C.3       2 GLC5        0.0000 
     35 CA         93.1460   12.1440   72.5910 C.3       6 GLL5        0.0000 
     36 CA         96.0040   12.6510   69.9950 C.3       4 GLP5        0.0000 
     37 CA         95.3850   12.3287   73.0248 C.3       2 GLC5        0.0000 
     38 CA         91.6825   13.9579   72.5845 C.3       2 GLC5        0.0000 
     39 CA         90.1270   15.1150   72.4590 C.3       4 GLP5        0.0000 
@<TRIPOS>BOND
@<TRIPOS>SUBSTRUCTURE
     1 SEC2        7 GROUP        1 X    SEC  0     ROOT SEC X 2
     2 GLC5        1 GROUP        1 X    GLC  0     **** GLC X 6
     3 SEP2        9 GROUP        1 Y    SEP  0     ROOT SEP Y 9
     4 GLP5        3 GROUP        1 Y    GLP  0     **** GLP Y 13
     5 SEL2        8 GROUP        1 Z    SEL  0     ROOT SEL Z 16
     6 GLL5        2 GROUP        1 Z    GLL  0     **** GLL Z 20
@<TRIPOS>SET

