#    Name: 1mkd_ZAR_5_ligand
#    Modification time : Mon Apr  7 14:38:27 2014

@<TRIPOS>MOLECULE
1mkd_ZAR_5_ligand
   29    30     1     0     0
SMALL
NO_CHARGES


@<TRIPOS>ATOM
      1 O1         94.5370   10.3040   83.1140 O.2       1 ZAR3005     0.0000 
      2 C2         94.3810   10.5030   81.9180 C.2       1 ZAR3005     0.0000 
      3 N3         94.5610    9.4680   81.0010 N.am      1 ZAR3005     0.0000 
      4 N4         94.3830    9.6980   79.6250 N.2       1 ZAR3005     0.0000 
      5 C5         94.0550   10.8400   79.1230 C.2       1 ZAR3005     0.0000 
      6 C6         93.8440   11.9990   80.0870 C.2       1 ZAR3005     0.0000 
      7 C7         93.9960   11.8650   81.4300 C.2       1 ZAR3005     0.0000 
      8 C8         93.9160   10.9260   77.7560 C.ar      1 ZAR3005     0.0000 
      9 C9         94.1430    9.7810   76.9100 C.ar      1 ZAR3005     0.0000 
     10 C10        94.0070    9.8490   75.4860 C.ar      1 ZAR3005     0.0000 
     11 C11        93.6330   11.0840   74.8670 C.ar      1 ZAR3005     0.0000 
     12 C12        93.4060   12.2330   75.6990 C.ar      1 ZAR3005     0.0000 
     13 C13        93.5480   12.1510   77.1030 C.ar      1 ZAR3005     0.0000 
     14 C14        93.1460   12.1440   72.5910 C.3       1 ZAR3005     0.0000 
     15 O15        93.5070   11.0950   73.4930 O.3       1 ZAR3005     0.0000 
     16 F16        91.8540   12.5610   72.8450 F         1 ZAR3005     0.0000 
     17 F17        93.9760   13.2490   72.7020 F         1 ZAR3005     0.0000 
     18 O18        94.2220    8.7670   74.6730 O.3       1 ZAR3005     0.0000 
     19 C19        94.5990    7.4520   75.0570 C.3       1 ZAR3005     0.0000 
     20 H          94.8252    8.5300   81.3272 H         1 ZAR3005     0.0000 
     21 H          93.5777   12.8887   79.6377 H         1 ZAR3005     0.0000 
     22 H          93.8749   12.5831   82.1015 H         1 ZAR3005     0.0000 
     23 H          94.4107    8.8897   77.3464 H         1 ZAR3005     0.0000 
     24 H          93.1385   13.1175   75.2600 H         1 ZAR3005     0.0000 
     25 H          93.3852   12.9871   77.6818 H         1 ZAR3005     0.0000 
     26 H          93.1976   11.7503   71.5572 H         1 ZAR3005     0.0000 
     27 H          95.4748    7.4427   75.5396 H         1 ZAR3005     0.0000 
     28 H          93.9243    7.0351   75.6660 H         1 ZAR3005     0.0000 
     29 H          94.6936    6.8470   74.2664 H         1 ZAR3005     0.0000 
@<TRIPOS>BOND
     1    2    1 2    
     2    3    2 am   
     3    7    2 1    
     4    4    3 1    
     5   20    3 1    
     6    5    4 2    
     7    6    5 1    
     8    8    5 1    
     9    7    6 2    
    10   21    6 1    
    11   22    7 1    
    12    9    8 ar   
    13   13    8 ar   
    14   10    9 ar   
    15   23    9 1    
    16   11   10 ar   
    17   18   10 1    
    18   12   11 ar   
    19   15   11 1    
    20   13   12 ar   
    21   24   12 1    
    22   25   13 1    
    23   15   14 1    
    24   16   14 1    
    25   17   14 1    
    26   26   14 1    
    27   19   18 1    
    28   27   19 1    
    29   28   19 1    
    30   29   19 1    
@<TRIPOS>SUBSTRUCTURE
     1 ZAR3005     1 GROUP   
@<TRIPOS>SET

