#    Name: 4N1F_1_CAVITY_N1_ALL.mol2
#    Modification time : Tue Mar 11 15:52:47 2014

@<TRIPOS>MOLECULE
4N1F_1_CAVITY_N1_ALL.mol2
   88     0     5     0     0
SMALL
NO_CHARGES


@<TRIPOS>ATOM
      1 CA         74.9525   29.5993   24.5652 C.3       4 GLY6        0.0000 
      2 CA         74.1515   30.2445   25.6571 C.3       4 GLY6        0.0000 
      3 CA         73.3505   30.8897   26.7489 C.3       4 GLY6        0.0000 
      4 CA         73.8104   29.7938   23.6124 C.3       4 GLY6        0.0000 
      5 CA         73.0094   30.4390   24.7043 C.3       4 GLY6        0.0000 
      6 CZ         72.2084   31.0842   25.7962 C.ar      3 PHE5        0.0000 
      7 CA         71.0663   31.2787   24.8434 C.3       4 GLY6        0.0000 
      8 CZ         74.7422   28.7099   26.9972 C.ar      3 PHE5        0.0000 
      9 CZ         75.2020   27.6140   23.8608 C.ar      3 PHE5        0.0000 
     10 CA         74.4011   28.2592   24.9526 C.3       4 GLY6        0.0000 
     11 CZ         73.6001   28.9044   26.0445 C.ar      3 PHE5        0.0000 
     12 CZ         72.7991   29.5496   27.1363 C.ar      3 PHE5        0.0000 
     13 CZ         74.0599   27.8085   22.9080 C.ar      3 PHE5        0.0000 
     14 CZ         73.2590   28.4537   23.9998 C.ar      3 PHE5        0.0000 
     15 CZ         72.4580   29.0989   25.0917 C.ar      3 PHE5        0.0000 
     16 CZ         71.6570   29.7441   26.1836 C.ar      3 PHE5        0.0000 
     17 CA         72.9178   28.0030   21.9552 C.3       4 GLY6        0.0000 
     18 OG         72.1169   28.6482   23.0471 O.2       1 SER1        0.0000 
     19 OG         71.3159   29.2934   24.1389 O.2       1 SER1        0.0000 
     20 OG         70.9748   28.8427   22.0943 O.2       1 SER1        0.0000 
     21 CA         75.7927   26.0794   25.2009 C.3       4 GLY6        0.0000 
     22 CA         74.9918   26.7246   26.2928 C.3       4 GLY6        0.0000 
     23 CA         73.8497   26.9191   25.3400 C.3       4 GLY6        0.0000 
     24 CZ         73.0487   27.5643   26.4319 C.ar      3 PHE5        0.0000 
     25 CA         72.7076   27.1136   24.3872 C.3       4 GLY6        0.0000 
     26 CZ         71.9066   27.7588   25.4791 C.ar      3 PHE5        0.0000 
     27 CA         71.5655   27.3081   23.4345 C.3       4 GLY6        0.0000 
     28 CZ         70.7645   27.9533   24.5263 C.ar      3 PHE5        0.0000 
     29 CA         70.4234   27.5026   22.4817 C.3       4 GLY6        0.0000 
     30 OG         69.6224   28.1478   23.5736 O.2       1 SER1        0.0000 
     31 CZ         69.2813   27.6971   21.5289 C.ar      3 PHE5        0.0000 
     32 OG         76.3835   24.5448   26.5411 O.2       1 SER1        0.0000 
     33 OG         75.5825   25.1900   27.6330 O.2       1 SER1        0.0000 
     34 CA         75.2414   24.7393   25.5883 C.3       4 GLY6        0.0000 
     35 CZ         74.4404   25.3845   26.6802 C.ar      3 PHE5        0.0000 
     36 CA         73.2983   25.5790   25.7274 C.3       4 GLY6        0.0000 
     37 CZ         72.4973   26.2242   26.8193 C.ar      3 PHE5        0.0000 
     38 CA         72.1562   25.7735   24.7747 C.3       4 GLY6        0.0000 
     39 CZ         71.3552   26.4187   25.8665 C.ar      3 PHE5        0.0000 
     40 CA         71.0141   25.9680   23.8219 C.3       4 GLY6        0.0000 
     41 CZ         70.2131   26.6132   24.9137 C.ar      3 PHE5        0.0000 
     42 CA         69.8720   26.1625   22.8691 C.3       4 GLY6        0.0000 
     43 CZ         69.0710   26.8077   23.9610 C.ar      3 PHE5        0.0000 
     44 CZ         68.2700   27.4529   25.0528 C.ar      3 PHE5        0.0000 
     45 OG         68.7299   26.3570   21.9163 O.2       1 SER1        0.0000 
     46 OG         67.9289   27.0022   23.0082 O.2       1 SER1        0.0000 
     47 OG         67.1279   27.6474   24.1000 O.2       1 SER1        0.0000 
     48 CZ         66.3269   28.2926   25.1919 C.ar      3 PHE5        0.0000 
     49 CZ         66.7868   27.1967   22.0554 C.ar      3 PHE5        0.0000 
     50 OG         65.9858   27.8419   23.1473 O.2       1 SER1        0.0000 
     51 CA         65.1848   28.4871   24.2391 C.3       4 GLY6        0.0000 
     52 CZ         64.8437   28.0364   22.1945 C.ar      3 PHE5        0.0000 
     53 CZ         63.7016   28.2309   21.2417 C.ar      3 PHE5        0.0000 
     54 OG         75.0311   23.8499   28.0204 O.2       1 SER1        0.0000 
     55 CA         74.6900   23.3992   25.9757 C.3       4 GLY6        0.0000 
     56 CZ         73.8890   24.0444   27.0676 C.ar      3 PHE5        0.0000 
     57 CZ         73.0880   24.6896   28.1594 C.ar      3 PHE5        0.0000 
     58 CZ         73.5479   23.5937   25.0230 C.ar      3 PHE5        0.0000 
     59 DU         72.7469   24.2389   26.1148 H         5 CUB7        0.0000 
     60 CZ         71.9459   24.8841   27.2067 C.ar      3 PHE5        0.0000 
     61 CZ         71.6048   24.4334   25.1621 C.ar      3 PHE5        0.0000 
     62 CZ         70.8038   25.0786   26.2539 C.ar      3 PHE5        0.0000 
     63 CZ         70.4627   24.6279   24.2093 C.ar      3 PHE5        0.0000 
     64 CZ         69.6617   25.2731   25.3011 C.ar      3 PHE5        0.0000 
     65 OG         69.3206   24.8224   23.2565 O.2       1 SER1        0.0000 
     66 N          68.5196   25.4676   24.3484 N.2       2 ALA2        0.0000 
     67 CZ         67.7186   26.1128   25.4402 C.ar      3 PHE5        0.0000 
     68 N          67.3775   25.6621   23.3956 N.2       2 ALA2        0.0000 
     69 O          66.5765   26.3073   24.4874 O.2       2 ALA2        0.0000 
     70 CZ         65.7755   26.9525   25.5793 C.ar      3 PHE5        0.0000 
     71 N          66.2354   25.8566   22.4428 N.2       2 ALA2        0.0000 
     72 O          65.4344   26.5018   23.5347 O.2       2 ALA2        0.0000 
     73 CA         64.6334   27.1470   24.6265 C.3       4 GLY6        0.0000 
     74 CZ         65.0933   26.0511   21.4901 C.ar      3 PHE5        0.0000 
     75 CZ         64.2923   26.6963   22.5819 C.ar      3 PHE5        0.0000 
     76 CA         63.4913   27.3415   23.6738 C.3       4 GLY6        0.0000 
     77 CZ         63.1502   26.8908   21.6291 C.ar      3 PHE5        0.0000 
     78 CZ         62.3492   27.5360   22.7210 C.ar      3 PHE5        0.0000 
     79 CZ         72.1955   22.8988   26.5022 C.ar      3 PHE5        0.0000 
     80 CZ         71.3945   23.5440   27.5941 C.ar      3 PHE5        0.0000 
     81 O          70.2524   23.7385   26.6413 O.2       2 ALA2        0.0000 
     82 O          69.1103   23.9330   25.6885 O.2       2 ALA2        0.0000 
     83 CA         65.2241   25.6124   25.9667 C.3       4 GLY6        0.0000 
     84 CA         64.0820   25.8069   25.0139 C.3       4 GLY6        0.0000 
     85 CA         63.7409   25.3562   22.9693 C.3       4 GLY6        0.0000 
     86 CA         62.9399   26.0014   24.0612 C.3       4 GLY6        0.0000 
     87 CA         62.5988   25.5507   22.0165 C.3       4 GLY6        0.0000 
     88 CA         62.3885   24.6613   24.4486 C.3       4 GLY6        0.0000 
@<TRIPOS>BOND
@<TRIPOS>SUBSTRUCTURE
     1 SER1       18 GROUP   
     2 ALA2       66 GROUP   
     3 PHE5        6 GROUP   
     4 GLY6        1 GROUP   
     5 CUB7       59 GROUP   
@<TRIPOS>SET

