#    Name: 4n1f_CZH_1_INTS_M
#    Modification time : Tue Mar 25 12:30:56 2014

@<TRIPOS>MOLECULE
4n1f_CZH_1_INTS_M
   75     0     9     0     0
SMALL
NO_CHARGES


@<TRIPOS>ATOM
      1 N          69.0065   29.0815   23.2365 N.am      2 SEC2        0.0000 
      2 N          69.4460   27.7650   23.4800 N.am      8 SEL2        0.0000 
      3 N          68.5670   30.3980   22.9930 N.am      5 SEP2        0.0000 
      4 CA         68.1300   28.3795   22.1785 C.3       3 GLC5        0.0000 
      5 CA         68.2830   26.9720   23.5830 C.3       9 GLL5        0.0000 
      6 CA         67.9770   29.7870   20.7740 C.3       6 GLP5        0.0000 
      7 CA         67.6045   29.2070   23.1145 C.3       3 GLC5        0.0000 
      8 CA         67.2820   27.7280   24.4120 C.3       9 GLL5        0.0000 
      9 CA         67.9270   30.6860   21.8170 C.3       6 GLP5        0.0000 
     10 CA         64.2380   29.0230   23.1415 C.3       3 GLC5        0.0000 
     11 CA         65.1630   27.0620   23.3170 C.3       9 GLL5        0.0000 
     12 CA         63.3130   30.9840   22.9660 C.3       6 GLP5        0.0000 
     13 N          68.8040   23.1265   24.5200 N.am      2 SEC2        0.0000 
     14 N          68.1660   24.7460   24.5350 N.am      8 SEL2        0.0000 
     15 N          69.4420   21.5070   24.5050 N.am      5 SEP2        0.0000 
     16 N          76.9980   23.1760   28.1545 N.am      2 SEC2        0.0000 
     17 N          76.4170   22.3820   27.3160 N.am      8 SEL2        0.0000 
     18 N          77.5790   23.9700   28.9930 N.am      5 SEP2        0.0000 
     19 O          76.1935   20.9515   27.3600 O.2       1 ALC1        0.0000 
     20 O          76.4170   22.3820   27.3160 O.2       7 ALL1        0.0000 
     21 O          75.9700   19.5210   27.4040 O.2       4 ALP1        0.0000 
     22 CA         74.1620   28.8075   22.6910 C.3       3 GLC5        0.0000 
     23 CA         72.2080   28.8780   23.6440 C.3       9 GLL5        0.0000 
     24 CA         76.1160   28.7370   21.7380 C.3       6 GLP5        0.0000 
     25 CA         71.1165   28.3735   25.5330 C.3       3 GLC5        0.0000 
     26 CA         70.0250   27.8690   27.4220 C.3       6 GLP5        0.0000 
     27 N          68.0975   24.5660   21.3135 N.am      2 SEC2        0.0000 
     28 N          67.9230   25.5830   21.7170 N.am      8 SEL2        0.0000 
     29 N          68.2720   23.5490   20.9100 N.am      5 SEP2        0.0000 
     30 CA         68.5538   28.1880   25.6062 C.3       3 GLC5        0.0000 
     31 CA         69.3250   29.0260   27.2150 C.3       6 GLP5        0.0000 
     32 CA         71.6633   25.3170   22.9883 C.3       3 GLC5        0.0000 
     33 CA         71.0110   25.0970   25.0820 C.3       9 GLL5        0.0000 
     34 CA         71.6680   25.3390   20.8120 C.3       6 GLP5        0.0000 
     35 CA         65.5340   29.1508   24.8010 C.3       3 GLC5        0.0000 
     36 CA         64.4430   30.9280   25.1910 C.3       6 GLP5        0.0000 
     37 CA         65.7697   24.7637   26.7927 C.3       3 GLC5        0.0000 
     38 CA         65.5780   26.3310   25.5120 C.3       9 GLL5        0.0000 
     39 CA         66.5620   23.5220   28.0560 C.3       6 GLP5        0.0000 
     40 CA         63.3757   26.6352   26.2553 C.3       3 GLC5        0.0000 
     41 CA         61.7740   27.2650   26.9810 C.3       6 GLP5        0.0000 
     42 CA         62.7692   26.6578   25.4345 C.3       3 GLC5        0.0000 
     43 CA         63.5690   25.7040   24.4510 C.3       9 GLL5        0.0000 
     44 CA         62.9978   24.5807   22.6740 C.3       3 GLC5        0.0000 
     45 CA         62.2310   23.1110   21.4600 C.3       6 GLP5        0.0000 
     46 CA         74.3541   25.1346   24.2541 C.3       3 GLC5        0.0000 
     47 CA         72.3060   25.4930   25.2470 C.3       9 GLL5        0.0000 
     48 CA         75.0440   25.1450   22.5730 C.3       6 GLP5        0.0000 
     49 CA         76.4175   26.2183   26.9267 C.3       3 GLC5        0.0000 
     50 CA         74.4980   25.1910   26.3260 C.3       9 GLL5        0.0000 
     51 CA         77.8260   27.6190   27.2860 C.3       6 GLP5        0.0000 
     52 CA         76.3458   23.5128   25.4620 C.3       3 GLC5        0.0000 
     53 CA         75.5200   24.4440   26.8090 C.3       9 GLL5        0.0000 
     54 CA         77.2200   23.2590   24.1050 C.3       6 GLP5        0.0000 
     55 CA         74.9493   22.7667   24.6693 C.3       3 GLC5        0.0000 
     56 CA         74.2960   22.4830   26.3620 C.3       9 GLL5        0.0000 
     57 CA         76.1170   22.6710   23.2310 C.3       6 GLP5        0.0000 
     58 CA         75.3575   29.7752   25.9862 C.3       3 GLC5        0.0000 
     59 CA         73.3620   29.6090   25.7030 C.3       9 GLL5        0.0000 
     60 CA         77.2870   29.5040   25.7450 C.3       6 GLP5        0.0000 
     61 CA         74.4940   31.4333   25.2862 C.3       3 GLC5        0.0000 
     62 CA         75.5600   32.8200   24.3450 C.3       6 GLP5        0.0000 
     63 CA         73.9570   31.2685   28.6985 C.3       3 GLC5        0.0000 
     64 CA         73.4940   30.4840   26.7520 C.3       9 GLL5        0.0000 
     65 CA         74.8280   31.5070   30.5880 C.3       6 GLP5        0.0000 
     66 CA         73.8752   32.2507   25.3740 C.3       3 GLC5        0.0000 
     67 CA         72.6780   31.5760   26.8660 C.3       9 GLL5        0.0000 
     68 CA         71.5973   33.3257   27.3700 C.3       3 GLC5        0.0000 
     69 CA         71.0040   34.9700   28.3370 C.3       6 GLP5        0.0000 
     70 CA         71.3178   32.6382   24.3457 C.3       3 GLC5        0.0000 
     71 CA         71.7030   31.7870   25.9400 C.3       9 GLL5        0.0000 
     72 CA         71.0100   33.9280   23.2740 C.3       6 GLP5        0.0000 
     73 CA         73.5553   31.1571   23.7804 C.3       3 GLC5        0.0000 
     74 CA         71.5480   30.9100   24.8950 C.3       9 GLL5        0.0000 
     75 CA         75.1890   32.1830   23.0090 C.3       6 GLP5        0.0000 
@<TRIPOS>BOND
@<TRIPOS>SUBSTRUCTURE
     1 ALC1       19 GROUP        1 X    ALC  0     ROOT ALC X 1
     2 SEC2        1 GROUP        1 X    SEC  0     **** SEC X 2
     3 GLC5        4 GROUP        1 X    GLC  0     **** GLC X 6
     4 ALP1       21 GROUP        1 Y    ALP  0     ROOT ALP Y 8
     5 SEP2        3 GROUP        1 Y    SEP  0     **** SEP Y 9
     6 GLP5        6 GROUP        1 Y    GLP  0     **** GLP Y 13
     7 ALL1       20 GROUP        1 Z    ALL  0     ROOT ALL Z 15
     8 SEL2        2 GROUP        1 Z    SEL  0     **** SEL Z 16
     9 GLL5        5 GROUP        1 Z    GLL  0     **** GLL Z 20
@<TRIPOS>SET

