#    Name: 4n1f_CZH_1_ligand
#    Modification time : Tue Mar 25 12:30:56 2014

@<TRIPOS>MOLECULE
4n1f_CZH_1_ligand
   55    59     1     0     0
SMALL
NO_CHARGES


@<TRIPOS>ATOM
      1 N1         69.4460   27.7650   23.4800 N.2       1 CZH201      0.0000 
      2 C2         68.2830   26.9720   23.5830 C.3       1 CZH201      0.0000 
      3 C3         68.8530   25.7760   24.2410 C.2       1 CZH201      0.0000 
      4 N4         70.1260   25.8930   24.4980 N.am      1 CZH201      0.0000 
      5 C5         71.0110   25.0970   25.0820 C.2       1 CZH201      0.0000 
      6 C6         72.3060   25.4930   25.2470 C.2       1 CZH201      0.0000 
      7 N7         72.6790   26.6820   24.7640 N.2       1 CZH201      0.0000 
      8 C8         71.8350   27.5090   24.1730 C.2       1 CZH201      0.0000 
      9 C9         70.4540   27.0920   24.0330 C.2       1 CZH201      0.0000 
     10 C10        67.2820   27.7280   24.4120 C.3       1 CZH201      0.0000 
     11 C11        65.9680   27.0190   24.4100 C.ar      1 CZH201      0.0000 
     12 C12        65.5780   26.3310   25.5120 C.ar      1 CZH201      0.0000 
     13 C13        64.3770   25.6800   25.5470 C.ar      1 CZH201      0.0000 
     14 C14        63.5690   25.7040   24.4510 C.ar      1 CZH201      0.0000 
     15 C15        63.9600   26.3970   23.3250 C.ar      1 CZH201      0.0000 
     16 C16        65.1630   27.0620   23.3170 C.ar      1 CZH201      0.0000 
     17 O17        62.4040   25.0700   24.4680 O.3       1 CZH201      0.0000 
     18 O18        68.1660   24.7460   24.5350 O.2       1 CZH201      0.0000 
     19 C19        73.3550   24.6220   25.8420 C.ar      1 CZH201      0.0000 
     20 C20        74.4980   25.1910   26.3260 C.ar      1 CZH201      0.0000 
     21 C21        75.5200   24.4440   26.8090 C.ar      1 CZH201      0.0000 
     22 C22        75.4230   23.0890   26.8290 C.ar      1 CZH201      0.0000 
     23 C23        74.2960   22.4830   26.3620 C.ar      1 CZH201      0.0000 
     24 C24        73.2670   23.2420   25.8530 C.ar      1 CZH201      0.0000 
     25 O25        76.4170   22.3820   27.3160 O.3       1 CZH201      0.0000 
     26 C26        72.2080   28.8780   23.6440 C.3       1 CZH201      0.0000 
     27 C27        72.3820   29.8270   24.7730 C.ar      1 CZH201      0.0000 
     28 C28        73.3620   29.6090   25.7030 C.ar      1 CZH201      0.0000 
     29 C29        73.4940   30.4840   26.7520 C.ar      1 CZH201      0.0000 
     30 C30        72.6780   31.5760   26.8660 C.ar      1 CZH201      0.0000 
     31 C31        71.7030   31.7870   25.9400 C.ar      1 CZH201      0.0000 
     32 C32        71.5480   30.9100   24.8950 C.ar      1 CZH201      0.0000 
     33 O33        67.7110   26.7260   22.3620 O.3       1 CZH201      0.0000 
     34 O34        67.9230   25.5830   21.7170 O.3       1 CZH201      0.0000 
     35 H          70.7286   24.1473   25.4275 H         1 CZH201      0.0000 
     36 H          67.1596   28.7342   24.0033 H         1 CZH201      0.0000 
     37 H          67.6529   27.8160   25.4363 H         1 CZH201      0.0000 
     38 H          66.2022   26.2956   26.3492 H         1 CZH201      0.0000 
     39 H          64.0859   25.1738   26.3999 H         1 CZH201      0.0000 
     40 H          63.3511   26.4152   22.4931 H         1 CZH201      0.0000 
     41 H          65.4485   27.5931   22.4748 H         1 CZH201      0.0000 
     42 H          74.5831   26.2388   26.3218 H         1 CZH201      0.0000 
     43 H          76.3806   24.9069   27.1653 H         1 CZH201      0.0000 
     44 H          74.2074   21.4517   26.3872 H         1 CZH201      0.0000 
     45 H          72.4215   22.7802   25.4757 H         1 CZH201      0.0000 
     46 H          71.4187   29.2280   22.9766 H         1 CZH201      0.0000 
     47 H          73.1349   28.7979   23.0737 H         1 CZH201      0.0000 
     48 H          73.9925   28.8002   25.6185 H         1 CZH201      0.0000 
     49 H          74.2277   30.3122   27.4718 H         1 CZH201      0.0000 
     50 H          72.8037   32.2358   27.6526 H         1 CZH201      0.0000 
     51 H          71.0754   32.6074   26.0189 H         1 CZH201      0.0000 
     52 H          70.7992   31.0666   24.1968 H         1 CZH201      0.0000 
     53 H          62.4149   24.5314   25.3105 H         1 CZH201      0.0000 
     54 H          76.0937   21.4359   27.3000 H         1 CZH201      0.0000 
     55 H          68.0988   24.9095   22.4350 H         1 CZH201      0.0000 
@<TRIPOS>BOND
     1    2    1 1    
     2    9    1 2    
     3    3    2 1    
     4   10    2 1    
     5   33    2 1    
     6    4    3 am   
     7   18    3 2    
     8    5    4 1    
     9    9    4 1    
    10    6    5 2    
    11   35    5 1    
    12    7    6 1    
    13   19    6 1    
    14    8    7 2    
    15    9    8 1    
    16   26    8 1    
    17   11   10 1    
    18   36   10 1    
    19   37   10 1    
    20   12   11 ar   
    21   16   11 ar   
    22   13   12 ar   
    23   38   12 1    
    24   14   13 ar   
    25   39   13 1    
    26   15   14 ar   
    27   17   14 1    
    28   16   15 ar   
    29   40   15 1    
    30   41   16 1    
    31   53   17 1    
    32   20   19 ar   
    33   24   19 ar   
    34   21   20 ar   
    35   42   20 1    
    36   22   21 ar   
    37   43   21 1    
    38   23   22 ar   
    39   25   22 1    
    40   24   23 ar   
    41   44   23 1    
    42   45   24 1    
    43   54   25 1    
    44   27   26 1    
    45   46   26 1    
    46   47   26 1    
    47   28   27 ar   
    48   32   27 ar   
    49   29   28 ar   
    50   48   28 1    
    51   30   29 ar   
    52   49   29 1    
    53   31   30 ar   
    54   50   30 1    
    55   32   31 ar   
    56   51   31 1    
    57   52   32 1    
    58   34   33 1    
    59   55   34 1    
@<TRIPOS>SUBSTRUCTURE
     1 CZH201      1 GROUP   
@<TRIPOS>SET

