#    Name: 1g4k_HQQ_1_INTS_M
#    Modification time : Tue Mar 25 02:33:04 2014

@<TRIPOS>MOLECULE
1g4k_HQQ_1_INTS_M
   43     0     9     0     0
SMALL
NO_CHARGES


@<TRIPOS>ATOM
      1 O          19.2850   29.0575   47.8290 O.2       1 ALC1        0.0000 
      2 O          18.8820   30.3150   48.1300 O.2       7 ALL1        0.0000 
      3 O          19.6880   27.8000   47.5280 O.2       4 ALP1        0.0000 
      4 N          20.2205   29.4585   50.8275 N.am      2 SEC2        0.0000 
      5 N          18.9420   30.0180   50.4600 N.am      8 SEL2        0.0000 
      6 N          21.4990   28.8990   51.1950 N.am      5 SEP2        0.0000 
      7 N          19.0280   29.8070   44.7055 N.am      2 SEC2        0.0000 
      8 N          18.6510   30.6210   45.8620 N.am      8 SEL2        0.0000 
      9 N          19.4050   28.9930   43.5490 N.am      5 SEP2        0.0000 
     10 CA         20.8565   32.8145   45.2445 C.3       3 GLC5        0.0000 
     11 CA         20.5060   32.8210   47.4360 C.3       9 GLL5        0.0000 
     12 CA         21.2070   32.8080   43.0530 C.3       6 GLP5        0.0000 
     13 CA         19.9535   34.0645   49.0820 C.3       3 GLC5        0.0000 
     14 CA         19.0120   34.7800   47.2240 C.3       9 GLL5        0.0000 
     15 CA         20.8950   33.3490   50.9400 C.3       6 GLP5        0.0000 
     16 CA         17.4615   35.8545   48.3065 C.3       3 GLC5        0.0000 
     17 CA         15.9110   36.9290   49.3890 C.3       6 GLP5        0.0000 
     18 CA         22.7510   35.9995   49.2190 C.3       3 GLC5        0.0000 
     19 CA         22.4020   37.3360   47.5980 C.3       9 GLL5        0.0000 
     20 CA         23.1000   34.6630   50.8400 C.3       6 GLP5        0.0000 
     21 CA         21.9710   39.7500   50.6320 C.3       3 GLC5        0.0000 
     22 CA         21.2530   39.2790   48.6340 C.3       9 GLL5        0.0000 
     23 CA         22.6890   40.2210   52.6300 C.3       6 GLP5        0.0000 
     24 CA         21.5470   36.1905   49.8085 C.3       3 GLC5        0.0000 
     25 CA         21.4760   37.8700   48.5690 C.3       9 GLL5        0.0000 
     26 CA         21.6180   34.5110   51.0480 C.3       6 GLP5        0.0000 
     27 CA         23.2150   38.1760   49.9290 C.3       3 GLC5        0.0000 
     28 CA         24.9540   38.4820   51.2890 C.3       6 GLP5        0.0000 
     29 CA         22.7643   32.2632   47.0513 C.3       3 GLC5        0.0000 
     30 CA         24.4680   31.2690   46.6360 C.3       6 GLP5        0.0000 
     31 CA         20.8091   33.3700   49.1839 C.3       3 GLC5        0.0000 
     32 CA         21.6150   33.6940   47.4970 C.3       9 GLL5        0.0000 
     33 CA         21.2092   34.9398   49.2155 C.3       3 GLC5        0.0000 
     34 CA         21.4640   35.0910   47.4480 C.3       9 GLL5        0.0000 
     35 CA         19.9146   36.3956   45.8148 C.3       3 GLC5        0.0000 
     36 CA         19.9230   37.7170   44.3260 C.3       6 GLP5        0.0000 
     37 CA         25.0757   38.7602   46.5192 C.3       3 GLC5        0.0000 
     38 CA         23.0790   38.1890   46.6690 C.3       9 GLL5        0.0000 
     39 CA         27.1850   38.6230   46.3400 C.3       6 GLP5        0.0000 
     40 CA         21.3601   38.2006   45.6284 C.3       3 GLC5        0.0000 
     41 CA         22.8540   39.6060   46.7280 C.3       9 GLL5        0.0000 
     42 CA         22.2195   41.2275   46.4205 C.3       3 GLC5        0.0000 
     43 CA         22.0380   42.5990   45.6170 C.3       6 GLP5        0.0000 
@<TRIPOS>BOND
@<TRIPOS>SUBSTRUCTURE
     1 ALC1        1 GROUP        1 X    ALC  0     ROOT ALC X 1
     2 SEC2        4 GROUP        1 X    SEC  0     **** SEC X 2
     3 GLC5       10 GROUP        1 X    GLC  0     **** GLC X 6
     4 ALP1        3 GROUP        1 Y    ALP  0     ROOT ALP Y 8
     5 SEP2        6 GROUP        1 Y    SEP  0     **** SEP Y 9
     6 GLP5       12 GROUP        1 Y    GLP  0     **** GLP Y 13
     7 ALL1        2 GROUP        1 Z    ALL  0     ROOT ALL Z 15
     8 SEL2        5 GROUP        1 Z    SEL  0     **** SEL Z 16
     9 GLL5       11 GROUP        1 Z    GLL  0     **** GLL Z 20
@<TRIPOS>SET

