#    Name: 1g4k_HQQ_1_ligand
#    Modification time : Tue Mar 25 02:33:04 2014

@<TRIPOS>MOLECULE
1g4k_HQQ_1_ligand
   36    38     1     0     0
SMALL
NO_CHARGES


@<TRIPOS>ATOM
      1 N1         18.8820   30.3150   48.1300 N.am      1 HQQ306      0.0000 
      2 C2         18.6140   30.6800   49.4380 C.2       1 HQQ306      0.0000 
      3 O2         18.9420   30.0180   50.4600 O.2       1 HQQ306      0.0000 
      4 N3         17.7000   31.6700   49.6550 N.am      1 HQQ306      0.0000 
      5 C4         17.4320   32.6420   48.7170 C.2       1 HQQ306      0.0000 
      6 O4         16.4050   33.3020   48.9930 O.2       1 HQQ306      0.0000 
      7 C5         17.8880   32.3950   47.2630 C.3       1 HQQ306      0.0000 
      8 C6         18.3950   30.9600   47.0320 C.2       1 HQQ306      0.0000 
      9 O6         18.6510   30.6210   45.8620 O.2       1 HQQ306      0.0000 
     10 C7         16.7220   32.6850   46.2550 C.3       1 HQQ306      0.0000 
     11 C8         19.1570   33.3550   47.2810 C.ar      1 HQQ306      0.0000 
     12 C9         20.5060   32.8210   47.4360 C.ar      1 HQQ306      0.0000 
     13 C10        21.6150   33.6940   47.4970 C.ar      1 HQQ306      0.0000 
     14 C11        21.4640   35.0910   47.4480 C.ar      1 HQQ306      0.0000 
     15 C12        20.1370   35.6460   47.3180 C.ar      1 HQQ306      0.0000 
     16 C13        19.0120   34.7800   47.2240 C.ar      1 HQQ306      0.0000 
     17 O11        22.6130   35.9220   47.4880 O.3       1 HQQ306      0.0000 
     18 C14        22.4020   37.3360   47.5980 C.ar      1 HQQ306      0.0000 
     19 C15        23.0790   38.1890   46.6690 C.ar      1 HQQ306      0.0000 
     20 C16        22.8540   39.6060   46.7280 C.ar      1 HQQ306      0.0000 
     21 C17        21.9480   40.1060   47.7200 C.ar      1 HQQ306      0.0000 
     22 C18        21.2530   39.2790   48.6340 C.ar      1 HQQ306      0.0000 
     23 C19        21.4760   37.8700   48.5690 C.ar      1 HQQ306      0.0000 
     24 H          19.5137   29.4700   47.9795 H         1 HQQ306      0.0000 
     25 H          20.6269   31.8148   47.4984 H         1 HQQ306      0.0000 
     26 H          22.5651   33.2907   47.5802 H         1 HQQ306      0.0000 
     27 H          20.0173   36.6519   47.2947 H         1 HQQ306      0.0000 
     28 H          18.0733   35.1803   47.1128 H         1 HQQ306      0.0000 
     29 H          23.7061   37.8020   45.9814 H         1 HQQ306      0.0000 
     30 H          23.3170   40.2259   46.0942 H         1 HQQ306      0.0000 
     31 H          21.7978   41.1374   47.7645 H         1 HQQ306      0.0000 
     32 H          20.6201   39.6658   49.3109 H         1 HQQ306      0.0000 
     33 H          20.9912   37.2431   49.1969 H         1 HQQ306      0.0000 
     34 H          17.0025   32.5293   45.3079 H         1 HQQ306      0.0000 
     35 H          15.9292   32.0999   46.4259 H         1 HQQ306      0.0000 
     36 H          16.4059   33.6318   46.3152 H         1 HQQ306      0.0000 
@<TRIPOS>BOND
     1    2    1 1    
     2    8    1 1    
     3   24    1 1    
     4    3    2 2    
     5    4    2 1    
     6    5    4 1    
     7    6    5 2    
     8    7    5 1    
     9    8    7 1    
    10   10    7 1    
    11   11    7 1    
    12    9    8 2    
    13   34   10 1    
    14   35   10 1    
    15   36   10 1    
    16   12   11 ar   
    17   16   11 ar   
    18   13   12 ar   
    19   25   12 1    
    20   14   13 ar   
    21   26   13 1    
    22   15   14 ar   
    23   17   14 1    
    24   16   15 ar   
    25   27   15 1    
    26   28   16 1    
    27   18   17 1    
    28   19   18 ar   
    29   23   18 ar   
    30   20   19 ar   
    31   29   19 1    
    32   21   20 ar   
    33   30   20 1    
    34   22   21 ar   
    35   31   21 1    
    36   23   22 ar   
    37   32   22 1    
    38   33   23 1    
@<TRIPOS>SUBSTRUCTURE
     1 HQQ306      1 GROUP   
@<TRIPOS>SET

