#    Name: 2jbs_FMN_3_INTS_M
#    Modification time : Tue Mar 25 19:55:19 2014

@<TRIPOS>MOLECULE
2jbs_FMN_3_INTS_M
   71     0    12     0     0
SMALL
NO_CHARGES


@<TRIPOS>ATOM
      1 N          16.2355   62.7005   57.0520 N.am      2 SEC2        0.0000 
      2 N          15.3110   61.4800   57.0980 N.am     10 SEL2        0.0000 
      3 N          17.1600   63.9210   57.0060 N.am      6 SEP2        0.0000 
      4 O          13.0915   62.4810   58.7000 O.2       1 ALC1        0.0000 
      5 O          13.3860   60.8960   58.1480 O.2       9 ALL1        0.0000 
      6 O          12.7970   64.0660   59.2520 O.2       5 ALP1        0.0000 
      7 O          14.1635   61.3815   59.4515 O.2       1 ALC1        0.0000 
      8 O          14.9410   61.8670   60.7550 O.2       5 ALP1        0.0000 
      9 N          10.1560   60.9065   59.1340 N.am      2 SEC2        0.0000 
     10 N          11.3370   60.3920   58.9850 N.am     10 SEL2        0.0000 
     11 N           8.9750   61.4210   59.2830 N.am      6 SEP2        0.0000 
     12 N           9.9220   59.4560   58.9105 N.am      2 SEC2        0.0000 
     13 N           8.5070   58.5200   58.8360 N.am      6 SEP2        0.0000 
     14 N           9.6230   58.5685   57.8720 N.am      2 SEC2        0.0000 
     15 N          10.7390   58.6170   56.9080 N.am     10 SEL2        0.0000 
     16 CA          7.9310   58.7840   55.9615 C.3       4 GLC5        0.0000 
     17 CA          9.3100   57.1160   55.7230 C.3      12 GLL5        0.0000 
     18 CA          6.5520   60.4520   56.2000 C.3       8 GLP5        0.0000 
     19 CA          9.3425   54.7075   55.8415 C.3       4 GLC5        0.0000 
     20 CA          8.0190   55.2270   54.8160 C.3      12 GLL5        0.0000 
     21 CA         10.6660   54.1880   56.8670 C.3       8 GLP5        0.0000 
     22 CA          7.1795   53.4805   55.4180 C.3       4 GLC5        0.0000 
     23 CA          6.3400   51.7340   56.0200 C.3       8 GLP5        0.0000 
     24 CA          7.3810   53.8455   53.7295 C.3       4 GLC5        0.0000 
     25 CA          6.7430   52.4640   52.6430 C.3       8 GLP5        0.0000 
     26 CA         10.4425   54.5340   54.8880 C.3       4 GLC5        0.0000 
     27 CA         10.2190   54.8800   52.9090 C.3      12 GLL5        0.0000 
     28 CA          8.6200   54.2225   52.0675 C.3       4 GLC5        0.0000 
     29 CA          7.0210   53.5650   51.2260 C.3       8 GLP5        0.0000 
     30 CA         11.9645   54.1885   52.4000 C.3       4 GLC5        0.0000 
     31 CA         13.7100   53.4970   51.8910 C.3       8 GLP5        0.0000 
     32 CA         11.9715   60.4480   53.7110 C.3       4 GLC5        0.0000 
     33 CA         13.1530   59.0660   53.4880 C.3      12 GLL5        0.0000 
     34 CA         10.7900   61.8300   53.9340 C.3       8 GLP5        0.0000 
     35 N          16.9000   57.9885   54.4150 N.am      2 SEC2        0.0000 
     36 N          15.5170   58.6890   54.2250 N.am     10 SEL2        0.0000 
     37 N          18.2830   57.2880   54.6050 N.am      6 SEP2        0.0000 
     38 CA         17.1395   58.9770   52.6340 C.3       4 GLC5        0.0000 
     39 CA         15.0930   58.8110   51.8870 C.3      12 GLL5        0.0000 
     40 CA         19.1860   59.1430   53.3810 C.3       8 GLP5        0.0000 
     41 CA         12.3895   57.3265   50.0705 C.3       4 GLC5        0.0000 
     42 CA         14.1640   58.3540   50.7730 C.3      12 GLL5        0.0000 
     43 CA         10.6150   56.2990   49.3680 C.3       8 GLP5        0.0000 
     44 N          14.8310   55.7825   51.1935 N.am      2 SEC2        0.0000 
     45 N          13.8350   56.9860   50.9620 N.am     10 SEL2        0.0000 
     46 N          15.8270   54.5790   51.4250 N.am      6 SEP2        0.0000 
     47 CA         16.3965   59.7035   49.0785 C.3       4 GLC5        0.0000 
     48 CA         14.9020   58.5170   49.4610 C.3      12 GLL5        0.0000 
     49 CA         17.8910   60.8900   48.6960 C.3       8 GLP5        0.0000 
     50 N          11.2750   57.2000   46.6155 N.am      2 SEC2        0.0000 
     51 N          12.8620   57.1630   46.7980 N.am     10 SEL2        0.0000 
     52 N           9.6880   57.2370   46.4330 N.am      6 SEP2        0.0000 
     53 NZ         15.4295   56.2395   45.1950 N.4       3 LYC4        0.0000 
     54 NZ         15.3860   57.5130   46.2440 N.4      11 LYL4        0.0000 
     55 NZ         15.3560   55.4650   42.9210 N.4       7 LYP4        0.0000 
     56 N          15.4295   56.2395   45.1950 N.am      2 SEC2        0.0000 
     57 N          15.3860   57.5130   46.2440 N.am     10 SEL2        0.0000 
     58 N          15.4730   54.9660   44.1460 N.am      6 SEP2        0.0000 
     59 CA         10.8652   59.8265   54.5950 C.3       4 GLC5        0.0000 
     60 CA         11.3970   57.7990   54.7250 C.3      12 GLL5        0.0000 
     61 CA         12.3152   56.5880   55.0545 C.3       4 GLC5        0.0000 
     62 CA         13.6900   55.3530   54.8530 C.3       8 GLP5        0.0000 
     63 CA         12.1165   55.9905   54.2088 C.3       4 GLC5        0.0000 
     64 CA          9.9650   56.2370   53.5290 C.3      12 GLL5        0.0000 
     65 CA         10.6107   56.2939   51.3888 C.3       4 GLC5        0.0000 
     66 CA         11.1210   57.0190   53.6000 C.3      12 GLL5        0.0000 
     67 CA         13.7647   57.0438   54.1073 C.3       4 GLC5        0.0000 
     68 CA         16.1943   57.3680   51.7260 C.3       4 GLC5        0.0000 
     69 CA         14.5260   58.4030   53.2350 C.3      12 GLL5        0.0000 
     70 CA         17.5790   56.1290   50.8910 C.3       8 GLP5        0.0000 
     71 CA         16.0560   57.2823   50.5040 C.3       4 GLC5        0.0000 
@<TRIPOS>BOND
@<TRIPOS>SUBSTRUCTURE
     1 ALC1        4 GROUP        1 X    ALC  0     ROOT ALC X 1
     2 SEC2        1 GROUP        1 X    SEC  0     **** SEC X 2
     3 LYC4       53 GROUP        1 X    LYC  0     **** LYC X 4
     4 GLC5       16 GROUP        1 X    GLC  0     **** GLC X 6
     5 ALP1        6 GROUP        1 Y    ALP  0     ROOT ALP Y 8
     6 SEP2        3 GROUP        1 Y    SEP  0     **** SEP Y 9
     7 LYP4       55 GROUP        1 Y    LYP  0     **** LYP Y 11
     8 GLP5       18 GROUP        1 Y    GLP  0     **** GLP Y 13
     9 ALL1        5 GROUP        1 Z    ALL  0     ROOT ALL Z 15
    10 SEL2        2 GROUP        1 Z    SEL  0     **** SEL Z 16
    11 LYL4       54 GROUP        1 Z    LYL  0     **** LYL Z 18
    12 GLL5       17 GROUP        1 Z    GLL  0     **** GLL Z 20
@<TRIPOS>SET

