#    Name: 2jbs_FMN_3_ligand
#    Modification time : Tue Mar 25 19:55:19 2014

@<TRIPOS>MOLECULE
2jbs_FMN_3_ligand
   50    52     1     0     0
SMALL
NO_CHARGES


@<TRIPOS>ATOM
      1 N1         13.9870   60.0760   55.9880 N.2       1 FMN1423     0.0000 
      2 C2         14.2690   60.8460   57.0850 C.2       1 FMN1423     0.0000 
      3 O2         15.3110   61.4800   57.0980 O.2       1 FMN1423     0.0000 
      4 N3         13.3860   60.8960   58.1480 N.am      1 FMN1423     0.0000 
      5 C4         12.2000   60.1680   58.1160 C.2       1 FMN1423     0.0000 
      6 O4         11.3370   60.3920   58.9850 O.2       1 FMN1423     0.0000 
      7 C4A        11.9120   59.3660   56.9910 C.2       1 FMN1423     0.0000 
      8 N5         10.7390   58.6170   56.9080 N.2       1 FMN1423     0.0000 
      9 C5A        10.4840   57.8470   55.7870 C.ar      1 FMN1423     0.0000 
     10 C6          9.3100   57.1160   55.7230 C.ar      1 FMN1423     0.0000 
     11 C7          9.0410   56.3180   54.6040 C.ar      1 FMN1423     0.0000 
     12 C7M         8.0190   55.2270   54.8160 C.3       1 FMN1423     0.0000 
     13 C8          9.9650   56.2370   53.5290 C.ar      1 FMN1423     0.0000 
     14 C8M        10.2190   54.8800   52.9090 C.3       1 FMN1423     0.0000 
     15 C9         11.1210   57.0190   53.6000 C.ar      1 FMN1423     0.0000 
     16 C9A        11.3970   57.7990   54.7250 C.ar      1 FMN1423     0.0000 
     17 N10        12.5630   58.5530   54.7820 N.pl3     1 FMN1423     0.0000 
     18 C10        12.8240   59.3210   55.9220 C.2       1 FMN1423     0.0000 
     19 C1'        13.1530   59.0660   53.4880 C.3       1 FMN1423     0.0000 
     20 C2'        14.5260   58.4030   53.2350 C.3       1 FMN1423     0.0000 
     21 O2'        15.5170   58.6890   54.2250 O.3       1 FMN1423     0.0000 
     22 C3'        15.0930   58.8110   51.8870 C.3       1 FMN1423     0.0000 
     23 O3'        15.3020   60.2090   51.8560 O.3       1 FMN1423     0.0000 
     24 C4'        14.1640   58.3540   50.7730 C.3       1 FMN1423     0.0000 
     25 O4'        13.8350   56.9860   50.9620 O.3       1 FMN1423     0.0000 
     26 C5'        14.9020   58.5170   49.4610 C.3       1 FMN1423     0.0000 
     27 O5'        14.5190   57.4360   48.6430 O.3       1 FMN1423     0.0000 
     28 P          14.1890   57.8530   47.1440 P.3       1 FMN1423     0.0000 
     29 O1P        12.8620   57.1630   46.7980 O.co2     1 FMN1423     0.0000 
     30 O2P        13.9560   59.3600   47.0780 O.co2     1 FMN1423     0.0000 
     31 O3P        15.3860   57.5130   46.2440 O.co2     1 FMN1423     0.0000 
     32 H          13.6044   61.4766   58.9737 H         1 FMN1423     0.0000 
     33 H           8.6307   57.1542   56.4936 H         1 FMN1423     0.0000 
     34 H          11.7831   57.0198   52.8057 H         1 FMN1423     0.0000 
     35 H          13.2913   60.1407   53.5432 H         1 FMN1423     0.0000 
     36 H          12.4944   58.8277   52.6594 H         1 FMN1423     0.0000 
     37 H          14.3564   57.3123   53.1808 H         1 FMN1423     0.0000 
     38 H          16.0412   58.2744   51.7631 H         1 FMN1423     0.0000 
     39 H          13.3047   58.9837   50.7655 H         1 FMN1423     0.0000 
     40 H          15.9692   58.5184   49.6723 H         1 FMN1423     0.0000 
     41 H          14.6231   59.4781   49.0343 H         1 FMN1423     0.0000 
     42 H           7.8697   54.6913   53.9849 H         1 FMN1423     0.0000 
     43 H           8.3018   54.5869   55.5304 H         1 FMN1423     0.0000 
     44 H           7.1313   55.5977   55.0892 H         1 FMN1423     0.0000 
     45 H          10.8849   54.9305   52.1646 H         1 FMN1423     0.0000 
     46 H          10.5755   54.2272   53.5774 H         1 FMN1423     0.0000 
     47 H           9.3836   54.4833   52.5285 H         1 FMN1423     0.0000 
     48 H          15.1509   59.4632   54.7414 H         1 FMN1423     0.0000 
     49 H          16.2608   60.3330   52.1117 H         1 FMN1423     0.0000 
     50 H          14.0101   56.5533   50.0776 H         1 FMN1423     0.0000 
@<TRIPOS>BOND
     1    2    1 1    
     2   18    1 2    
     3    3    2 2    
     4    4    2 am   
     5    5    4 am   
     6   32    4 1    
     7    6    5 2    
     8    7    5 1    
     9    8    7 2    
    10   18    7 1    
    11    9    8 1    
    12   10    9 ar   
    13   16    9 ar   
    14   11   10 ar   
    15   33   10 1    
    16   12   11 1    
    17   13   11 ar   
    18   42   12 1    
    19   43   12 1    
    20   44   12 1    
    21   14   13 1    
    22   15   13 ar   
    23   45   14 1    
    24   46   14 1    
    25   47   14 1    
    26   16   15 ar   
    27   34   15 1    
    28   17   16 1    
    29   18   17 1    
    30   19   17 1    
    31   20   19 1    
    32   35   19 1    
    33   36   19 1    
    34   21   20 1    
    35   22   20 1    
    36   37   20 1    
    37   48   21 1    
    38   23   22 1    
    39   24   22 1    
    40   38   22 1    
    41   49   23 1    
    42   25   24 1    
    43   26   24 1    
    44   39   24 1    
    45   50   25 1    
    46   27   26 1    
    47   40   26 1    
    48   41   26 1    
    49   28   27 1    
    50   29   28 ar   
    51   30   28 ar   
    52   31   28 ar   
@<TRIPOS>SUBSTRUCTURE
     1 FMN1423     1 GROUP   
@<TRIPOS>SET

