#    Name: 4CCZ_1_CAVITY_N1_ALL.mol2
#    Modification time : Mon Mar 10 13:02:12 2014

@<TRIPOS>MOLECULE
4CCZ_1_CAVITY_N1_ALL.mol2
   93     0     4     0     0
SMALL
NO_CHARGES


@<TRIPOS>ATOM
      1 CA        -29.1142   51.6869    5.1454 C.3       3 GLY6        0.0000 
      2 CA        -29.6529   53.2846    3.8580 C.3       3 GLY6        0.0000 
      3 O         -30.0480   51.2808    3.2845 O.2       1 ALA2        0.0000 
      4 N         -30.3340   50.9280    4.7141 N.2       1 ALA2        0.0000 
      5 CA        -30.8728   52.5256    3.4267 C.3       3 GLY6        0.0000 
      6 O         -30.4432   49.2771    2.7110 O.2       1 ALA2        0.0000 
      7 DU        -31.2679   50.5219    2.8532 H         4 CUB7        0.0000 
      8 N         -31.5539   50.1691    4.2828 N.2       1 ALA2        0.0000 
      9 O         -32.0926   51.7667    2.9954 O.2       1 ALA2        0.0000 
     10 CA        -32.3786   51.4140    4.4250 C.3       3 GLY6        0.0000 
     11 N         -30.5523   47.6261    0.7079 N.2       1 ALA2        0.0000 
     12 DU        -31.3770   48.8709    0.8501 H         4 CUB7        0.0000 
     13 N         -31.6630   48.5182    2.2797 N.2       1 ALA2        0.0000 
     14 N         -31.9490   48.1654    3.7093 N.2       1 ALA2        0.0000 
     15 N         -32.2350   47.8126    5.1389 N.2       1 ALA2        0.0000 
     16 DU        -32.4878   49.7630    2.4219 H         4 CUB7        0.0000 
     17 CA        -32.7737   49.4102    3.8515 C.3       3 GLY6        0.0000 
     18 O         -33.0597   49.0574    5.2811 O.2       1 ALA2        0.0000 
     19 O         -33.3125   51.0078    2.5641 O.2       1 ALA2        0.0000 
     20 N         -33.5985   50.6551    3.9937 N.2       1 ALA2        0.0000 
     21 O         -30.6615   45.9752   -1.2952 O.2       1 ALA2        0.0000 
     22 DU        -30.9474   45.6224    0.1344 H         4 CUB7        0.0000 
     23 N         -31.2334   45.2696    1.5640 N.2       1 ALA2        0.0000 
     24 DU        -31.2002   47.5728   -2.5826 H         4 CUB7        0.0000 
     25 DU        -31.4862   47.2200   -1.1530 H         4 CUB7        0.0000 
     26 DU        -31.7722   46.8672    0.2766 H         4 CUB7        0.0000 
     27 N         -32.0581   46.5144    1.7062 N.2       1 ALA2        0.0000 
     28 N         -32.3441   46.1616    3.1358 N.2       1 ALA2        0.0000 
     29 DU        -32.0249   48.8176   -2.4404 H         4 CUB7        0.0000 
     30 DU        -32.5969   48.1120    0.4188 H         4 CUB7        0.0000 
     31 N         -32.8829   47.7593    1.8484 N.2       1 ALA2        0.0000 
     32 CA        -33.1689   47.4065    3.2780 C.3       3 GLY6        0.0000 
     33 O         -33.4548   47.0537    4.7076 O.2       1 ALA2        0.0000 
     34 DU        -33.4216   49.3569    0.5610 H         4 CUB7        0.0000 
     35 CA        -33.7076   49.0041    1.9906 C.3       3 GLY6        0.0000 
     36 CA        -33.9936   48.6513    3.4202 C.3       3 GLY6        0.0000 
     37 CA        -34.2796   48.2985    4.8498 C.3       3 GLY6        0.0000 
     38 CA        -34.2463   50.6017    0.7032 C.3       3 GLY6        0.0000 
     39 CA        -34.5323   50.2489    2.1328 C.3       3 GLY6        0.0000 
     40 DU        -35.0711   51.8465    0.8454 H         4 CUB7        0.0000 
     41 NZ        -31.3426   43.6186   -0.4391 N.2       2 LYS4        0.0000 
     42 CA        -31.6285   43.2659    0.9905 C.3       3 GLY6        0.0000 
     43 NZ        -31.8813   45.2162   -1.7265 N.2       2 LYS4        0.0000 
     44 NZ        -32.1673   44.8635   -0.2969 N.2       2 LYS4        0.0000 
     45 CA        -32.4533   44.5107    1.1327 C.3       3 GLY6        0.0000 
     46 CA        -32.7393   44.1579    2.5623 C.3       3 GLY6        0.0000 
     47 NZ        -32.4201   46.8139   -3.0139 N.2       2 LYS4        0.0000 
     48 NZ        -32.7060   46.4611   -1.5843 N.2       2 LYS4        0.0000 
     49 NZ        -32.9920   46.1083   -0.1547 N.2       2 LYS4        0.0000 
     50 DU        -33.2780   45.7555    1.2749 H         4 CUB7        0.0000 
     51 O         -33.5640   45.4027    2.7045 O.2       1 ALA2        0.0000 
     52 O         -32.9588   48.4115   -4.3013 O.2       1 ALA2        0.0000 
     53 NZ        -33.2448   48.0587   -2.8717 N.2       2 LYS4        0.0000 
     54 NZ        -33.5308   47.7059   -1.4421 N.2       2 LYS4        0.0000 
     55 DU        -33.8167   47.3531   -0.0125 H         4 CUB7        0.0000 
     56 CA        -34.1027   47.0003    1.4171 C.3       3 GLY6        0.0000 
     57 NZ        -34.3887   46.6476    2.8467 N.2       2 LYS4        0.0000 
     58 CA        -33.7835   49.6563   -4.1591 C.3       3 GLY6        0.0000 
     59 DU        -34.0695   49.3035   -2.7295 H         4 CUB7        0.0000 
     60 DU        -34.3555   48.9507   -1.2999 H         4 CUB7        0.0000 
     61 CA        -34.6415   48.5980    0.1297 C.3       3 GLY6        0.0000 
     62 DU        -34.8942   50.5483   -2.5873 H         4 CUB7        0.0000 
     63 DU        -35.1802   50.1956   -1.1577 H         4 CUB7        0.0000 
     64 DU        -36.0049   51.4404   -1.0155 H         4 CUB7        0.0000 
     65 NZ        -34.2119   45.3494   -0.5860 N.2       2 LYS4        0.0000 
     66 O         -34.4979   44.9966    0.8436 O.2       1 ALA2        0.0000 
     67 NZ        -34.7838   44.6438    2.2732 N.2       2 LYS4        0.0000 
     68 NZ        -34.4646   47.2998   -3.3030 N.2       2 LYS4        0.0000 
     69 NZ        -34.7506   46.9470   -1.8734 N.2       2 LYS4        0.0000 
     70 N         -35.0366   46.5942   -0.4438 N.2       1 ALA2        0.0000 
     71 N         -35.3226   46.2414    0.9858 N.2       1 ALA2        0.0000 
     72 O         -35.0034   48.8974   -4.5904 O.2       1 ALA2        0.0000 
     73 NZ        -35.2894   48.5446   -3.1608 N.2       2 LYS4        0.0000 
     74 DU        -35.5753   48.1918   -1.7312 H         4 CUB7        0.0000 
     75 CA        -35.8613   47.8390   -0.3016 C.3       3 GLY6        0.0000 
     76 CA        -35.8281   50.1422   -4.4482 C.3       3 GLY6        0.0000 
     77 DU        -36.1141   49.7894   -3.0186 H         4 CUB7        0.0000 
     78 DU        -36.4001   49.4367   -1.5890 H         4 CUB7        0.0000 
     79 CA        -36.6861   49.0839   -0.1594 C.3       3 GLY6        0.0000 
     80 CA        -36.6528   51.3870   -4.3060 C.3       3 GLY6        0.0000 
     81 DU        -36.9388   51.0343   -2.8764 H         4 CUB7        0.0000 
     82 CA        -37.2248   50.6815   -1.4468 C.3       3 GLY6        0.0000 
     83 NZ        -35.9705   46.1881   -2.3047 N.2       2 LYS4        0.0000 
     84 N         -36.5092   47.7857   -3.5921 N.2       1 ALA2        0.0000 
     85 N         -36.7952   47.4329   -2.1625 N.2       1 ALA2        0.0000 
     86 N         -37.0812   47.0801   -0.7329 N.2       1 ALA2        0.0000 
     87 N         -37.3339   49.0305   -3.4499 N.2       1 ALA2        0.0000 
     88 CA        -37.6199   48.6777   -2.0203 C.3       3 GLY6        0.0000 
     89 CA        -37.9059   48.3250   -0.5907 C.3       3 GLY6        0.0000 
     90 CA        -37.8727   50.6281   -4.7373 C.3       3 GLY6        0.0000 
     91 CA        -38.1587   50.2754   -3.3077 C.3       3 GLY6        0.0000 
     92 CA        -38.4446   49.9226   -1.8781 C.3       3 GLY6        0.0000 
     93 N         -38.5538   48.2716   -3.8812 N.2       1 ALA2        0.0000 
@<TRIPOS>BOND
@<TRIPOS>SUBSTRUCTURE
     1 ALA2        3 GROUP   
     2 LYS4       41 GROUP   
     3 GLY6        1 GROUP   
     4 CUB7        7 GROUP   
@<TRIPOS>SET

