#    Name: 4ccz_THG_1_INTS_M
#    Modification time : Tue Mar 25 09:11:49 2014

@<TRIPOS>MOLECULE
4ccz_THG_1_INTS_M
   56     0    12     0     0
SMALL
NO_CHARGES


@<TRIPOS>ATOM
      1 O         -35.2825   46.0310    3.7165 O.2       1 ALC1        0.0000 
      2 O         -34.2340   46.3220    2.8070 O.2       9 ALL1        0.0000 
      3 O         -36.3310   45.7400    4.6260 O.2       5 ALP1        0.0000 
      4 N         -35.2545   44.0645   -0.0220 N.am      2 SEC2        0.0000 
      5 N         -34.2230   45.2150    0.7110 N.am     10 SEL2        0.0000 
      6 N         -36.2860   42.9140   -0.7550 N.am      6 SEP2        0.0000 
      7 CA        -33.4260   43.5650    0.9675 C.3       4 GLC5        0.0000 
      8 CA        -32.9190   45.4340    0.5300 C.3      12 GLL5        0.0000 
      9 CA        -33.9330   41.6960    1.4050 C.3       8 GLP5        0.0000 
     10 CA        -31.8030   45.0675    3.2785 C.3       4 GLC5        0.0000 
     11 CA        -32.1630   46.1870    1.5580 C.3      12 GLL5        0.0000 
     12 CA        -31.4430   43.9480    4.9990 C.3       8 GLP5        0.0000 
     13 O         -33.1625   44.1450   -1.5405 O.2       1 ALC1        0.0000 
     14 O         -32.2980   45.0200   -0.5960 O.2       9 ALL1        0.0000 
     15 O         -34.0270   43.2700   -2.4850 O.2       5 ALP1        0.0000 
     16 N         -30.2520   46.6590    2.7090 N.am      2 SEC2        0.0000 
     17 N         -30.8360   46.3710    1.4170 N.am     10 SEL2        0.0000 
     18 N         -29.6680   46.9470    4.0010 N.am      6 SEP2        0.0000 
     19 CA        -30.6795   44.0655    3.0225 C.3       4 GLC5        0.0000 
     20 CA        -29.9160   44.1830    1.0460 C.3      12 GLL5        0.0000 
     21 CA        -30.5415   42.2410    1.2920 C.3       4 GLC5        0.0000 
     22 CA        -31.1670   40.2990    1.5380 C.3       8 GLP5        0.0000 
     23 CA        -25.7735   41.0085    0.7505 C.3       4 GLC5        0.0000 
     24 CA        -25.2270   43.0380    0.2600 C.3      12 GLL5        0.0000 
     25 CA        -26.3200   38.9790    1.2410 C.3       8 GLP5        0.0000 
     26 O         -22.7140   43.4950   -0.9120 O.2       1 ALC1        0.0000 
     27 O         -22.4510   44.0900    0.4220 O.2       9 ALL1        0.0000 
     28 O         -22.9770   42.9000   -2.2460 O.2       5 ALP1        0.0000 
     29 NZ        -20.1410   47.9335    1.6905 N.4       3 LYC4        0.0000 
     30 NZ        -20.2790   46.1490    1.9410 N.4      11 LYL4        0.0000 
     31 NZ        -20.0030   49.7180    1.4400 N.4       7 LYP4        0.0000 
     32 NZ        -19.9570   45.6255    3.1440 N.4       3 LYC4        0.0000 
     33 NZ        -20.5170   44.9170    5.3270 N.4       7 LYP4        0.0000 
     34 N         -19.9570   45.6255    3.1440 N.am      2 SEC2        0.0000 
     35 N         -20.2790   46.1490    1.9410 N.am     10 SEL2        0.0000 
     36 N         -19.6350   45.1020    4.3470 N.am      6 SEP2        0.0000 
     37 NZ        -20.5970   48.1850    0.7240 N.4       3 LYC4        0.0000 
     38 NZ        -21.1910   46.6520    0.0080 N.4      11 LYL4        0.0000 
     39 N         -19.3990   42.3705   -4.1500 N.am      2 SEC2        0.0000 
     40 N         -18.9040   42.8130   -2.7450 N.am     10 SEL2        0.0000 
     41 N         -19.8940   41.9280   -5.5550 N.am      6 SEP2        0.0000 
     42 N         -22.3970   44.8295    3.8230 N.am      2 SEC2        0.0000 
     43 N         -22.9870   44.5380    2.5520 N.am     10 SEL2        0.0000 
     44 N         -21.8070   45.1210    5.0940 N.am      6 SEP2        0.0000 
     45 O         -36.9725   44.9915    0.6375 O.2       1 ALC1        0.0000 
     46 O         -36.1920   45.3850    1.9390 O.2       9 ALL1        0.0000 
     47 O         -37.7530   44.5980   -0.6640 O.2       5 ALP1        0.0000 
     48 O         -36.2615   45.5625    3.2825 O.2       1 ALC1        0.0000 
     49 CA        -27.4100   41.2948    0.6033 C.3       4 GLC5        0.0000 
     50 CA        -27.5260   43.6730    0.6560 C.3      12 GLL5        0.0000 
     51 CA        -27.7640   39.3200    0.8700 C.3       8 GLP5        0.0000 
     52 CA        -25.3444   43.7304    3.1016 C.3       4 GLC5        0.0000 
     53 CA        -24.7920   44.0200    1.1480 C.3      12 GLL5        0.0000 
     54 CA        -25.0890   43.0800    4.7950 C.3       8 GLP5        0.0000 
     55 CA        -25.1154   43.8618   -1.4278 C.3       4 GLC5        0.0000 
     56 CA        -24.4330   44.5260   -3.2160 C.3       8 GLP5        0.0000 
@<TRIPOS>BOND
@<TRIPOS>SUBSTRUCTURE
     1 ALC1        1 GROUP        1 X    ALC  0     ROOT ALC X 1
     2 SEC2        4 GROUP        1 X    SEC  0     **** SEC X 2
     3 LYC4       29 GROUP        1 X    LYC  0     **** LYC X 4
     4 GLC5        7 GROUP        1 X    GLC  0     **** GLC X 6
     5 ALP1        3 GROUP        1 Y    ALP  0     ROOT ALP Y 8
     6 SEP2        6 GROUP        1 Y    SEP  0     **** SEP Y 9
     7 LYP4       31 GROUP        1 Y    LYP  0     **** LYP Y 11
     8 GLP5        9 GROUP        1 Y    GLP  0     **** GLP Y 13
     9 ALL1        2 GROUP        1 Z    ALL  0     ROOT ALL Z 15
    10 SEL2        5 GROUP        1 Z    SEL  0     **** SEL Z 16
    11 LYL4       30 GROUP        1 Z    LYL  0     **** LYL Z 18
    12 GLL5        8 GROUP        1 Z    GLL  0     **** GLL Z 20
@<TRIPOS>SET

