#    Name: 4ccz_THG_1_ligand
#    Modification time : Tue Mar 25 09:11:49 2014

@<TRIPOS>MOLECULE
4ccz_THG_1_ligand
   52    54     1     0     0
SMALL
NO_CHARGES


@<TRIPOS>ATOM
      1 N3        -34.2340   46.3220    2.8070 N.am      1 THG1652     0.0000 
      2 C2        -34.8650   45.6410    1.8130 C.2       1 THG1652     0.0000 
      3 N1        -34.2230   45.2150    0.7110 N.2       1 THG1652     0.0000 
      4 C8A       -32.9190   45.4340    0.5300 C.2       1 THG1652     0.0000 
      5 C4A       -32.1630   46.1870    1.5580 C.2       1 THG1652     0.0000 
      6 C4        -32.9180   46.6190    2.7550 C.2       1 THG1652     0.0000 
      7 N8        -32.2980   45.0200   -0.5960 N.pl3     1 THG1652     0.0000 
      8 C7        -30.9210   45.4080   -0.8610 C.3       1 THG1652     0.0000 
      9 C6        -30.1310   45.5690    0.4360 C.3       1 THG1652     0.0000 
     10 N5        -30.8360   46.3710    1.4170 N.3       1 THG1652     0.0000 
     11 C9        -29.9160   44.1830    1.0460 C.3       1 THG1652     0.0000 
     12 N10       -28.8410   43.4600    0.3930 N.pl3     1 THG1652     0.0000 
     13 C4'       -27.5260   43.6730    0.6560 C.ar      1 THG1652     0.0000 
     14 C3'       -27.0870   44.6550    1.5480 C.ar      1 THG1652     0.0000 
     15 C2'       -25.7280   44.8280    1.7890 C.ar      1 THG1652     0.0000 
     16 C1'       -24.7920   44.0200    1.1480 C.ar      1 THG1652     0.0000 
     17 C6'       -25.2270   43.0380    0.2600 C.ar      1 THG1652     0.0000 
     18 C5'       -26.5860   42.8660    0.0170 C.ar      1 THG1652     0.0000 
     19 C11       -23.3290   44.2250    1.4210 C.2       1 THG1652     0.0000 
     20 N         -22.4510   44.0900    0.4220 N.am      1 THG1652     0.0000 
     21 CA        -21.0350   44.3570    0.5950 C.3       1 THG1652     0.0000 
     22 C         -20.8150   45.8190    0.8620 C.2       1 THG1652     0.0000 
     23 OX2       -20.2790   46.1490    1.9410 O.co2     1 THG1652     0.0000 
     24 OX1       -21.1910   46.6520    0.0080 O.co2     1 THG1652     0.0000 
     25 CB        -20.2440   43.9260   -0.6390 C.3       1 THG1652     0.0000 
     26 CG        -20.0670   42.4080   -0.6850 C.3       1 THG1652     0.0000 
     27 CD        -19.3010   41.9620   -1.9170 C.2       1 THG1652     0.0000 
     28 OE1       -19.0870   40.7380   -2.0660 O.co2     1 THG1652     0.0000 
     29 OE2       -18.9040   42.8130   -2.7450 O.co2     1 THG1652     0.0000 
     30 O11       -22.9870   44.5380    2.5520 O.2       1 THG1652     0.0000 
     31 O4        -32.3720   47.2460    3.6870 O.2       1 THG1652     0.0000 
     32 N2        -36.1920   45.3850    1.9390 N.pl3     1 THG1652     0.0000 
     33 H         -34.7966   46.6271    3.6467 H         1 THG1652     0.0000 
     34 H         -32.7604   44.4275   -1.2968 H         1 THG1652     0.0000 
     35 H         -30.8795   46.3619   -1.4058 H         1 THG1652     0.0000 
     36 H         -30.4122   44.6541   -1.4784 H         1 THG1652     0.0000 
     37 H         -29.1680   45.9808    0.2124 H         1 THG1652     0.0000 
     38 H         -30.8670   43.6294    0.9706 H         1 THG1652     0.0000 
     39 H         -29.7068   44.3156    2.1208 H         1 THG1652     0.0000 
     40 H         -29.1345   42.7421   -0.3143 H         1 THG1652     0.0000 
     41 H         -27.7749   45.2519    2.0277 H         1 THG1652     0.0000 
     42 H         -25.4116   45.5568    2.4444 H         1 THG1652     0.0000 
     43 H         -24.5398   42.4385   -0.2171 H         1 THG1652     0.0000 
     44 H         -26.9013   42.1369   -0.6401 H         1 THG1652     0.0000 
     45 H         -22.7454   43.7851   -0.5321 H         1 THG1652     0.0000 
     46 H         -20.6508   43.7950    1.4455 H         1 THG1652     0.0000 
     47 H         -19.2621   44.4009   -0.6202 H         1 THG1652     0.0000 
     48 H         -20.7717   44.2526   -1.5362 H         1 THG1652     0.0000 
     49 H         -21.0541   41.9346   -0.6794 H         1 THG1652     0.0000 
     50 H         -19.5308   42.0852    0.2132 H         1 THG1652     0.0000 
     51 H         -36.5278   45.2516    2.8714 H         1 THG1652     0.0000 
     52 H         -36.7166   45.3524    1.0883 H         1 THG1652     0.0000 
@<TRIPOS>BOND
     1    2    1 1    
     2    6    1 am   
     3   33    1 1    
     4    3    2 2    
     5   32    2 1    
     6    4    3 1    
     7    5    4 2    
     8    7    4 1    
     9    6    5 1    
    10   10    5 1    
    11   31    6 2    
    12    8    7 1    
    13   34    7 1    
    14    9    8 1    
    15   35    8 1    
    16   36    8 1    
    17   10    9 1    
    18   11    9 1    
    19   37    9 1    
    20   12   11 1    
    21   38   11 1    
    22   39   11 1    
    23   13   12 1    
    24   40   12 1    
    25   14   13 ar   
    26   18   13 ar   
    27   15   14 ar   
    28   41   14 1    
    29   16   15 ar   
    30   42   15 1    
    31   17   16 ar   
    32   19   16 1    
    33   18   17 ar   
    34   43   17 1    
    35   44   18 1    
    36   20   19 am   
    37   30   19 2    
    38   21   20 1    
    39   45   20 1    
    40   22   21 1    
    41   25   21 1    
    42   46   21 1    
    43   23   22 ar   
    44   24   22 ar   
    45   26   25 1    
    46   47   25 1    
    47   48   25 1    
    48   27   26 1    
    49   49   26 1    
    50   50   26 1    
    51   28   27 ar   
    52   29   27 ar   
    53   51   32 1    
    54   52   32 1    
@<TRIPOS>SUBSTRUCTURE
     1 THG1652     1 GROUP   
@<TRIPOS>SET

