#    Name: 4mcv_29K_1_INTS_M
#    Modification time : Tue Apr  8 00:16:59 2014

@<TRIPOS>MOLECULE
4mcv_29K_1_INTS_M
   68     0     9     0     0
SMALL
NO_CHARGES


@<TRIPOS>ATOM
      1 CA         89.6045   74.8225  -40.4930 C.3       3 GLC5        0.0000 
      2 CA         90.3620   74.2620  -38.5440 C.3       9 GLL5        0.0000 
      3 CA         88.8470   75.3830  -42.4420 C.3       6 GLP5        0.0000 
      4 N          83.4290   69.3815  -41.1800 N.am      2 SEC2        0.0000 
      5 N          84.1520   70.4740  -41.4180 N.am      8 SEL2        0.0000 
      6 N          82.7060   68.2890  -40.9420 N.am      5 SEP2        0.0000 
      7 O          85.6515   68.3965  -43.0005 O.2       1 ALC1        0.0000 
      8 O          86.1700   69.5150  -42.3520 O.2       7 ALL1        0.0000 
      9 O          85.1330   67.2780  -43.6490 O.2       4 ALP1        0.0000 
     10 CA         87.8745   67.5755  -42.1010 C.3       3 GLC5        0.0000 
     11 CA         87.5630   69.7990  -42.2070 C.3       9 GLL5        0.0000 
     12 CA         88.1860   65.3520  -41.9950 C.3       6 GLP5        0.0000 
     13 CA         87.3220   72.2690  -43.4300 C.3       3 GLC5        0.0000 
     14 CA         87.9500   70.1570  -43.6440 C.3       9 GLL5        0.0000 
     15 CA         86.6940   74.3810  -43.2160 C.3       6 GLP5        0.0000 
     16 CA         90.1385   71.6560  -45.9895 C.3       3 GLC5        0.0000 
     17 CA         89.4340   69.9700  -45.6240 C.3       9 GLL5        0.0000 
     18 CA         90.8430   73.3420  -46.3550 C.3       6 GLP5        0.0000 
     19 CA         90.7105   69.7015  -47.1935 C.3       3 GLC5        0.0000 
     20 CA         91.9870   69.4330  -48.7630 C.3       6 GLP5        0.0000 
     21 CA         88.2685   68.3425  -46.6150 C.3       3 GLC5        0.0000 
     22 CA         87.1030   66.7150  -47.6060 C.3       6 GLP5        0.0000 
     23 CA         88.4170   66.6015  -43.2650 C.3       3 GLC5        0.0000 
     24 CA         88.6480   67.8510  -44.5350 C.3       9 GLL5        0.0000 
     25 CA         87.8755   67.2830  -46.0705 C.3       3 GLC5        0.0000 
     26 CA         93.6095   72.6985  -42.5910 C.3       3 GLC5        0.0000 
     27 CA         93.1700   71.6480  -40.9450 C.3       9 GLL5        0.0000 
     28 CA         94.0490   73.7490  -44.2370 C.3       6 GLP5        0.0000 
     29 CA         94.2520   69.9175  -40.0475 C.3       3 GLC5        0.0000 
     30 CA         95.3340   68.1870  -39.1500 C.3       6 GLP5        0.0000 
     31 CA         92.8335   70.7290  -35.1490 C.3       3 GLC5        0.0000 
     32 CA         92.3490   72.4040  -36.4420 C.3       9 GLL5        0.0000 
     33 CA         93.3180   69.0540  -33.8560 C.3       6 GLP5        0.0000 
     34 O          92.6550   71.7630  -34.4425 O.2       1 ALC1        0.0000 
     35 O          93.3300   72.0770  -35.4560 O.2       7 ALL1        0.0000 
     36 O          91.9800   71.4490  -33.4290 O.2       4 ALP1        0.0000 
     37 CA         86.8773   72.7512  -42.1260 C.3       3 GLC5        0.0000 
     38 CA         86.4200   71.3170  -40.8320 C.3       9 GLL5        0.0000 
     39 CA         88.4575   74.1320  -41.0177 C.3       3 GLC5        0.0000 
     40 CA         88.7380   72.6710  -39.8120 C.3       9 GLL5        0.0000 
     41 CA         88.8495   69.9285  -39.9313 C.3       3 GLC5        0.0000 
     42 CA         88.8830   71.6200  -40.7180 C.3       9 GLL5        0.0000 
     43 CA         88.0860   68.3250  -39.0270 C.3       6 GLP5        0.0000 
     44 CA         92.3518   71.8295  -43.3468 C.3       3 GLC5        0.0000 
     45 CA         91.1060   70.5680  -41.7470 C.3       9 GLL5        0.0000 
     46 CA         92.9000   73.0470  -44.9430 C.3       6 GLP5        0.0000 
     47 CA         84.3795   75.4360  -39.6780 C.3       3 GLC5        0.0000 
     48 CA         85.6110   74.1010  -38.4050 C.3       9 GLL5        0.0000 
     49 CA         83.5890   76.3620  -41.3260 C.3       6 GLP5        0.0000 
     50 CA         84.5860   73.2595  -36.8070 C.3       3 GLC5        0.0000 
     51 CA         84.7290   74.9190  -37.6550 C.3       9 GLL5        0.0000 
     52 CA         84.0020   72.0090  -35.5840 C.3       6 GLP5        0.0000 
     53 CA         86.0932   70.3360  -43.9402 C.3       3 GLC5        0.0000 
     54 CA         84.4300   70.6940  -44.9550 C.3       6 GLP5        0.0000 
     55 CA         87.6989   69.3926  -40.3243 C.3       3 GLC5        0.0000 
     56 CA         86.1890   73.5757  -41.3815 C.3       3 GLC5        0.0000 
     57 CA         86.2640   72.4400  -39.8640 C.3       9 GLL5        0.0000 
     58 CA         87.4595   71.2597  -38.4059 C.3       3 GLC5        0.0000 
     59 CA         87.7530   69.8590  -37.0830 C.3       6 GLP5        0.0000 
     60 CA         89.5762   73.6810  -41.4684 C.3       3 GLC5        0.0000 
     61 CA         83.3257   75.2867  -39.7443 C.3       3 GLC5        0.0000 
     62 CA         83.3180   74.7170  -37.7460 C.3       9 GLL5        0.0000 
     63 CA         83.5323   73.1103  -36.8733 C.3       3 GLC5        0.0000 
     64 CA         82.8070   73.7060  -38.5790 C.3       9 GLL5        0.0000 
     65 CA         83.7202   73.6118  -40.9008 C.3       3 GLC5        0.0000 
     66 CA         83.6770   72.9020  -39.3170 C.3       9 GLL5        0.0000 
     67 CA         83.0500   74.2220  -42.5280 C.3       6 GLP5        0.0000 
     68 CA         84.1962   72.5053  -37.4288 C.3       3 GLC5        0.0000 
@<TRIPOS>BOND
@<TRIPOS>SUBSTRUCTURE
     1 ALC1        7 GROUP        1 X    ALC  0     ROOT ALC X 1
     2 SEC2        4 GROUP        1 X    SEC  0     **** SEC X 2
     3 GLC5        1 GROUP        1 X    GLC  0     **** GLC X 6
     4 ALP1        9 GROUP        1 Y    ALP  0     ROOT ALP Y 8
     5 SEP2        6 GROUP        1 Y    SEP  0     **** SEP Y 9
     6 GLP5        3 GROUP        1 Y    GLP  0     **** GLP Y 13
     7 ALL1        8 GROUP        1 Z    ALL  0     ROOT ALL Z 15
     8 SEL2        5 GROUP        1 Z    SEL  0     **** SEL Z 16
     9 GLL5        2 GROUP        1 Z    GLL  0     **** GLL Z 20
@<TRIPOS>SET

