#    Name: 4mcv_29K_1_ligand
#    Modification time : Tue Apr  8 00:16:59 2014

@<TRIPOS>MOLECULE
4mcv_29K_1_ligand
   64    69     1     0     0
SMALL
NO_CHARGES


@<TRIPOS>ATOM
      1 C10        86.4200   71.3170  -40.8320 C.ar      1 29K601      0.0000 
      2 C13        88.7380   72.6710  -39.8120 C.ar      1 29K601      0.0000 
      3 C15        90.3430   71.4440  -40.9530 C.ar      1 29K601      0.0000 
      4 C17        92.4240   72.5160  -40.1600 C.ar      1 29K601      0.0000 
      5 C20        91.1060   70.5680  -41.7470 C.ar      1 29K601      0.0000 
      6 C22        90.3620   74.2620  -38.5440 C.3       1 29K601      0.0000 
      7 C24        91.6900   73.7500  -36.3570 C.3       1 29K601      0.0000 
      8 C28        85.6110   74.1010  -38.4050 C.ar      1 29K601      0.0000 
      9 O01        84.1520   70.4740  -41.4180 O.2       1 29K601      0.0000 
     10 C02        85.4330   70.4340  -41.5280 C.2       1 29K601      0.0000 
     11 N03        86.1700   69.5150  -42.3520 N.am      1 29K601      0.0000 
     12 C04        87.5630   69.7990  -42.2070 C.3       1 29K601      0.0000 
     13 C05        87.9500   70.1570  -43.6440 C.3       1 29K601      0.0000 
     14 C06        88.9990   69.3530  -44.3680 C.3       1 29K601      0.0000 
     15 C07        89.4340   69.9700  -45.6240 C.3       1 29K601      0.0000 
     16 C08        88.6480   67.8510  -44.5350 C.3       1 29K601      0.0000 
     17 C09        87.7010   70.9260  -41.2400 C.ar      1 29K601      0.0000 
     18 C11        86.2640   72.4400  -39.8640 C.ar      1 29K601      0.0000 
     19 C12        87.3980   73.0910  -39.3750 C.ar      1 29K601      0.0000 
     20 C14        88.8830   71.6200  -40.7180 C.ar      1 29K601      0.0000 
     21 C16        90.9980   72.4260  -40.1540 C.ar      1 29K601      0.0000 
     22 C18        93.1700   71.6480  -40.9450 C.ar      1 29K601      0.0000 
     23 C19        92.5010   70.6560  -41.7540 C.ar      1 29K601      0.0000 
     24 N21        90.0480   73.1470  -39.4850 N.pl3     1 29K601      0.0000 
     25 C23        90.3360   73.9130  -37.0700 C.3       1 29K601      0.0000 
     26 C25        92.3490   72.4040  -36.4420 C.3       1 29K601      0.0000 
     27 N26        93.3300   72.0770  -35.4560 N.4       1 29K601      0.0000 
     28 N27        86.9910   74.0820  -38.5030 N.pl3     1 29K601      0.0000 
     29 C29        84.7290   74.9190  -37.6550 C.ar      1 29K601      0.0000 
     30 C30        83.3180   74.7170  -37.7460 C.ar      1 29K601      0.0000 
     31 C31        82.8070   73.7060  -38.5790 C.ar      1 29K601      0.0000 
     32 C32        83.6770   72.9020  -39.3170 C.ar      1 29K601      0.0000 
     33 C33        85.1040   73.1010  -39.2300 C.ar      1 29K601      0.0000 
     34 H          92.8772   73.2255  -39.5802 H         1 29K601      0.0000 
     35 H          90.6320   69.8623  -42.3225 H         1 29K601      0.0000 
     36 H          89.6494   75.1036  -38.7192 H         1 29K601      0.0000 
     37 H          91.3683   74.6788  -38.7894 H         1 29K601      0.0000 
     38 H          91.5463   74.0239  -35.2825 H         1 29K601      0.0000 
     39 H          92.3849   74.5278  -36.7599 H         1 29K601      0.0000 
     40 H          85.7980   68.8489  -42.8880 H         1 29K601      0.0000 
     41 H          88.0910   68.9453  -41.9076 H         1 29K601      0.0000 
     42 H          88.2594   71.2467  -43.6552 H         1 29K601      0.0000 
     43 H          87.0028   70.1564  -44.2653 H         1 29K601      0.0000 
     44 H          89.9163   69.3519  -43.6771 H         1 29K601      0.0000 
     45 H          94.1877   71.6902  -40.9679 H         1 29K601      0.0000 
     46 H          93.0661   70.0278  -42.3246 H         1 29K601      0.0000 
     47 H          89.7560   72.9672  -36.9311 H         1 29K601      0.0000 
     48 H          89.7487   74.6915  -36.5230 H         1 29K601      0.0000 
     49 H          92.7925   72.3092  -37.4813 H         1 29K601      0.0000 
     50 H          91.5260   71.6240  -36.4485 H         1 29K601      0.0000 
     51 H          87.5846   74.6778  -38.0284 H         1 29K601      0.0000 
     52 H          85.0960   75.6506  -37.0511 H         1 29K601      0.0000 
     53 H          82.6910   75.3096  -37.2043 H         1 29K601      0.0000 
     54 H          81.7937   73.5630  -38.6411 H         1 29K601      0.0000 
     55 H          83.3231   72.1638  -39.9274 H         1 29K601      0.0000 
     56 H          89.8316   70.8754  -45.4749 H         1 29K601      0.0000 
     57 H          90.1270   69.4184  -46.0883 H         1 29K601      0.0000 
     58 H          88.6742   70.0853  -46.2638 H         1 29K601      0.0000 
     59 H          89.3658   67.3538  -45.0223 H         1 29K601      0.0000 
     60 H          88.5253   67.3979  -43.6520 H         1 29K601      0.0000 
     61 H          87.8008   67.7227  -45.0506 H         1 29K601      0.0000 
     62 H          93.8124   72.8894  -35.1284 H         1 29K601      0.0000 
     63 H          92.9208   71.6368  -34.6568 H         1 29K601      0.0000 
     64 H          94.0218   71.4498  -35.8140 H         1 29K601      0.0000 
@<TRIPOS>BOND
     1   10    1 1    
     2   17    1 ar   
     3   18    1 ar   
     4   19    2 ar   
     5   20    2 ar   
     6   24    2 1    
     7    5    3 ar   
     8   20    3 1    
     9   21    3 ar   
    10   21    4 ar   
    11   22    4 ar   
    12   34    4 1    
    13   23    5 ar   
    14   35    5 1    
    15   24    6 1    
    16   25    6 1    
    17   36    6 1    
    18   37    6 1    
    19   25    7 1    
    20   26    7 1    
    21   38    7 1    
    22   39    7 1    
    23   28    8 1    
    24   29    8 ar   
    25   33    8 ar   
    26   10    9 2    
    27   11   10 am   
    28   12   11 1    
    29   40   11 1    
    30   13   12 1    
    31   17   12 1    
    32   41   12 1    
    33   14   13 1    
    34   42   13 1    
    35   43   13 1    
    36   15   14 1    
    37   16   14 1    
    38   44   14 1    
    39   56   15 1    
    40   57   15 1    
    41   58   15 1    
    42   59   16 1    
    43   60   16 1    
    44   61   16 1    
    45   20   17 ar   
    46   19   18 ar   
    47   33   18 1    
    48   28   19 1    
    49   24   21 1    
    50   23   22 ar   
    51   45   22 1    
    52   46   23 1    
    53   47   25 1    
    54   48   25 1    
    55   27   26 1    
    56   49   26 1    
    57   50   26 1    
    58   62   27 1    
    59   63   27 1    
    60   64   27 1    
    61   51   28 1    
    62   30   29 ar   
    63   52   29 1    
    64   31   30 ar   
    65   53   30 1    
    66   32   31 ar   
    67   54   31 1    
    68   33   32 ar   
    69   55   32 1    
@<TRIPOS>SUBSTRUCTURE
     1 29K601      1 GROUP   
@<TRIPOS>SET

