#    Name: 3rph_AMP_1_INTS_M
#    Modification time : Tue Mar 25 11:45:47 2014

@<TRIPOS>MOLECULE
3rph_AMP_1_INTS_M
   50     0    12     0     0
SMALL
NO_CHARGES


@<TRIPOS>ATOM
      1 N         -25.6110  -37.7385  -24.1250 N.am      1 SEC2        0.0000 
      2 N         -25.2790  -36.4910  -23.5550 N.am      9 SEL2        0.0000 
      3 N         -25.9430  -38.9860  -24.6950 N.am      5 SEP2        0.0000 
      4 NZ        -22.1500  -38.2740  -22.6910 N.4       2 LYC4        0.0000 
      5 NZ        -23.1690  -37.3520  -22.4840 N.4      10 LYL4        0.0000 
      6 NZ        -21.1310  -39.1960  -22.8980 N.4       6 LYP4        0.0000 
      7 Zn        -23.3040  -37.4830  -21.4985 Zn        3 ZIC7        0.0000 
      8 Zn        -23.1690  -37.3520  -22.4840 Zn       11 ZIL7        0.0000 
      9 Zn        -23.4390  -37.6140  -20.5130 Zn        7 ZIP7        0.0000 
     10 N         -22.1500  -38.2740  -22.6910 N.am      1 SEC2        0.0000 
     11 N         -23.1690  -37.3520  -22.4840 N.am      9 SEL2        0.0000 
     12 N         -21.1310  -39.1960  -22.8980 N.am      5 SEP2        0.0000 
     13 CA        -21.7920  -37.0305  -25.3140 C.3       4 GLC5        0.0000 
     14 CA        -23.6570  -36.1610  -26.0110 C.3      12 GLL5        0.0000 
     15 CA        -19.9270  -37.9000  -24.6170 C.3       8 GLP5        0.0000 
     16 CA        -25.6920  -37.4205  -27.1985 C.3       4 GLC5        0.0000 
     17 CA        -23.6540  -37.0920  -27.1990 C.3      12 GLL5        0.0000 
     18 CA        -27.7300  -37.7490  -27.1980 C.3       8 GLP5        0.0000 
     19 CA        -20.6475  -37.8135  -26.7355 C.3       4 GLC5        0.0000 
     20 CA        -22.2600  -37.5520  -27.5940 C.3      12 GLL5        0.0000 
     21 CA        -19.0350  -38.0750  -25.8770 C.3       8 GLP5        0.0000 
     22 CA        -20.2605  -36.5630  -27.4490 C.3       4 GLC5        0.0000 
     23 CA        -21.7970  -36.4290  -28.5260 C.3      12 GLL5        0.0000 
     24 CA        -18.7240  -36.6970  -26.3720 C.3       8 GLP5        0.0000 
     25 CA        -20.2065  -35.1525  -29.0815 C.3       4 GLC5        0.0000 
     26 CA        -18.6160  -33.8760  -29.6370 C.3       8 GLP5        0.0000 
     27 N         -19.5790  -35.9080  -29.1315 N.am      1 SEC2        0.0000 
     28 N         -20.6910  -36.7350  -29.3850 N.am      9 SEL2        0.0000 
     29 N         -18.4670  -35.0810  -28.8780 N.am      5 SEP2        0.0000 
     30 CA        -24.7015  -35.9750  -30.1910 C.3       4 GLC5        0.0000 
     31 CA        -23.1000  -36.1920  -29.2960 C.3      12 GLL5        0.0000 
     32 CA        -26.3030  -35.7580  -31.0860 C.3       8 GLP5        0.0000 
     33 CA        -20.8770  -32.8805  -32.9710 C.3       4 GLC5        0.0000 
     34 CA        -23.0090  -32.5720  -32.6110 C.3      12 GLL5        0.0000 
     35 CA        -18.7450  -33.1890  -33.3310 C.3       8 GLP5        0.0000 
     36 CA        -24.0655  -33.1890  -34.3660 C.3       4 GLC5        0.0000 
     37 CA        -25.1220  -33.8060  -36.1210 C.3       8 GLP5        0.0000 
     38 CA        -24.8225  -31.8715  -33.2520 C.3       4 GLC5        0.0000 
     39 CA        -26.6360  -31.1710  -33.8930 C.3       8 GLP5        0.0000 
     40 CA        -20.5415  -33.9260  -33.3615 C.3       4 GLC5        0.0000 
     41 CA        -22.3380  -34.6630  -33.3920 C.3      12 GLL5        0.0000 
     42 CA        -23.0630  -35.9935  -34.8055 C.3       4 GLC5        0.0000 
     43 CA        -23.7880  -37.3240  -36.2190 C.3       8 GLP5        0.0000 
     44 CA        -23.7300  -34.2345  -34.7565 C.3       4 GLC5        0.0000 
     45 CA        -23.7690  -36.1135  -32.9210 C.3       4 GLC5        0.0000 
     46 CA        -25.2000  -37.5640  -32.4500 C.3       8 GLP5        0.0000 
     47 CA        -24.2338  -38.1863  -25.4430 C.3       4 GLC5        0.0000 
     48 CA        -24.8120  -39.7460  -24.2810 C.3       8 GLP5        0.0000 
     49 CA        -24.7018  -34.8130  -31.1500 C.3       4 GLC5        0.0000 
     50 CA        -22.9500  -34.5820  -31.1380 C.3      12 GLL5        0.0000 
@<TRIPOS>BOND
@<TRIPOS>SUBSTRUCTURE
     1 SEC2        1 GROUP        1 X    SEC  0     ROOT SEC X 2
     2 LYC4        4 GROUP        1 X    LYC  0     **** LYC X 4
     3 ZIC7        7 GROUP        1 X    ZIC  0     **** ZIC X 5
     4 GLC5       13 GROUP        1 X    GLC  0     **** GLC X 6
     5 SEP2        3 GROUP        1 Y    SEP  0     ROOT SEP Y 9
     6 LYP4        6 GROUP        1 Y    LYP  0     **** LYP Y 11
     7 ZIP7        9 GROUP        1 Y    ZIP  0     **** ZIP Y 12
     8 GLP5       15 GROUP        1 Y    GLP  0     **** GLP Y 13
     9 SEL2        2 GROUP        1 Z    SEL  0     ROOT SEL Z 16
    10 LYL4        5 GROUP        1 Z    LYL  0     **** LYL Z 18
    11 ZIL7        8 GROUP        1 Z    ZIL  0     **** ZIL Z 19
    12 GLL5       14 GROUP        1 Z    GLL  0     **** GLL Z 20
@<TRIPOS>SET

