#    Name: 3rph_AMP_1_ligand
#    Modification time : Tue Mar 25 11:45:47 2014

@<TRIPOS>MOLECULE
3rph_AMP_1_ligand
   35    37     1     0     0
SMALL
NO_CHARGES


@<TRIPOS>ATOM
      1 P         -23.7690  -36.3320  -23.4300 P.3       1 AMP278      0.0000 
      2 O1P       -25.2790  -36.4910  -23.5550 O.co2     1 AMP278      0.0000 
      3 O2P       -23.3700  -34.8870  -23.2320 O.co2     1 AMP278      0.0000 
      4 O3P       -23.1690  -37.3520  -22.4840 O.co2     1 AMP278      0.0000 
      5 O5'       -23.3030  -36.8680  -24.8230 O.3       1 AMP278      0.0000 
      6 C5'       -23.6570  -36.1610  -26.0110 C.3       1 AMP278      0.0000 
      7 C4'       -23.6540  -37.0920  -27.1990 C.3       1 AMP278      0.0000 
      8 O4'       -24.1670  -36.3900  -28.3360 O.3       1 AMP278      0.0000 
      9 C3'       -22.2600  -37.5520  -27.5940 C.3       1 AMP278      0.0000 
     10 O3'       -22.3000  -38.8090  -28.2850 O.3       1 AMP278      0.0000 
     11 C2'       -21.7970  -36.4290  -28.5260 C.3       1 AMP278      0.0000 
     12 O2'       -20.6910  -36.7350  -29.3850 O.3       1 AMP278      0.0000 
     13 C1'       -23.1000  -36.1920  -29.2960 C.3       1 AMP278      0.0000 
     14 N9        -23.2180  -34.8630  -29.8630 N.pl3     1 AMP278      0.0000 
     15 C8        -23.6530  -33.7420  -29.2550 C.2       1 AMP278      0.0000 
     16 N7        -23.6750  -32.6740  -30.1120 N.2       1 AMP278      0.0000 
     17 C5        -23.2510  -33.1540  -31.2900 C.ar      1 AMP278      0.0000 
     18 C6        -23.0090  -32.5720  -32.6110 C.ar      1 AMP278      0.0000 
     19 N6        -23.2780  -31.2590  -32.7060 N.pl3     1 AMP278      0.0000 
     20 N1        -22.5510  -33.3600  -33.6020 N.ar      1 AMP278      0.0000 
     21 C2        -22.3380  -34.6630  -33.3920 C.ar      1 AMP278      0.0000 
     22 N3        -22.5250  -35.2640  -32.1820 N.ar      1 AMP278      0.0000 
     23 C4        -22.9500  -34.5820  -31.1380 C.ar      1 AMP278      0.0000 
     24 H         -22.9513  -35.3414  -26.2167 H         1 AMP278      0.0000 
     25 H         -24.6597  -35.7138  -25.9292 H         1 AMP278      0.0000 
     26 H         -24.2543  -37.9532  -26.9897 H         1 AMP278      0.0000 
     27 H         -21.6459  -37.5463  -26.7382 H         1 AMP278      0.0000 
     28 H         -21.6503  -35.5543  -27.9130 H         1 AMP278      0.0000 
     29 H         -23.1716  -36.9516  -30.0614 H         1 AMP278      0.0000 
     30 H         -23.9246  -33.6852  -28.3107 H         1 AMP278      0.0000 
     31 H         -23.6119  -30.8169  -31.8735 H         1 AMP278      0.0000 
     32 H         -23.1203  -30.8411  -33.6007 H         1 AMP278      0.0000 
     33 H         -22.0067  -35.2697  -34.2000 H         1 AMP278      0.0000 
     34 H         -21.7027  -38.6875  -29.0778 H         1 AMP278      0.0000 
     35 H         -20.8564  -36.2068  -30.2178 H         1 AMP278      0.0000 
@<TRIPOS>BOND
     1    2    1 ar   
     2    3    1 ar   
     3    4    1 ar   
     4    5    1 1    
     5    6    5 1    
     6    7    6 1    
     7   24    6 1    
     8   25    6 1    
     9    8    7 1    
    10    9    7 1    
    11   26    7 1    
    12   13    8 1    
    13   10    9 1    
    14   11    9 1    
    15   27    9 1    
    16   34   10 1    
    17   12   11 1    
    18   13   11 1    
    19   28   11 1    
    20   35   12 1    
    21   14   13 1    
    22   29   13 1    
    23   15   14 1    
    24   23   14 1    
    25   16   15 2    
    26   30   15 1    
    27   17   16 1    
    28   18   17 ar   
    29   23   17 ar   
    30   19   18 1    
    31   20   18 ar   
    32   31   19 1    
    33   32   19 1    
    34   21   20 ar   
    35   22   21 ar   
    36   33   21 1    
    37   23   22 ar   
@<TRIPOS>SUBSTRUCTURE
     1 AMP278      1 GROUP   
@<TRIPOS>SET

