#    Name: 3tiz_3TI_1_INTS_M
#    Modification time : Mon Mar 24 20:11:02 2014

@<TRIPOS>MOLECULE
3tiz_3TI_1_INTS_M
   56     0     9     0     0
SMALL
NO_CHARGES


@<TRIPOS>ATOM
      1 CA        -90.6115  -12.2645  -83.2380 C.3       3 GLC5        0.0000 
      2 CA        -88.6360  -11.8450  -83.2180 C.3       9 GLL5        0.0000 
      3 CA        -92.5870  -12.6840  -83.2580 C.3       6 GLP5        0.0000 
      4 CA        -89.0460   -8.0180  -84.0140 C.3       3 GLC5        0.0000 
      5 CA        -88.6550   -9.5360  -82.5440 C.3       9 GLL5        0.0000 
      6 CA        -89.4370   -6.5000  -85.4840 C.3       6 GLP5        0.0000 
      7 CA        -92.3530  -10.8020  -84.3285 C.3       3 GLC5        0.0000 
      8 CA        -92.1190   -8.9200  -85.3990 C.3       9 GLL5        0.0000 
      9 CA        -91.3360   -6.7985  -84.7820 C.3       3 GLC5        0.0000 
     10 CA        -93.2350   -7.0970  -84.0800 C.3       9 GLL5        0.0000 
     11 CA        -95.4925   -7.2785  -82.7990 C.3       3 GLC5        0.0000 
     12 CA        -94.2140   -6.0710  -83.9710 C.3       9 GLL5        0.0000 
     13 CA        -96.7710   -8.4860  -81.6270 C.3       6 GLP5        0.0000 
     14 O         -85.8330  -11.7555  -82.0980 O.2       1 ALC1        0.0000 
     15 O         -86.2690  -11.4330  -80.4370 O.2       7 ALL1        0.0000 
     16 O         -85.3970  -12.0780  -83.7590 O.2       4 ALP1        0.0000 
     17 N         -90.3135  -11.1565  -87.7495 N.am      2 SEC2        0.0000 
     18 N         -91.0750  -10.6610  -86.7050 N.am      8 SEL2        0.0000 
     19 N         -89.5520  -11.6520  -88.7940 N.am      5 SEP2        0.0000 
     20 CA        -90.5680  -10.3440  -82.0588 C.3       3 GLC5        0.0000 
     21 CA        -89.1210  -10.5340  -83.3710 C.3       9 GLL5        0.0000 
     22 CA        -92.2480  -10.6530  -81.1600 C.3       6 GLP5        0.0000 
     23 CA        -86.9797  -12.2775  -84.3868 C.3       3 GLC5        0.0000 
     24 CA        -85.8050  -12.5630  -86.0530 C.3       6 GLP5        0.0000 
     25 CA        -87.0350   -9.9325  -79.7207 C.3       3 GLC5        0.0000 
     26 CA        -87.1990  -11.1400  -81.4000 C.3       9 GLL5        0.0000 
     27 CA        -86.6280   -9.3780  -77.9680 C.3       6 GLP5        0.0000 
     28 CA        -87.8000   -7.7185  -82.3062 C.3       3 GLC5        0.0000 
     29 CA        -87.6850   -9.8340  -81.5470 C.3       9 GLL5        0.0000 
     30 CA        -87.4300   -5.7520  -82.5670 C.3       6 GLP5        0.0000 
     31 CA        -93.4838  -10.6333  -86.3897 C.3       3 GLC5        0.0000 
     32 CA        -94.8930  -11.9720  -86.7850 C.3       6 GLP5        0.0000 
     33 CA        -91.4502   -8.1173  -86.7597 C.3       3 GLC5        0.0000 
     34 CA        -92.0300   -9.6690  -86.5900 C.3       9 GLL5        0.0000 
     35 CA        -90.8260   -6.9400  -87.5250 C.3       6 GLP5        0.0000 
     36 CA        -91.9640  -11.2495  -88.3020 C.3       3 GLC5        0.0000 
     37 CA        -91.4710  -12.9580  -89.4770 C.3       6 GLP5        0.0000 
     38 CA        -93.3685   -8.1895  -89.3910 C.3       3 GLC5        0.0000 
     39 CA        -92.8840   -9.4130  -87.6640 C.3       9 GLL5        0.0000 
     40 CA        -93.3610   -7.4760  -91.1740 C.3       6 GLP5        0.0000 
     41 CA        -94.8995   -9.3490  -88.7075 C.3       3 GLC5        0.0000 
     42 CA        -93.8680   -8.3930  -87.5520 C.3       9 GLL5        0.0000 
     43 CA        -96.4230   -9.7950  -89.8070 C.3       6 GLP5        0.0000 
     44 CA        -92.1010   -7.9215  -87.5665 C.3       3 GLC5        0.0000 
     45 CA        -93.7370   -6.0717  -87.5203 C.3       3 GLC5        0.0000 
     46 CA        -93.5530   -4.1380  -88.0950 C.3       6 GLP5        0.0000 
     47 CA        -94.2840  -10.1163  -86.8792 C.3       3 GLC5        0.0000 
     48 CA        -93.9740   -7.6180  -86.3390 C.3       9 GLL5        0.0000 
     49 CA        -94.6132   -8.9567  -83.8438 C.3       3 GLC5        0.0000 
     50 CA        -93.1240   -7.8700  -85.2750 C.3       9 GLL5        0.0000 
     51 CA        -96.0470  -10.4300  -83.0100 C.3       6 GLP5        0.0000 
     52 CA        -94.2910   -5.1675  -86.8670 C.3       3 GLC5        0.0000 
     53 CA        -94.9750   -6.5710  -86.2230 C.3       9 GLL5        0.0000 
     54 CA        -92.5440   -7.0488  -86.7700 C.3       3 GLC5        0.0000 
     55 CA        -86.3761  -10.1130  -83.0769 C.3       3 GLC5        0.0000 
     56 CA        -84.8910   -9.4390  -84.1220 C.3       6 GLP5        0.0000 
@<TRIPOS>BOND
@<TRIPOS>SUBSTRUCTURE
     1 ALC1       14 GROUP        1 X    ALC  0     ROOT ALC X 1
     2 SEC2       17 GROUP        1 X    SEC  0     **** SEC X 2
     3 GLC5        1 GROUP        1 X    GLC  0     **** GLC X 6
     4 ALP1       16 GROUP        1 Y    ALP  0     ROOT ALP Y 8
     5 SEP2       19 GROUP        1 Y    SEP  0     **** SEP Y 9
     6 GLP5        3 GROUP        1 Y    GLP  0     **** GLP Y 13
     7 ALL1       15 GROUP        1 Z    ALL  0     ROOT ALL Z 15
     8 SEL2       18 GROUP        1 Z    SEL  0     **** SEL Z 16
     9 GLL5        2 GROUP        1 Z    GLL  0     **** GLL Z 20
@<TRIPOS>SET

