#    Name: 3tiz_3TI_1_ligand
#    Modification time : Mon Mar 24 20:11:02 2014

@<TRIPOS>MOLECULE
3tiz_3TI_1_ligand
   33    35     1     0     0
SMALL
NO_CHARGES


@<TRIPOS>ATOM
      1 N01       -90.1190  -10.2350  -84.3970 N.2       1 3TI299      0.0000 
      2 C02       -89.1210  -10.5340  -83.3710 C.ar      1 3TI299      0.0000 
      3 C03       -88.6360  -11.8450  -83.2180 C.ar      1 3TI299      0.0000 
      4 C04       -87.6730  -12.1390  -82.2230 C.ar      1 3TI299      0.0000 
      5 C05       -87.1990  -11.1400  -81.4000 C.ar      1 3TI299      0.0000 
      6 C06       -87.6850   -9.8340  -81.5470 C.ar      1 3TI299      0.0000 
      7 C07       -88.6550   -9.5360  -82.5440 C.ar      1 3TI299      0.0000 
      8 C08       -91.1510   -9.2220  -84.2110 C.2       1 3TI299      0.0000 
      9 C09       -92.1190   -8.9200  -85.3990 C.ar      1 3TI299      0.0000 
     10 C10       -92.0300   -9.6690  -86.5900 C.ar      1 3TI299      0.0000 
     11 C11       -92.8840   -9.4130  -87.6640 C.ar      1 3TI299      0.0000 
     12 C12       -93.8680   -8.3930  -87.5520 C.ar      1 3TI299      0.0000 
     13 C13       -93.9740   -7.6180  -86.3390 C.ar      1 3TI299      0.0000 
     14 C14       -93.1240   -7.8700  -85.2750 C.ar      1 3TI299      0.0000 
     15 C15       -93.2350   -7.0970  -84.0800 C.ar      1 3TI299      0.0000 
     16 C16       -94.2140   -6.0710  -83.9710 C.ar      1 3TI299      0.0000 
     17 C17       -95.0830   -5.8230  -85.0550 C.ar      1 3TI299      0.0000 
     18 C18       -94.9750   -6.5710  -86.2230 C.ar      1 3TI299      0.0000 
     19 O19       -86.2690  -11.4330  -80.4370 O.3       1 3TI299      0.0000 
     20 O20       -91.0750  -10.6610  -86.7050 O.3       1 3TI299      0.0000 
     21 H         -88.9784  -12.5933  -83.8270 H         1 3TI299      0.0000 
     22 H         -87.3366  -13.1053  -82.1271 H         1 3TI299      0.0000 
     23 H         -87.3462   -9.0838  -80.9384 H         1 3TI299      0.0000 
     24 H         -88.9944   -8.5725  -82.6308 H         1 3TI299      0.0000 
     25 H         -91.2723   -8.7188  -83.3817 H         1 3TI299      0.0000 
     26 H         -92.8118   -9.9481  -88.5290 H         1 3TI299      0.0000 
     27 H         -94.5021   -8.2019  -88.3217 H         1 3TI299      0.0000 
     28 H         -92.6055   -7.2839  -83.2985 H         1 3TI299      0.0000 
     29 H         -94.2832   -5.5241  -83.1180 H         1 3TI299      0.0000 
     30 H         -95.7933   -5.0872  -84.9727 H         1 3TI299      0.0000 
     31 H         -95.5915   -6.4038  -87.0206 H         1 3TI299      0.0000 
     32 H         -85.4322  -11.6453  -80.9416 H         1 3TI299      0.0000 
     33 H         -90.3981  -10.4516  -85.9993 H         1 3TI299      0.0000 
@<TRIPOS>BOND
     1    2    1 1    
     2    8    1 2    
     3    3    2 ar   
     4    7    2 ar   
     5    4    3 ar   
     6   21    3 1    
     7    5    4 ar   
     8   22    4 1    
     9    6    5 ar   
    10   19    5 1    
    11    7    6 ar   
    12   23    6 1    
    13   24    7 1    
    14    9    8 1    
    15   25    8 1    
    16   10    9 ar   
    17   14    9 ar   
    18   11   10 ar   
    19   20   10 1    
    20   12   11 ar   
    21   26   11 1    
    22   13   12 ar   
    23   27   12 1    
    24   14   13 ar   
    25   18   13 ar   
    26   15   14 ar   
    27   16   15 ar   
    28   28   15 1    
    29   17   16 ar   
    30   29   16 1    
    31   18   17 ar   
    32   30   17 1    
    33   31   18 1    
    34   32   19 1    
    35   33   20 1    
@<TRIPOS>SUBSTRUCTURE
     1 3TI299      1 GROUP   
@<TRIPOS>SET

