#    Name: 830c_RS1_2_INTS_M
#    Modification time : Tue Mar 25 13:59:02 2014

@<TRIPOS>MOLECULE
830c_RS1_2_INTS_M
   66     0    12     0     0
SMALL
NO_CHARGES


@<TRIPOS>ATOM
      1 CA         25.9760   -0.0500   58.1505 C.3       4 GLC5        0.0000 
      2 CA         24.7250   -0.8790   59.7580 C.3      12 GLL5        0.0000 
      3 CA         27.2270    0.7790   56.5430 C.3       8 GLP5        0.0000 
      4 CA         25.4260    1.6405   63.6850 C.3       4 GLC5        0.0000 
      5 CA         25.3600   -0.0440   62.3840 C.3      12 GLL5        0.0000 
      6 CA         25.4920    3.3250   64.9860 C.3       8 GLP5        0.0000 
      7 CA         23.6395    1.9075   60.1280 C.3       4 GLC5        0.0000 
      8 CA         23.9320    0.0580   60.4010 C.3      12 GLL5        0.0000 
      9 CA         23.3470    3.7570   59.8550 C.3       8 GLP5        0.0000 
     10 CA         23.2040    1.5220   64.4475 C.3       4 GLC5        0.0000 
     11 CA         22.2100    1.3860   62.5450 C.3      12 GLL5        0.0000 
     12 CA         24.1980    1.6580   66.3500 C.3       8 GLP5        0.0000 
     13 CA         22.7785    2.5715   61.2000 C.3       4 GLC5        0.0000 
     14 CA         19.7630    2.1975   65.3480 C.3       4 GLC5        0.0000 
     15 CA         20.2170    2.5410   63.2470 C.3      12 GLL5        0.0000 
     16 CA         19.3090    1.8540   67.4490 C.3       8 GLP5        0.0000 
     17 CA         22.2020   -1.6450   62.6325 C.3       4 GLC5        0.0000 
     18 CA         21.4460    0.2240   62.3300 C.3      12 GLL5        0.0000 
     19 CA         22.9580   -3.5140   62.9350 C.3       8 GLP5        0.0000 
     20 N          17.2490    2.3460   65.9290 N.am      2 SEC2        0.0000 
     21 N          17.5700    2.2440   64.5310 N.am     10 SEL2        0.0000 
     22 N          16.9280    2.4480   67.3270 N.am      6 SEP2        0.0000 
     23 CA         15.5655    6.8730   63.3090 C.3       4 GLC5        0.0000 
     24 CA         15.0570    4.9960   62.6240 C.3      12 GLL5        0.0000 
     25 CA         16.0740    8.7500   63.9940 C.3       8 GLP5        0.0000 
     26 O          17.8885    5.4125   63.1620 O.2       1 ALC1        0.0000 
     27 O          18.2180    4.9070   61.6550 O.2       9 ALL1        0.0000 
     28 O          17.5590    5.9180   64.6690 O.2       5 ALP1        0.0000 
     29 Zn         18.8435    4.0820   59.5995 Zn        3 ZIC7        0.0000 
     30 Zn         18.2570    3.5160   60.0540 Zn       11 ZIL7        0.0000 
     31 Zn         19.4300    4.6480   59.1450 Zn        7 ZIP7        0.0000 
     32 Zn         19.3010    5.0820   59.9655 Zn        3 ZIC7        0.0000 
     33 Zn         19.1720    5.5160   60.7860 Zn       11 ZIL7        0.0000 
     34 O          19.8055    6.6850   61.6515 O.2       1 ALC1        0.0000 
     35 O          19.1720    5.5160   60.7860 O.2       9 ALL1        0.0000 
     36 O          20.4390    7.8540   62.5170 O.2       5 ALP1        0.0000 
     37 O          19.9880    5.6275   61.8480 O.2       1 ALC1        0.0000 
     38 O          20.8040    5.7390   62.9100 O.2       5 ALP1        0.0000 
     39 CA         26.5155   -4.4035   60.3120 C.3       4 GLC5        0.0000 
     40 CA         26.8500   -2.5230   59.6270 C.3      12 GLL5        0.0000 
     41 CA         26.1810   -6.2840   60.9970 C.3       8 GLP5        0.0000 
     42 CA         24.1182   -2.3213   61.5183 C.3       4 GLC5        0.0000 
     43 CA         25.8320   -1.3780   60.4450 C.3      12 GLL5        0.0000 
     44 CA         27.2340    0.2763   60.2443 C.3       4 GLC5        0.0000 
     45 CA         28.4750    1.7350   59.3920 C.3       8 GLP5        0.0000 
     46 CA         27.2510   -0.0732   63.2700 C.3       4 GLC5        0.0000 
     47 CA         26.1540   -0.9870   61.7480 C.3      12 GLL5        0.0000 
     48 CA         28.7450    0.3690   64.4740 C.3       8 GLP5        0.0000 
     49 CA         24.3575   -2.0147   62.5005 C.3       4 GLC5        0.0000 
     50 CA         24.7432    2.0655   61.3005 C.3       4 GLC5        0.0000 
     51 CA         24.6670    3.9120   60.5590 C.3       8 GLP5        0.0000 
     52 CA         23.5317   -1.6220   61.9928 C.3       4 GLC5        0.0000 
     53 CA         24.2790    0.4820   61.7000 C.3      12 GLL5        0.0000 
     54 CA         22.0918    3.2397   64.6065 C.3       4 GLC5        0.0000 
     55 CA         21.5840    2.5420   62.9930 C.3      12 GLL5        0.0000 
     56 CA         23.2830    3.9380   66.0930 C.3       8 GLP5        0.0000 
     57 CA         21.5252    3.4438   61.6080 C.3       4 GLC5        0.0000 
     58 CA         22.1500    4.3460   60.0960 C.3       8 GLP5        0.0000 
     59 CA         20.5512   -1.5892   61.3230 C.3       4 GLC5        0.0000 
     60 CA         20.0810    0.1950   62.5840 C.3      12 GLL5        0.0000 
     61 CA         20.3390   -3.3880   60.1890 C.3       8 GLP5        0.0000 
     62 CA         20.4871    0.1288   64.6005 C.3       4 GLC5        0.0000 
     63 CA         20.3580   -0.2420   66.6220 C.3       8 GLP5        0.0000 
     64 CA         14.1260    3.4977   63.8035 C.3       4 GLC5        0.0000 
     65 CA         15.8210    3.7070   62.9000 C.3      12 GLL5        0.0000 
     66 CA         12.8130    2.6440   64.8450 C.3       8 GLP5        0.0000 
@<TRIPOS>BOND
@<TRIPOS>SUBSTRUCTURE
     1 ALC1       26 GROUP        1 X    ALC  0     ROOT ALC X 1
     2 SEC2       20 GROUP        1 X    SEC  0     **** SEC X 2
     3 ZIC7       29 GROUP        1 X    ZIC  0     **** ZIC X 5
     4 GLC5        1 GROUP        1 X    GLC  0     **** GLC X 6
     5 ALP1       28 GROUP        1 Y    ALP  0     ROOT ALP Y 8
     6 SEP2       22 GROUP        1 Y    SEP  0     **** SEP Y 9
     7 ZIP7       31 GROUP        1 Y    ZIP  0     **** ZIP Y 12
     8 GLP5        3 GROUP        1 Y    GLP  0     **** GLP Y 13
     9 ALL1       27 GROUP        1 Z    ALL  0     ROOT ALL Z 15
    10 SEL2       21 GROUP        1 Z    SEL  0     **** SEL Z 16
    11 ZIL7       30 GROUP        1 Z    ZIL  0     **** ZIL Z 19
    12 GLL5        2 GROUP        1 Z    GLL  0     **** GLL Z 20
@<TRIPOS>SET

