#    Name: 830c_RS1_2_ligand
#    Modification time : Tue Mar 25 13:59:02 2014

@<TRIPOS>MOLECULE
830c_RS1_2_ligand
   48    50     1     0     0
SMALL
NO_CHARGES


@<TRIPOS>ATOM
      1 C1         24.7250   -0.8790   59.7580 C.ar      1 RS11        0.0000 
      2 C2         25.8320   -1.3780   60.4450 C.ar      1 RS11        0.0000 
      3 C3         26.1540   -0.9870   61.7480 C.ar      1 RS11        0.0000 
      4 C4         25.3600   -0.0440   62.3840 C.ar      1 RS11        0.0000 
      5 C5         24.2790    0.4820   61.7000 C.ar      1 RS11        0.0000 
      6 C6         23.9320    0.0580   60.4010 C.ar      1 RS11        0.0000 
      7 O11        23.5800    1.4640   62.3710 O.3       1 RS11        0.0000 
      8 C12        22.2100    1.3860   62.5450 C.ar      1 RS11        0.0000 
      9 C13        21.5840    2.5420   62.9930 C.ar      1 RS11        0.0000 
     10 C14        20.2170    2.5410   63.2470 C.ar      1 RS11        0.0000 
     11 C15        19.4920    1.3550   63.0720 C.ar      1 RS11        0.0000 
     12 C16        20.0810    0.1950   62.5840 C.ar      1 RS11        0.0000 
     13 C17        21.4460    0.2240   62.3300 C.ar      1 RS11        0.0000 
     14 S22        17.8050    1.2720   63.5050 S.o2      1 RS11        0.0000 
     15 O23        17.5700    2.2440   64.5310 O.2       1 RS11        0.0000 
     16 O24        17.5170   -0.0830   63.8560 O.2       1 RS11        0.0000 
     17 C25        16.8440    1.5400   62.0080 C.3       1 RS11        0.0000 
     18 C26        16.4740    3.0120   61.6580 C.3       1 RS11        0.0000 
     19 C29        15.8210    3.7070   62.9000 C.3       1 RS11        0.0000 
     20 C30        15.0570    4.9960   62.6240 C.3       1 RS11        0.0000 
     21 O31        14.1710    4.7050   61.5560 O.3       1 RS11        0.0000 
     22 C32        14.7920    4.3360   60.3150 C.3       1 RS11        0.0000 
     23 C33        15.4700    2.9550   60.4870 C.3       1 RS11        0.0000 
     24 C40        17.6900    3.8150   61.1090 C.2       1 RS11        0.0000 
     25 N41        18.2180    4.9070   61.6550 N.am      1 RS11        0.0000 
     26 O42        18.2570    3.5160   60.0540 O.2       1 RS11        0.0000 
     27 O43        19.1720    5.5160   60.7860 O.3       1 RS11        0.0000 
     28 CL2        26.8500   -2.5230   59.6270 Cl        1 RS11        0.0000 
     29 H          24.5114   -1.1945   58.8189 H         1 RS11        0.0000 
     30 H          26.9631   -1.3926   62.2205 H         1 RS11        0.0000 
     31 H          25.5706    0.2543   63.3370 H         1 RS11        0.0000 
     32 H          23.1022    0.4441   59.9477 H         1 RS11        0.0000 
     33 H          22.1322    3.4011   63.1374 H         1 RS11        0.0000 
     34 H          19.7437    3.3902   63.5569 H         1 RS11        0.0000 
     35 H          19.5345   -0.6409   62.4197 H         1 RS11        0.0000 
     36 H          21.9205   -0.6260   61.9736 H         1 RS11        0.0000 
     37 H          15.9617    0.9221   62.1718 H         1 RS11        0.0000 
     38 H          17.4597    1.0766   61.2378 H         1 RS11        0.0000 
     39 H          16.6256    3.9072   63.6362 H         1 RS11        0.0000 
     40 H          15.1421    2.9728   63.3790 H         1 RS11        0.0000 
     41 H          15.7763    5.7631   62.3651 H         1 RS11        0.0000 
     42 H          14.5328    5.2754   63.5295 H         1 RS11        0.0000 
     43 H          15.5641    5.0449   60.0182 H         1 RS11        0.0000 
     44 H          14.0673    4.2463   59.5066 H         1 RS11        0.0000 
     45 H          14.7143    2.2138   60.7002 H         1 RS11        0.0000 
     46 H          15.9954    2.7030   59.5779 H         1 RS11        0.0000 
     47 H          18.0149    5.2851   62.5308 H         1 RS11        0.0000 
     48 H          19.9494    5.7419   61.3730 H         1 RS11        0.0000 
@<TRIPOS>BOND
     1    2    1 ar   
     2    6    1 ar   
     3   29    1 1    
     4    3    2 ar   
     5   28    2 1    
     6    4    3 ar   
     7   30    3 1    
     8    5    4 ar   
     9   31    4 1    
    10    6    5 ar   
    11    7    5 1    
    12   32    6 1    
    13    8    7 1    
    14    9    8 ar   
    15   13    8 ar   
    16   10    9 ar   
    17   33    9 1    
    18   11   10 ar   
    19   34   10 1    
    20   12   11 ar   
    21   14   11 1    
    22   13   12 ar   
    23   35   12 1    
    24   36   13 1    
    25   15   14 2    
    26   16   14 2    
    27   17   14 1    
    28   18   17 1    
    29   37   17 1    
    30   38   17 1    
    31   19   18 1    
    32   23   18 1    
    33   24   18 1    
    34   20   19 1    
    35   39   19 1    
    36   40   19 1    
    37   21   20 1    
    38   41   20 1    
    39   42   20 1    
    40   22   21 1    
    41   23   22 1    
    42   43   22 1    
    43   44   22 1    
    44   45   23 1    
    45   46   23 1    
    46   25   24 am   
    47   26   24 2    
    48   27   25 1    
    49   47   25 1    
    50   48   27 1    
@<TRIPOS>SUBSTRUCTURE
     1 RS11        1 GROUP   
@<TRIPOS>SET

