#    Name: 3l0d_NAD_1_INTS_M
#    Modification time : Mon Mar 24 20:43:41 2014

@<TRIPOS>MOLECULE
3l0d_NAD_1_INTS_M
   70     0     9     0     0
SMALL
NO_CHARGES


@<TRIPOS>ATOM
      1 N          29.0920   17.3700  -27.1700 N.am      2 SEC2        0.0000 
      2 N          30.4030   17.6810  -27.1120 N.am      8 SEL2        0.0000 
      3 N          27.7810   17.0590  -27.2280 N.am      5 SEP2        0.0000 
      4 CA         27.5335   23.1860  -28.1005 C.3       3 GLC5        0.0000 
      5 CA         29.1950   21.9210  -27.9840 C.3       9 GLL5        0.0000 
      6 CA         25.8720   24.4510  -28.2170 C.3       6 GLP5        0.0000 
      7 O          27.7965   22.0015  -30.8585 O.2       1 ALC1        0.0000 
      8 O          28.5780   20.8490  -30.0040 O.2       7 ALL1        0.0000 
      9 O          27.0150   23.1540  -31.7130 O.2       4 ALP1        0.0000 
     10 O          28.4950   22.8890  -31.6005 O.2       1 ALC1        0.0000 
     11 O          29.9750   22.6240  -31.4880 O.2       7 ALL1        0.0000 
     12 CA         27.6545   24.1230  -28.8005 C.3       3 GLC5        0.0000 
     13 CA         29.4370   23.7950  -29.3840 C.3       9 GLL5        0.0000 
     14 CA         29.2330   24.4435  -27.3610 C.3       3 GLC5        0.0000 
     15 CA         29.0290   25.0920  -25.3380 C.3       6 GLP5        0.0000 
     16 CA         29.8395   26.8785  -27.6915 C.3       3 GLC5        0.0000 
     17 CA         30.4370   27.2980  -29.4430 C.3       9 GLL5        0.0000 
     18 CA         29.2420   26.4590  -25.9400 C.3       6 GLP5        0.0000 
     19 CA         29.8280   29.4480  -31.7045 C.3       3 GLC5        0.0000 
     20 CA         29.9780   28.6140  -29.6320 C.3       9 GLL5        0.0000 
     21 CA         29.6780   30.2820  -33.7770 C.3       6 GLP5        0.0000 
     22 CA         28.9720   27.7955  -28.0955 C.3       3 GLC5        0.0000 
     23 CA         27.9660   26.9770  -26.5590 C.3       6 GLP5        0.0000 
     24 N          27.8355   29.9380  -29.3295 N.am      2 SEC2        0.0000 
     25 N          28.6740   28.8650  -29.9060 N.am      8 SEL2        0.0000 
     26 N          26.9970   31.0110  -28.7530 N.am      5 SEP2        0.0000 
     27 CA         26.8360   26.1510  -29.1105 C.3       3 GLC5        0.0000 
     28 CA         27.8000   27.8510  -30.0040 C.3       9 GLL5        0.0000 
     29 CA         26.7465   26.9795  -31.4750 C.3       3 GLC5        0.0000 
     30 CA         25.6930   26.1080  -32.9460 C.3       6 GLP5        0.0000 
     31 CA         27.8830   27.4140  -28.2815 C.3       3 GLC5        0.0000 
     32 CA         27.6915   25.3620  -28.8865 C.3       3 GLC5        0.0000 
     33 CA         29.5110   26.2730  -29.5560 C.3       9 GLL5        0.0000 
     34 CA         28.7385   26.6250  -28.0575 C.3       3 GLC5        0.0000 
     35 N          27.4780   17.6210  -24.4775 N.am      2 SEC2        0.0000 
     36 N          28.5620   18.4030  -24.2700 N.am      8 SEL2        0.0000 
     37 N          26.3940   16.8390  -24.6850 N.am      5 SEP2        0.0000 
     38 CA         27.7730   19.2045  -22.3885 C.3       3 GLC5        0.0000 
     39 CA         29.5400   20.4080  -22.2990 C.3       9 GLL5        0.0000 
     40 CA         26.0060   18.0010  -22.4780 C.3       6 GLP5        0.0000 
     41 CA         31.3435   22.8970  -21.4515 C.3       3 GLC5        0.0000 
     42 CA         31.0680   21.0660  -20.3570 C.3       9 GLL5        0.0000 
     43 CA         31.6190   24.7280  -22.5460 C.3       6 GLP5        0.0000 
     44 CA         30.0230   15.0620  -16.9190 C.3       3 GLC5        0.0000 
     45 CA         29.5210   15.9580  -18.9010 C.3       9 GLL5        0.0000 
     46 CA         30.5250   14.1660  -14.9370 C.3       6 GLP5        0.0000 
     47 N          30.6330   12.2205  -19.2685 N.am      2 SEC2        0.0000 
     48 N          30.2480   13.6340  -19.4380 N.am      8 SEL2        0.0000 
     49 N          31.0180   10.8070  -19.0990 N.am      5 SEP2        0.0000 
     50 CA         27.5310   15.8935  -19.1150 C.3       3 GLC5        0.0000 
     51 CA         29.1270   15.7270  -17.5890 C.3       9 GLL5        0.0000 
     52 CA         25.9350   16.0600  -20.6410 C.3       6 GLP5        0.0000 
     53 CA         29.3347   23.3940  -26.3718 C.3       3 GLC5        0.0000 
     54 CA         28.5374   20.2897  -28.4669 C.3       3 GLC5        0.0000 
     55 CA         30.0860   21.4710  -26.8270 C.3       9 GLL5        0.0000 
     56 CA         27.4010   19.0170  -28.5620 C.3       6 GLP5        0.0000 
     57 CA         31.6482   28.5315  -28.3188 C.3       3 GLC5        0.0000 
     58 CA         33.0890   29.1070  -27.1000 C.3       6 GLP5        0.0000 
     59 CA         30.2056   21.7036  -18.1606 C.3       3 GLC5        0.0000 
     60 CA         29.9730   23.2630  -16.9980 C.3       6 GLP5        0.0000 
     61 CA         28.2013   16.8533  -20.2892 C.3       3 GLC5        0.0000 
     62 CA         29.7280   17.2850  -19.2960 C.3       9 GLL5        0.0000 
     63 CA         26.7780   17.0850  -21.4800 C.3       6 GLP5        0.0000 
     64 CA         28.8995   15.1902  -15.9017 C.3       3 GLC5        0.0000 
     65 CA         28.7620   14.1160  -14.6450 C.3       6 GLP5        0.0000 
     66 CA         27.0055   15.6552  -16.7758 C.3       3 GLC5        0.0000 
     67 CA         24.9740   15.0460  -16.3930 C.3       6 GLP5        0.0000 
     68 CA         29.0590   18.0090  -14.8625 C.3       3 GLC5        0.0000 
     69 CA         28.9470   16.8020  -16.7280 C.3       9 GLL5        0.0000 
     70 CA         29.0640   18.5700  -12.7720 C.3       6 GLP5        0.0000 
@<TRIPOS>BOND
@<TRIPOS>SUBSTRUCTURE
     1 ALC1        7 GROUP        1 X    ALC  0     ROOT ALC X 1
     2 SEC2        1 GROUP        1 X    SEC  0     **** SEC X 2
     3 GLC5        4 GROUP        1 X    GLC  0     **** GLC X 6
     4 ALP1        9 GROUP        1 Y    ALP  0     ROOT ALP Y 8
     5 SEP2        3 GROUP        1 Y    SEP  0     **** SEP Y 9
     6 GLP5        6 GROUP        1 Y    GLP  0     **** GLP Y 13
     7 ALL1        8 GROUP        1 Z    ALL  0     ROOT ALL Z 15
     8 SEL2        2 GROUP        1 Z    SEL  0     **** SEL Z 16
     9 GLL5        5 GROUP        1 Z    GLL  0     **** GLL Z 20
@<TRIPOS>SET

