#    Name: 3l0d_NAD_1_ligand
#    Modification time : Mon Mar 24 20:43:41 2014

@<TRIPOS>MOLECULE
3l0d_NAD_1_ligand
   70    74     1     0     0
SMALL
NO_CHARGES


@<TRIPOS>ATOM
      1 PA         30.8730   18.9510  -26.4320 P.3       1 NAD336      0.0000 
      2 O1A        30.4030   17.6810  -27.1120 O.co2     1 NAD336      0.0000 
      3 O2A        32.1730   19.5520  -26.9400 O.co2     1 NAD336      0.0000 
      4 O5B        29.7490   20.1120  -26.5070 O.3       1 NAD336      0.0000 
      5 C5B        30.0860   21.4710  -26.8270 C.3       1 NAD336      0.0000 
      6 C4B        29.1950   21.9210  -27.9840 C.3       1 NAD336      0.0000 
      7 O4B        29.0830   23.3430  -28.0630 O.3       1 NAD336      0.0000 
      8 C3B        29.7070   21.4290  -29.3380 C.3       1 NAD336      0.0000 
      9 O3B        28.5780   20.8490  -30.0040 O.3       1 NAD336      0.0000 
     10 C2B        30.2120   22.6650  -30.0740 C.3       1 NAD336      0.0000 
     11 O2B        29.9750   22.6240  -31.4880 O.3       1 NAD336      0.0000 
     12 C1B        29.4370   23.7950  -29.3840 C.3       1 NAD336      0.0000 
     13 N9A        30.1490   25.1080  -29.3420 N.pl3     1 NAD336      0.0000 
     14 C8A        31.4500   25.3590  -29.0990 C.2       1 NAD336      0.0000 
     15 N7A        31.6310   26.7040  -29.1610 N.2       1 NAD336      0.0000 
     16 C5A        30.4370   27.2980  -29.4430 C.ar      1 NAD336      0.0000 
     17 C6A        29.9780   28.6140  -29.6320 C.ar      1 NAD336      0.0000 
     18 N6A        30.8010   29.6740  -29.5460 N.pl3     1 NAD336      0.0000 
     19 N1A        28.6740   28.8650  -29.9060 N.ar      1 NAD336      0.0000 
     20 C2A        27.8000   27.8510  -30.0040 C.ar      1 NAD336      0.0000 
     21 N3A        28.2060   26.5790  -29.8320 N.ar      1 NAD336      0.0000 
     22 C4A        29.5110   26.2730  -29.5560 C.ar      1 NAD336      0.0000 
     23 O3         31.0420   18.7480  -24.8100 O.3       1 NAD336      0.0000 
     24 PN         29.9610   18.1660  -23.7210 P.3       1 NAD336      0.0000 
     25 O1N        30.4720   16.7910  -23.3510 O.co2     1 NAD336      0.0000 
     26 O2N        28.5620   18.4030  -24.2700 O.co2     1 NAD336      0.0000 
     27 O5D        30.0600   19.0700  -22.3710 O.3       1 NAD336      0.0000 
     28 C5D        29.5400   20.4080  -22.2990 C.3       1 NAD336      0.0000 
     29 C4D        29.6340   20.9650  -20.8790 C.3       1 NAD336      0.0000 
     30 O4D        28.9400   20.0750  -20.0020 O.3       1 NAD336      0.0000 
     31 C3D        31.0680   21.0660  -20.3570 C.3       1 NAD336      0.0000 
     32 O3D        31.3380   22.3870  -19.8820 O.3       1 NAD336      0.0000 
     33 C2D        31.1870   20.0690  -19.2140 C.3       1 NAD336      0.0000 
     34 O2D        31.8120   20.6600  -18.0750 O.3       1 NAD336      0.0000 
     35 C1D        29.7490   19.7210  -18.8610 C.3       1 NAD336      0.0000 
     36 N1N        29.5490   18.3170  -18.4400 N.pl3     1 NAD336      0.0000 
     37 C2N        29.7280   17.2850  -19.2960 C.ar      1 NAD336      0.0000 
     38 C3N        29.5210   15.9580  -18.9010 C.ar      1 NAD336      0.0000 
     39 C7N        29.7510   14.8050  -19.8560 C.2       1 NAD336      0.0000 
     40 O7N        30.2480   13.6340  -19.4380 O.2       1 NAD336      0.0000 
     41 N7N        29.4920   14.9490  -21.1410 N.am      1 NAD336      0.0000 
     42 C4N        29.1270   15.7270  -17.5890 C.ar      1 NAD336      0.0000 
     43 C5N        28.9470   16.8020  -16.7280 C.ar      1 NAD336      0.0000 
     44 C6N        29.1610   18.0940  -17.1780 C.ar      1 NAD336      0.0000 
     45 H          31.1229   21.5658  -27.1435 H         1 NAD336      0.0000 
     46 H          29.9097   22.1392  -25.9863 H         1 NAD336      0.0000 
     47 H          28.2025   21.4777  -27.8414 H         1 NAD336      0.0000 
     48 H          30.4905   20.7554  -29.1775 H         1 NAD336      0.0000 
     49 H          31.2471   22.7932  -29.8171 H         1 NAD336      0.0000 
     50 H          28.4992   23.9256  -29.9653 H         1 NAD336      0.0000 
     51 H          32.1321   24.7090  -28.9144 H         1 NAD336      0.0000 
     52 H          30.3761   30.5716  -29.6631 H         1 NAD336      0.0000 
     53 H          31.7645   29.4701  -29.3726 H         1 NAD336      0.0000 
     54 H          26.7936   28.0491  -30.2159 H         1 NAD336      0.0000 
     55 H          28.4823   20.4446  -22.6044 H         1 NAD336      0.0000 
     56 H          30.0930   21.0900  -22.9642 H         1 NAD336      0.0000 
     57 H          29.1884   21.9409  -20.8528 H         1 NAD336      0.0000 
     58 H          31.7313   20.7661  -21.1369 H         1 NAD336      0.0000 
     59 H          31.6687   19.1988  -19.5608 H         1 NAD336      0.0000 
     60 H          29.4672   20.3900  -18.0213 H         1 NAD336      0.0000 
     61 H          30.0281   17.4615  -20.2812 H         1 NAD336      0.0000 
     62 H          29.1596   15.8484  -21.4248 H         1 NAD336      0.0000 
     63 H          29.6516   14.1457  -21.7148 H         1 NAD336      0.0000 
     64 H          28.9701   14.7688  -17.2583 H         1 NAD336      0.0000 
     65 H          28.6542   16.6361  -15.7547 H         1 NAD336      0.0000 
     66 H          29.0138   18.8831  -16.5152 H         1 NAD336      0.0000 
     67 H          28.1517   21.6068  -30.4981 H         1 NAD336      0.0000 
     68 H          28.9963   22.8012  -31.5915 H         1 NAD336      0.0000 
     69 H          32.1821   22.6602  -20.3432 H         1 NAD336      0.0000 
     70 H          31.8541   21.6376  -18.2812 H         1 NAD336      0.0000 
@<TRIPOS>BOND
     1    2    1 ar   
     2    3    1 ar   
     3    4    1 1    
     4   23    1 1    
     5    5    4 1    
     6    6    5 1    
     7   45    5 1    
     8   46    5 1    
     9    7    6 1    
    10    8    6 1    
    11   47    6 1    
    12   12    7 1    
    13    9    8 1    
    14   10    8 1    
    15   48    8 1    
    16   67    9 1    
    17   11   10 1    
    18   12   10 1    
    19   49   10 1    
    20   68   11 1    
    21   13   12 1    
    22   50   12 1    
    23   14   13 1    
    24   22   13 1    
    25   15   14 2    
    26   51   14 1    
    27   16   15 1    
    28   17   16 ar   
    29   22   16 ar   
    30   18   17 1    
    31   19   17 ar   
    32   52   18 1    
    33   53   18 1    
    34   20   19 ar   
    35   21   20 ar   
    36   54   20 1    
    37   22   21 ar   
    38   24   23 1    
    39   25   24 ar   
    40   26   24 ar   
    41   27   24 1    
    42   28   27 1    
    43   29   28 1    
    44   55   28 1    
    45   56   28 1    
    46   30   29 1    
    47   31   29 1    
    48   57   29 1    
    49   35   30 1    
    50   32   31 1    
    51   33   31 1    
    52   58   31 1    
    53   69   32 1    
    54   34   33 1    
    55   35   33 1    
    56   59   33 1    
    57   70   34 1    
    58   36   35 1    
    59   60   35 1    
    60   37   36 ar   
    61   44   36 ar   
    62   38   37 ar   
    63   61   37 1    
    64   39   38 1    
    65   42   38 ar   
    66   40   39 2    
    67   41   39 am   
    68   62   41 1    
    69   63   41 1    
    70   43   42 ar   
    71   64   42 1    
    72   44   43 ar   
    73   65   43 1    
    74   66   44 1    
@<TRIPOS>SUBSTRUCTURE
     1 NAD336      1 GROUP   
@<TRIPOS>SET

