#    Name: 2zu8_GDD_1_INTS_M
#    Modification time : Tue Mar 25 11:07:29 2014

@<TRIPOS>MOLECULE
2zu8_GDD_1_INTS_M
   93     0    12     0     0
SMALL
NO_CHARGES


@<TRIPOS>ATOM
      1 O         -19.8630   -3.2660  -36.8080 O.2       1 ALC1        0.0000 
      2 O         -19.0310   -4.3920  -37.4810 O.2       9 ALL1        0.0000 
      3 O         -20.6950   -2.1400  -36.1350 O.2       5 ALP1        0.0000 
      4 O         -19.5350   -4.8160  -38.6905 O.2       1 ALC1        0.0000 
      5 O         -20.0390   -5.2400  -39.9000 O.2       5 ALP1        0.0000 
      6 O         -19.3455   -5.9495  -38.9615 O.2       1 ALC1        0.0000 
      7 O         -18.6520   -6.6590  -38.0230 O.2       9 ALL1        0.0000 
      8 CA        -16.7775   -4.7140  -35.6980 C.3       4 GLC5        0.0000 
      9 CA        -17.2710   -6.8550  -35.6560 C.3      12 GLL5        0.0000 
     10 CA        -16.2840   -2.5730  -35.7400 C.3       8 GLP5        0.0000 
     11 CA        -18.4470   -5.5560  -34.3005 C.3       4 GLC5        0.0000 
     12 CA        -19.6230   -4.2570  -32.9450 C.3       8 GLP5        0.0000 
     13 CA        -18.8610   -7.6180  -34.9710 C.3       4 GLC5        0.0000 
     14 CA        -20.4510   -8.3810  -34.2860 C.3       8 GLP5        0.0000 
     15 CA        -15.5270   -6.7995  -36.8125 C.3       4 GLC5        0.0000 
     16 CA        -13.7830   -6.7440  -37.9690 C.3       8 GLP5        0.0000 
     17 CA        -18.7820   -9.0735  -36.1560 C.3       4 GLC5        0.0000 
     18 CA        -17.3590   -7.9750  -36.4800 C.3      12 GLL5        0.0000 
     19 CA        -20.2050  -10.1720  -35.8320 C.3       8 GLP5        0.0000 
     20 CA        -16.0220   -7.2560  -37.8200 C.3       4 GLC5        0.0000 
     21 CA        -14.6850   -6.5370  -39.1600 C.3       8 GLP5        0.0000 
     22 N         -19.5995   -9.0270  -38.9355 N.am      2 SEC2        0.0000 
     23 N         -18.1740   -8.8450  -38.4200 N.am     10 SEL2        0.0000 
     24 N         -21.0250   -9.2090  -39.4510 N.am      6 SEP2        0.0000 
     25 N         -17.9435   -9.0935  -39.9365 N.am      2 SEC2        0.0000 
     26 N         -17.7130   -9.3420  -41.4530 N.am      6 SEP2        0.0000 
     27 CA        -15.6305   -4.3535  -34.1565 C.3       4 GLC5        0.0000 
     28 CA        -16.1520   -6.3280  -33.4730 C.3      12 GLL5        0.0000 
     29 CA        -15.1090   -2.3790  -34.8400 C.3       8 GLP5        0.0000 
     30 CA        -14.6460   -6.0260  -34.6520 C.3       4 GLC5        0.0000 
     31 CA        -13.1400   -5.7240  -35.8310 C.3       8 GLP5        0.0000 
     32 N         -19.0540   -6.7410  -32.2855 N.am      2 SEC2        0.0000 
     33 N         -17.6650   -6.9810  -31.7430 N.am     10 SEL2        0.0000 
     34 N         -20.4430   -6.5010  -32.8280 N.am      6 SEP2        0.0000 
     35 O         -17.6580   -7.5200  -30.5640 O.2       1 ALC1        0.0000 
     36 O         -17.6650   -6.9810  -31.7430 O.2       9 ALL1        0.0000 
     37 O         -17.6510   -8.0590  -29.3850 O.2       5 ALP1        0.0000 
     38 N         -15.8625   -3.9600  -29.8010 N.am      2 SEC2        0.0000 
     39 N         -16.1060   -4.9710  -30.7910 N.am     10 SEL2        0.0000 
     40 N         -15.6190   -2.9490  -28.8110 N.am      6 SEP2        0.0000 
     41 O         -16.6865   -3.9865  -31.7960 O.2       1 ALC1        0.0000 
     42 O         -16.1060   -4.9710  -30.7910 O.2       9 ALL1        0.0000 
     43 O         -17.2670   -3.0020  -32.8010 O.2       5 ALP1        0.0000 
     44 CA        -14.6870   -4.0950  -33.5125 C.3       4 GLC5        0.0000 
     45 CA        -14.2650   -5.8110  -32.1850 C.3      12 GLL5        0.0000 
     46 NZ        -15.0815  -10.2795  -29.6210 N.4       3 LYC4        0.0000 
     47 NZ        -13.9790  -10.1870  -30.2200 N.4      11 LYL4        0.0000 
     48 NZ        -16.1840  -10.3720  -29.0220 N.4       7 LYP4        0.0000 
     49 N         -15.0815  -10.2795  -29.6210 N.am      2 SEC2        0.0000 
     50 N         -13.9790  -10.1870  -30.2200 N.am     10 SEL2        0.0000 
     51 N         -16.1840  -10.3720  -29.0220 N.am      6 SEP2        0.0000 
     52 N         -12.7450   -8.5720  -28.1285 N.am      2 SEC2        0.0000 
     53 N         -11.6650   -8.6280  -29.1610 N.am     10 SEL2        0.0000 
     54 N         -13.8250   -8.5160  -27.0960 N.am      6 SEP2        0.0000 
     55 N         -11.3050   -7.8875  -28.1860 N.am      2 SEC2        0.0000 
     56 N         -10.9450   -7.1470  -27.2110 N.am      6 SEP2        0.0000 
     57 N         -11.1320  -12.1080  -30.4340 N.am      2 SEC2        0.0000 
     58 N         -10.8550  -10.9710  -29.6160 N.am     10 SEL2        0.0000 
     59 N         -11.4090  -13.2450  -31.2520 N.am      6 SEP2        0.0000 
     60 CA         -4.7705   -6.4225  -29.2980 C.3       4 GLC5        0.0000 
     61 CA         -6.3860   -6.5880  -30.2740 C.3      12 GLL5        0.0000 
     62 CA         -3.1550   -6.2570  -28.3220 C.3       8 GLP5        0.0000 
     63 O          -4.4520   -6.6355  -31.6265 O.2       1 ALC1        0.0000 
     64 O          -5.0770   -7.0180  -30.6500 O.2       9 ALL1        0.0000 
     65 O          -3.8270   -6.2530  -32.6030 O.2       5 ALP1        0.0000 
     66 CA        -10.6985   -6.6705  -34.1740 C.3       4 GLC5        0.0000 
     67 CA         -9.7680   -7.4900  -32.6240 C.3      12 GLL5        0.0000 
     68 CA        -11.6290   -5.8510  -35.7240 C.3       8 GLP5        0.0000 
     69 CA        -10.7440   -8.7975  -33.8905 C.3       4 GLC5        0.0000 
     70 CA        -11.7200  -10.1050  -35.1570 C.3       8 GLP5        0.0000 
     71 N         -10.4155   -5.3140  -34.0965 N.am      2 SEC2        0.0000 
     72 N          -9.8000   -6.0970  -32.9370 N.am     10 SEL2        0.0000 
     73 N         -11.0310   -4.5310  -35.2560 N.am      6 SEP2        0.0000 
     74 O         -10.1575   -5.2350  -31.7030 O.2       1 ALC1        0.0000 
     75 O          -9.8000   -6.0970  -32.9370 O.2       9 ALL1        0.0000 
     76 O         -10.5150   -4.3730  -30.4690 O.2       5 ALP1        0.0000 
     77 CA         -9.5300   -9.0340  -34.5680 C.3       4 GLC5        0.0000 
     78 CA         -8.4660   -8.0840  -33.1580 C.3      12 GLL5        0.0000 
     79 CA        -10.5940   -9.9840  -35.9780 C.3       8 GLP5        0.0000 
     80 N          -7.6590   -7.0830  -35.6620 N.am      2 SEC2        0.0000 
     81 N          -8.3990   -7.8770  -34.5710 N.am     10 SEL2        0.0000 
     82 N          -6.9190   -6.2890  -36.7530 N.am      6 SEP2        0.0000 
     83 CA        -17.9220   -5.4703  -32.8730 C.3       4 GLC5        0.0000 
     84 CA        -16.2900   -7.0390  -32.1290 C.3      12 GLL5        0.0000 
     85 CA        -13.4333   -6.0373  -33.9850 C.3       4 GLC5        0.0000 
     86 CA        -13.3289   -5.0097  -30.7880 C.3       4 GLC5        0.0000 
     87 CA        -13.1880   -6.8900  -32.0930 C.3      12 GLL5        0.0000 
     88 CA        -12.6420   -3.5860  -29.6720 C.3       8 GLP5        0.0000 
     89 CA         -7.1560   -9.6017  -33.0138 C.3       4 GLC5        0.0000 
     90 CA         -7.2900   -7.3930  -32.4670 C.3      12 GLL5        0.0000 
     91 CA         -6.4340  -11.4650  -33.2150 C.3       8 GLP5        0.0000 
     92 CA         -7.1641   -5.4236  -32.1826 C.3       4 GLC5        0.0000 
     93 CA         -7.2290   -3.6340  -32.8270 C.3       8 GLP5        0.0000 
@<TRIPOS>BOND
@<TRIPOS>SUBSTRUCTURE
     1 ALC1        1 GROUP        1 X    ALC  0     ROOT ALC X 1
     2 SEC2       22 GROUP        1 X    SEC  0     **** SEC X 2
     3 LYC4       46 GROUP        1 X    LYC  0     **** LYC X 4
     4 GLC5        8 GROUP        1 X    GLC  0     **** GLC X 6
     5 ALP1        3 GROUP        1 Y    ALP  0     ROOT ALP Y 8
     6 SEP2       24 GROUP        1 Y    SEP  0     **** SEP Y 9
     7 LYP4       48 GROUP        1 Y    LYP  0     **** LYP Y 11
     8 GLP5       10 GROUP        1 Y    GLP  0     **** GLP Y 13
     9 ALL1        2 GROUP        1 Z    ALL  0     ROOT ALL Z 15
    10 SEL2       23 GROUP        1 Z    SEL  0     **** SEL Z 16
    11 LYL4       47 GROUP        1 Z    LYL  0     **** LYL Z 18
    12 GLL5        9 GROUP        1 Z    GLL  0     **** GLL Z 20
@<TRIPOS>SET

