#    Name: 2zu8_GDD_1_ligand
#    Modification time : Tue Mar 25 11:07:29 2014

@<TRIPOS>MOLECULE
2zu8_GDD_1_ligand
   62    65     1     0     0
SMALL
NO_CHARGES


@<TRIPOS>ATOM
      1 N2        -19.0310   -4.3920  -37.4810 N.pl3     1 GDD395      0.0000 
      2 C2        -18.5210   -5.5720  -37.1610 C.2       1 GDD395      0.0000 
      3 N1        -18.6520   -6.6590  -38.0230 N.am      1 GDD395      0.0000 
      4 N3        -17.8400   -5.7110  -36.0000 N.2       1 GDD395      0.0000 
      5 C4        -17.2710   -6.8550  -35.6560 C.2       1 GDD395      0.0000 
      6 C5        -17.3590   -7.9750  -36.4800 C.2       1 GDD395      0.0000 
      7 C6        -18.0610   -7.8880  -37.6790 C.2       1 GDD395      0.0000 
      8 O6        -18.1740   -8.8450  -38.4200 O.2       1 GDD395      0.0000 
      9 N7        -16.6680   -8.9500  -35.8960 N.2       1 GDD395      0.0000 
     10 C8        -16.1630   -8.4780  -34.7600 C.2       1 GDD395      0.0000 
     11 N9        -16.5220   -7.2080  -34.6020 N.pl3     1 GDD395      0.0000 
     12 C1'       -16.1520   -6.3280  -33.4730 C.3       1 GDD395      0.0000 
     13 C2'       -16.2900   -7.0390  -32.1290 C.3       1 GDD395      0.0000 
     14 O2'       -17.6650   -6.9810  -31.7430 O.3       1 GDD395      0.0000 
     15 C3'       -15.4220   -6.1430  -31.2450 C.3       1 GDD395      0.0000 
     16 O3'       -16.1060   -4.9710  -30.7910 O.3       1 GDD395      0.0000 
     17 C4'       -14.2650   -5.8110  -32.1850 C.3       1 GDD395      0.0000 
     18 O4'       -14.7830   -5.8940  -33.5260 O.3       1 GDD395      0.0000 
     19 C5'       -13.1880   -6.8900  -32.0930 C.3       1 GDD395      0.0000 
     20 O5'       -13.4560   -7.8120  -31.0460 O.3       1 GDD395      0.0000 
     21 PA        -13.6250   -9.3620  -31.3900 P.3       1 GDD395      0.0000 
     22 O1A       -13.9790  -10.1870  -30.2200 O.co2     1 GDD395      0.0000 
     23 O2A       -13.9280   -9.7190  -32.7840 O.co2     1 GDD395      0.0000 
     24 O3A       -12.0480   -9.6390  -31.4060 O.3       1 GDD395      0.0000 
     25 PB        -11.1110   -9.6060  -30.1090 P.3       1 GDD395      0.0000 
     26 O2B       -11.6650   -8.6280  -29.1610 O.co2     1 GDD395      0.0000 
     27 O3B       -10.8550  -10.9710  -29.6160 O.co2     1 GDD395      0.0000 
     28 O1B        -9.7620   -9.0060  -30.7090 O.3       1 GDD395      0.0000 
     29 C11        -9.7900   -7.6360  -31.1050 C.3       1 GDD395      0.0000 
     30 O51        -8.6870   -6.9270  -30.5320 O.3       1 GDD395      0.0000 
     31 C51        -7.4310   -7.4790  -30.9450 C.3       1 GDD395      0.0000 
     32 C61        -6.3860   -6.5880  -30.2740 C.3       1 GDD395      0.0000 
     33 O6A        -5.0770   -7.0180  -30.6500 O.3       1 GDD395      0.0000 
     34 C21        -9.7680   -7.4900  -32.6240 C.3       1 GDD395      0.0000 
     35 O21        -9.8000   -6.0970  -32.9370 O.3       1 GDD395      0.0000 
     36 C31        -8.4660   -8.0840  -33.1580 C.3       1 GDD395      0.0000 
     37 O31        -8.3990   -7.8770  -34.5710 O.3       1 GDD395      0.0000 
     38 C41        -7.2900   -7.3930  -32.4670 C.3       1 GDD395      0.0000 
     39 O41        -6.0690   -8.0110  -32.8790 O.3       1 GDD395      0.0000 
     40 H         -19.4911   -4.3372  -38.3672 H         1 GDD395      0.0000 
     41 H         -18.9097   -3.6629  -36.8074 H         1 GDD395      0.0000 
     42 H         -19.1711   -6.5701  -38.8976 H         1 GDD395      0.0000 
     43 H         -15.6084   -8.9907  -34.1325 H         1 GDD395      0.0000 
     44 H         -16.8093   -5.4637  -33.4378 H         1 GDD395      0.0000 
     45 H         -15.8771   -7.9772  -32.1974 H         1 GDD395      0.0000 
     46 H         -15.0301   -6.7497  -30.4581 H         1 GDD395      0.0000 
     47 H         -13.8669   -4.8786  -31.9675 H         1 GDD395      0.0000 
     48 H         -12.2185   -6.3789  -31.9494 H         1 GDD395      0.0000 
     49 H         -13.1370   -7.3918  -33.0765 H         1 GDD395      0.0000 
     50 H         -10.7306   -7.1720  -30.7623 H         1 GDD395      0.0000 
     51 H          -7.3013   -8.4674  -30.6168 H         1 GDD395      0.0000 
     52 H          -6.5393   -6.6505  -29.1911 H         1 GDD395      0.0000 
     53 H          -6.5794   -5.5551  -30.5834 H         1 GDD395      0.0000 
     54 H         -10.5876   -8.0162  -33.0358 H         1 GDD395      0.0000 
     55 H          -8.4437   -9.1256  -32.9056 H         1 GDD395      0.0000 
     56 H          -7.3071   -6.3473  -32.7463 H         1 GDD395      0.0000 
     57 H         -17.7929   -7.7560  -31.1241 H         1 GDD395      0.0000 
     58 H         -16.3635   -4.4825  -31.6247 H         1 GDD395      0.0000 
     59 H          -4.6752   -6.2366  -31.1274 H         1 GDD395      0.0000 
     60 H         -10.0756   -5.6472  -32.0874 H         1 GDD395      0.0000 
     61 H          -8.0800   -8.7478  -34.9451 H         1 GDD395      0.0000 
     62 H          -5.4146   -7.8006  -32.1527 H         1 GDD395      0.0000 
@<TRIPOS>BOND
     1    2    1 1    
     2   40    1 1    
     3   41    1 1    
     4    3    2 1    
     5    4    2 2    
     6    7    3 am   
     7   42    3 1    
     8    5    4 1    
     9    6    5 2    
    10   11    5 1    
    11    7    6 1    
    12    9    6 1    
    13    8    7 2    
    14   10    9 2    
    15   11   10 1    
    16   43   10 1    
    17   12   11 1    
    18   13   12 1    
    19   18   12 1    
    20   44   12 1    
    21   14   13 1    
    22   15   13 1    
    23   45   13 1    
    24   57   14 1    
    25   16   15 1    
    26   17   15 1    
    27   46   15 1    
    28   58   16 1    
    29   18   17 1    
    30   19   17 1    
    31   47   17 1    
    32   20   19 1    
    33   48   19 1    
    34   49   19 1    
    35   21   20 1    
    36   22   21 ar   
    37   23   21 ar   
    38   24   21 1    
    39   25   24 1    
    40   26   25 ar   
    41   27   25 ar   
    42   28   25 1    
    43   29   28 1    
    44   30   29 1    
    45   34   29 1    
    46   50   29 1    
    47   31   30 1    
    48   32   31 1    
    49   38   31 1    
    50   51   31 1    
    51   33   32 1    
    52   52   32 1    
    53   53   32 1    
    54   59   33 1    
    55   35   34 1    
    56   36   34 1    
    57   54   34 1    
    58   60   35 1    
    59   37   36 1    
    60   38   36 1    
    61   55   36 1    
    62   61   37 1    
    63   39   38 1    
    64   56   38 1    
    65   62   39 1    
@<TRIPOS>SUBSTRUCTURE
     1 GDD395      1 GROUP   
@<TRIPOS>SET

