#    Name: 3aur_CA9_1_INTS_M
#    Modification time : Mon Mar 24 18:14:30 2014

@<TRIPOS>MOLECULE
3aur_CA9_1_INTS_M
  116     0     9     0     0
SMALL
NO_CHARGES


@<TRIPOS>ATOM
      1 CA         14.3450    0.1765  -33.5250 C.3       3 GLC5        0.0000 
      2 CA         12.4690   -0.4790  -33.3290 C.3       9 GLL5        0.0000 
      3 CA         16.2210    0.8320  -33.7210 C.3       6 GLP5        0.0000 
      4 CA         13.0285    0.7130  -31.5320 C.3       3 GLC5        0.0000 
      5 CA         13.5880    1.9050  -29.7350 C.3       6 GLP5        0.0000 
      6 CA         14.8480   -0.8495  -34.3690 C.3       3 GLC5        0.0000 
      7 CA         13.0130   -1.3010  -34.5050 C.3       9 GLL5        0.0000 
      8 CA         16.6830   -0.3980  -34.2330 C.3       6 GLP5        0.0000 
      9 CA         14.1895   -3.6180  -29.9475 C.3       3 GLC5        0.0000 
     10 CA         12.5920   -2.3110  -30.5580 C.3       9 GLL5        0.0000 
     11 CA         15.7870   -4.9250  -29.3370 C.3       6 GLP5        0.0000 
     12 CA          9.6285   -1.7520  -28.6435 C.3       3 GLC5        0.0000 
     13 CA         11.3260   -1.6000  -30.0660 C.3       9 GLL5        0.0000 
     14 CA          7.9310   -1.9040  -27.2210 C.3       6 GLP5        0.0000 
     15 CA         11.8630   -1.2180  -28.0550 C.3       3 GLC5        0.0000 
     16 CA         12.4000   -0.8360  -26.0440 C.3       6 GLP5        0.0000 
     17 CA          9.9115   -1.3550  -35.4930 C.3       3 GLC5        0.0000 
     18 CA         10.3210   -1.7090  -33.4510 C.3       9 GLL5        0.0000 
     19 CA          9.5020   -1.0010  -37.5350 C.3       6 GLP5        0.0000 
     20 CA          9.0425   -3.1730  -32.5835 C.3       3 GLC5        0.0000 
     21 CA          7.7640   -4.6370  -31.7160 C.3       6 GLP5        0.0000 
     22 CA         10.1905    1.2870  -28.1650 C.3       3 GLC5        0.0000 
     23 CA          9.6260    1.2040  -30.0870 C.3       9 GLL5        0.0000 
     24 CA         10.7550    1.3700  -26.2430 C.3       6 GLP5        0.0000 
     25 CA          9.1075    2.9760  -29.7740 C.3       3 GLC5        0.0000 
     26 CA          8.5890    4.7480  -29.4610 C.3       6 GLP5        0.0000 
     27 CA         11.6070    1.5545  -29.9110 C.3       3 GLC5        0.0000 
     28 CA          7.7965    1.5175  -29.2150 C.3       3 GLC5        0.0000 
     29 CA          5.9670    1.8310  -28.3430 C.3       6 GLP5        0.0000 
     30 CA          8.0645   -2.7055  -31.3505 C.3       3 GLC5        0.0000 
     31 CA          8.3650   -0.7740  -30.9850 C.3       9 GLL5        0.0000 
     32 CA          8.1480   -1.3390  -29.1030 C.3       3 GLC5        0.0000 
     33 CA          6.7780    1.5460  -32.3495 C.3       3 GLC5        0.0000 
     34 CA          7.1650   -0.1420  -31.7440 C.3       9 GLL5        0.0000 
     35 CA          6.3910    3.2340  -32.9550 C.3       6 GLP5        0.0000 
     36 CA          6.8660   -2.8315  -31.6385 C.3       3 GLC5        0.0000 
     37 CA          5.9680   -1.0260  -31.5610 C.3       9 GLL5        0.0000 
     38 CA          3.9015   -0.3465  -35.0545 C.3       3 GLC5        0.0000 
     39 CA          4.6110   -0.1310  -33.5090 C.3       9 GLL5        0.0000 
     40 CA          3.1920   -0.5620  -36.6000 C.3       6 GLP5        0.0000 
     41 CA          3.2460    1.3400  -33.7880 C.3       3 GLC5        0.0000 
     42 CA          1.8810    2.8110  -34.0670 C.3       6 GLP5        0.0000 
     43 CA          2.1600   -0.5095  -30.8275 C.3       3 GLC5        0.0000 
     44 CA          3.6460   -1.6000  -31.8160 C.3       9 GLL5        0.0000 
     45 CA          0.6740    0.5810  -29.8390 C.3       6 GLP5        0.0000 
     46 CA          2.1765   -2.9905  -31.3935 C.3       3 GLC5        0.0000 
     47 CA          0.7070   -4.3810  -30.9710 C.3       6 GLP5        0.0000 
     48 N           4.6725    0.7290  -29.9145 N.am      2 SEC2        0.0000 
     49 N           4.2800    0.6040  -31.1610 N.am      8 SEL2        0.0000 
     50 N           5.0650    0.8540  -28.6680 N.am      5 SEP2        0.0000 
     51 O           4.8845    1.7220  -31.5760 O.2       1 ALC1        0.0000 
     52 O           4.2800    0.6040  -31.1610 O.2       7 ALL1        0.0000 
     53 O           5.4890    2.8400  -31.9910 O.2       4 ALP1        0.0000 
     54 CA         12.8915   -6.2965  -34.1130 C.3       3 GLC5        0.0000 
     55 CA         13.9410   -5.5970  -32.3060 C.3       9 GLL5        0.0000 
     56 CA         11.8420   -6.9960  -35.9200 C.3       6 GLP5        0.0000 
     57 CA         14.4815   -9.0675  -34.4035 C.3       3 GLC5        0.0000 
     58 CA         15.1810   -7.6550  -32.8120 C.3       9 GLL5        0.0000 
     59 CA         13.7820  -10.4800  -35.9950 C.3       6 GLP5        0.0000 
     60 CA         16.9730  -10.1940  -30.9940 C.3       3 GLC5        0.0000 
     61 CA         15.7630   -8.9090  -32.1380 C.3       9 GLL5        0.0000 
     62 CA         18.1830  -11.4790  -29.8500 C.3       6 GLP5        0.0000 
     63 CA         16.2360   -7.4830  -30.5210 C.3       3 GLC5        0.0000 
     64 CA         16.7090   -6.0570  -28.9040 C.3       6 GLP5        0.0000 
     65 CA         14.2400   -8.8050  -28.4125 C.3       3 GLC5        0.0000 
     66 CA         14.1800   -8.7030  -30.2180 C.3       9 GLL5        0.0000 
     67 CA         14.3000   -8.9070  -26.6070 C.3       6 GLP5        0.0000 
     68 CA         15.4445   -7.3800  -29.5610 C.3       3 GLC5        0.0000 
     69 CA         12.2645   -6.4965  -29.6050 C.3       3 GLC5        0.0000 
     70 CA         13.7350   -7.3510  -30.8210 C.3       9 GLL5        0.0000 
     71 CA         10.7940   -5.6420  -28.3890 C.3       6 GLP5        0.0000 
     72 N          17.7165   -9.4335  -30.9600 N.am      2 SEC2        0.0000 
     73 N          16.8350   -8.4430  -31.3080 N.am      8 SEL2        0.0000 
     74 N          18.5980  -10.4240  -30.6120 N.am      5 SEP2        0.0000 
     75 O          17.6205   -7.5675  -32.0770 O.2       1 ALC1        0.0000 
     76 O          16.8350   -8.4430  -31.3080 O.2       7 ALL1        0.0000 
     77 O          18.4060   -6.6920  -32.8460 O.2       4 ALP1        0.0000 
     78 N          13.0945  -10.5570  -28.8275 N.am      2 SEC2        0.0000 
     79 N          13.1010   -9.2700  -29.4610 N.am      8 SEL2        0.0000 
     80 N          13.0880  -11.8440  -28.1940 N.am      5 SEP2        0.0000 
     81 O          11.8350   -9.3330  -30.0520 O.2       1 ALC1        0.0000 
     82 O          13.1010   -9.2700  -29.4610 O.2       7 ALL1        0.0000 
     83 O          10.5690   -9.3960  -30.6430 O.2       4 ALP1        0.0000 
     84 CA         13.7125  -10.4040  -34.0765 C.3       3 GLC5        0.0000 
     85 CA         13.6430  -10.3280  -32.1580 C.3       9 GLL5        0.0000 
     86 CA         12.4860   -9.6155  -33.3365 C.3       3 GLC5        0.0000 
     87 CA         11.3290   -8.9030  -34.5150 C.3       6 GLP5        0.0000 
     88 CA         15.2080   -2.1875  -33.3987 C.3       3 GLC5        0.0000 
     89 CA         13.2150   -3.2510  -32.9170 C.3       9 GLL5        0.0000 
     90 CA         16.9940   -1.4390  -33.3220 C.3       6 GLP5        0.0000 
     91 CA         12.6875    0.6995  -34.7785 C.3       3 GLC5        0.0000 
     92 CA         12.6340    2.2890  -35.6400 C.3       6 GLP5        0.0000 
     93 CA         14.1865   -2.0320  -36.1532 C.3       3 GLC5        0.0000 
     94 CA         15.0520   -2.1030  -38.0370 C.3       6 GLP5        0.0000 
     95 CA         11.3765   -3.7988  -29.3505 C.3       3 GLC5        0.0000 
     96 CA         12.5403    0.3169  -30.2473 C.3       3 GLC5        0.0000 
     97 CA         11.0260   -0.5870  -31.2070 C.3       9 GLL5        0.0000 
     98 CA          6.4167    0.5445  -29.9029 C.3       3 GLC5        0.0000 
     99 CA          5.5065    1.4612  -32.8593 C.3       3 GLC5        0.0000 
    100 CA          4.6330   -0.4920  -32.0180 C.3       9 GLL5        0.0000 
    101 CA         14.7900   -4.9768  -30.9025 C.3       3 GLC5        0.0000 
    102 CA         13.6450   -4.4600  -32.6300 C.3       9 GLL5        0.0000 
    103 CA         15.6945   -4.1582  -32.3135 C.3       3 GLC5        0.0000 
    104 CA         17.5960   -3.2880  -32.1590 C.3       6 GLP5        0.0000 
    105 CA         13.0162   -8.0705  -33.4502 C.3       3 GLC5        0.0000 
    106 CA         14.2260   -6.8210  -31.9590 C.3       9 GLL5        0.0000 
    107 CA         17.4265   -7.9385  -32.8935 C.3       3 GLC5        0.0000 
    108 CA         19.3810   -7.5950  -33.3120 C.3       6 GLP5        0.0000 
    109 CA         16.2800   -8.2235  -34.2165 C.3       3 GLC5        0.0000 
    110 CA         17.0880   -8.1650  -35.9580 C.3       6 GLP5        0.0000 
    111 CA         16.5562  -10.4588  -32.7240 C.3       3 GLC5        0.0000 
    112 CA         17.8670  -11.6250  -33.7400 C.3       6 GLP5        0.0000 
    113 CA         15.7990  -10.2793  -29.8610 C.3       3 GLC5        0.0000 
    114 CA         14.7280   -9.6760  -31.2780 C.3       9 GLL5        0.0000 
    115 CA         17.1440  -11.3690  -28.9740 C.3       6 GLP5        0.0000 
    116 CA         15.0031   -6.1098  -30.4701 C.3       3 GLC5        0.0000 
@<TRIPOS>BOND
@<TRIPOS>SUBSTRUCTURE
     1 ALC1       51 GROUP        1 X    ALC  0     ROOT ALC X 1
     2 SEC2       48 GROUP        1 X    SEC  0     **** SEC X 2
     3 GLC5        1 GROUP        1 X    GLC  0     **** GLC X 6
     4 ALP1       53 GROUP        1 Y    ALP  0     ROOT ALP Y 8
     5 SEP2       50 GROUP        1 Y    SEP  0     **** SEP Y 9
     6 GLP5        3 GROUP        1 Y    GLP  0     **** GLP Y 13
     7 ALL1       52 GROUP        1 Z    ALL  0     ROOT ALL Z 15
     8 SEL2       49 GROUP        1 Z    SEL  0     **** SEL Z 16
     9 GLL5        2 GROUP        1 Z    GLL  0     **** GLL Z 20
@<TRIPOS>SET

