#    Name: 3aur_CA9_1_ligand
#    Modification time : Mon Mar 24 18:14:30 2014

@<TRIPOS>MOLECULE
3aur_CA9_1_ligand
   72    74     1     0     0
SMALL
NO_CHARGES


@<TRIPOS>ATOM
      1 C1         13.2150   -3.2510  -32.9170 C.2       1 CA91        0.0000 
      2 C2         12.4690   -0.4790  -33.3290 C.3       1 CA91        0.0000 
      3 C3         13.0130   -1.3010  -34.5050 C.3       1 CA91        0.0000 
      4 C4         13.6290   -2.6210  -34.0340 C.2       1 CA91        0.0000 
      5 C5         11.4800   -1.3040  -32.5250 C.3       1 CA91        0.0000 
      6 C6         12.1740   -2.5720  -32.0260 C.3       1 CA91        0.0000 
      7 C7         12.5920   -2.3110  -30.5580 C.3       1 CA91        0.0000 
      8 C8         11.3260   -1.6000  -30.0660 C.3       1 CA91        0.0000 
      9 C9         11.0260   -0.5870  -31.2070 C.3       1 CA91        0.0000 
     10 C10        10.3210   -1.7090  -33.4510 C.3       1 CA91        0.0000 
     11 C12         9.6210    0.1130  -31.1560 C.3       1 CA91        0.0000 
     12 C13         9.6260    1.2040  -30.0870 C.3       1 CA91        0.0000 
     13 C14         8.3650   -0.7740  -30.9850 C.3       1 CA91        0.0000 
     14 C15         7.1650   -0.1420  -31.7440 C.3       1 CA91        0.0000 
     15 C16         5.9680   -1.0260  -31.5610 C.3       1 CA91        0.0000 
     16 C17         4.6330   -0.4920  -32.0180 C.3       1 CA91        0.0000 
     17 C18         4.6110   -0.1310  -33.5090 C.3       1 CA91        0.0000 
     18 C19         3.6460   -1.6000  -31.8160 C.3       1 CA91        0.0000 
     19 O20         4.2800    0.6040  -31.1610 O.3       1 CA91        0.0000 
     20 C21        13.6450   -4.4600  -32.6300 C.1       1 CA91        0.0000 
     21 C22        13.9410   -5.5970  -32.3060 C.1       1 CA91        0.0000 
     22 C23        14.2260   -6.8210  -31.9590 C.2       1 CA91        0.0000 
     23 C24        15.1810   -7.6550  -32.8120 C.2       1 CA91        0.0000 
     24 C25        15.7630   -8.9090  -32.1380 C.3       1 CA91        0.0000 
     25 C26        14.7280   -9.6760  -31.2780 C.3       1 CA91        0.0000 
     26 C27        14.1800   -8.7030  -30.2180 C.3       1 CA91        0.0000 
     27 C28        13.7350   -7.3510  -30.8210 C.3       1 CA91        0.0000 
     28 O29        16.8350   -8.4430  -31.3080 O.3       1 CA91        0.0000 
     29 O30        13.1010   -9.2700  -29.4610 O.3       1 CA91        0.0000 
     30 C31        13.6430  -10.3280  -32.1580 C.3       1 CA91        0.0000 
     31 H          11.9755    0.4084  -33.7157 H         1 CA91        0.0000 
     32 H          13.2976   -0.1799  -32.6930 H         1 CA91        0.0000 
     33 H          13.7721   -0.7167  -35.0274 H         1 CA91        0.0000 
     34 H          12.1982   -1.5125  -35.1993 H         1 CA91        0.0000 
     35 H          14.3808   -2.9778  -34.6443 H         1 CA91        0.0000 
     36 H          11.3020   -3.3352  -31.9089 H         1 CA91        0.0000 
     37 H          13.4012   -1.6577  -30.5376 H         1 CA91        0.0000 
     38 H          12.7092   -3.2184  -30.0630 H         1 CA91        0.0000 
     39 H          11.5290   -1.0716  -29.1771 H         1 CA91        0.0000 
     40 H          10.5297   -2.2864  -29.9929 H         1 CA91        0.0000 
     41 H          11.8111    0.2320  -31.0517 H         1 CA91        0.0000 
     42 H           9.5053    0.6580  -32.1318 H         1 CA91        0.0000 
     43 H           8.1193   -0.8465  -29.9362 H         1 CA91        0.0000 
     44 H           8.5621   -1.7543  -31.3922 H         1 CA91        0.0000 
     45 H           7.4249   -0.0663  -32.7889 H         1 CA91        0.0000 
     46 H           6.9797    0.8382  -31.3317 H         1 CA91        0.0000 
     47 H           5.8863   -1.3045  -30.4760 H         1 CA91        0.0000 
     48 H           6.1567   -2.0030  -32.0819 H         1 CA91        0.0000 
     49 H          15.4043   -7.4176  -33.7038 H         1 CA91        0.0000 
     50 H          16.1339   -9.5618  -32.9043 H         1 CA91        0.0000 
     51 H          15.2761  -10.4651  -30.7555 H         1 CA91        0.0000 
     52 H          15.0217   -8.4683  -29.5313 H         1 CA91        0.0000 
     53 H          12.5663   -7.4285  -30.8568 H         1 CA91        0.0000 
     54 H          13.8262   -6.5991  -29.9269 H         1 CA91        0.0000 
     55 H          10.6393   -2.2500  -34.2295 H         1 CA91        0.0000 
     56 H           9.6374   -2.2593  -32.9715 H         1 CA91        0.0000 
     57 H           9.8466   -0.9111  -33.8229 H         1 CA91        0.0000 
     58 H           9.8208    0.8333  -29.1789 H         1 CA91        0.0000 
     59 H          10.3169    1.9027  -30.2727 H         1 CA91        0.0000 
     60 H           8.7440    1.6718  -30.0296 H         1 CA91        0.0000 
     61 H           5.2845    0.5743  -33.7303 H         1 CA91        0.0000 
     62 H           4.8148   -0.9221  -34.0857 H         1 CA91        0.0000 
     63 H           3.7178    0.2170  -33.7937 H         1 CA91        0.0000 
     64 H           3.8873   -2.4134  -32.3453 H         1 CA91        0.0000 
     65 H           3.5923   -1.8794  -30.8573 H         1 CA91        0.0000 
     66 H           2.7240   -1.3316  -32.0951 H         1 CA91        0.0000 
     67 H          14.0339  -10.9807  -32.8070 H         1 CA91        0.0000 
     68 H          12.9706  -10.8261  -31.6105 H         1 CA91        0.0000 
     69 H          13.1404   -9.6485  -32.6924 H         1 CA91        0.0000 
     70 H           4.5728    1.5600  -31.1850 H         1 CA91        0.0000 
     71 H          17.5578   -8.1751  -31.9451 H         1 CA91        0.0000 
     72 H          12.2959   -9.1739  -30.0463 H         1 CA91        0.0000 
@<TRIPOS>BOND
     1    4    1 2    
     2    6    1 1    
     3   20    1 1    
     4    3    2 1    
     5    5    2 1    
     6   31    2 1    
     7   32    2 1    
     8    4    3 1    
     9   33    3 1    
    10   34    3 1    
    11   35    4 1    
    12    6    5 1    
    13    9    5 1    
    14   10    5 1    
    15    7    6 1    
    16   36    6 1    
    17    8    7 1    
    18   37    7 1    
    19   38    7 1    
    20    9    8 1    
    21   39    8 1    
    22   40    8 1    
    23   11    9 1    
    24   41    9 1    
    25   55   10 1    
    26   56   10 1    
    27   57   10 1    
    28   12   11 1    
    29   13   11 1    
    30   42   11 1    
    31   58   12 1    
    32   59   12 1    
    33   60   12 1    
    34   14   13 1    
    35   43   13 1    
    36   44   13 1    
    37   15   14 1    
    38   45   14 1    
    39   46   14 1    
    40   16   15 1    
    41   47   15 1    
    42   48   15 1    
    43   17   16 1    
    44   18   16 1    
    45   19   16 1    
    46   61   17 1    
    47   62   17 1    
    48   63   17 1    
    49   64   18 1    
    50   65   18 1    
    51   66   18 1    
    52   70   19 1    
    53   21   20 3    
    54   22   21 1    
    55   23   22 2    
    56   27   22 1    
    57   24   23 1    
    58   49   23 1    
    59   25   24 1    
    60   28   24 1    
    61   50   24 1    
    62   26   25 1    
    63   30   25 1    
    64   51   25 1    
    65   27   26 1    
    66   29   26 1    
    67   52   26 1    
    68   53   27 1    
    69   54   27 1    
    70   71   28 1    
    71   72   29 1    
    72   67   30 1    
    73   68   30 1    
    74   69   30 1    
@<TRIPOS>SUBSTRUCTURE
     1 CA91        1 GROUP   
@<TRIPOS>SET

