#    Name: 1g63_FMN_10_INTS_M
#    Modification time : Tue Mar 25 02:40:20 2014

@<TRIPOS>MOLECULE
1g63_FMN_10_INTS_M
   66     0     9     0     0
SMALL
NO_CHARGES


@<TRIPOS>ATOM
      1 N          43.0935   16.8245   64.3270 N.am      2 SEC2        0.0000 
      2 N          43.9440   15.6500   64.1750 N.am      8 SEL2        0.0000 
      3 N          42.2430   17.9990   64.4790 N.am      5 SEP2        0.0000 
      4 O          44.1915   13.9960   66.0805 O.2       1 ALC1        0.0000 
      5 O          44.7950   13.6670   64.8010 O.2       7 ALL1        0.0000 
      6 O          43.5880   14.3250   67.3600 O.2       4 ALP1        0.0000 
      7 N          45.3010    9.9540   63.5075 N.am      2 SEC2        0.0000 
      8 N          46.4000   11.0700   62.8750 N.am      8 SEL2        0.0000 
      9 N          44.2020    8.8380   64.1400 N.am      5 SEP2        0.0000 
     10 CA         46.6650    8.4635   62.9275 C.3       3 GLC5        0.0000 
     11 CA         47.1570    9.4600   61.1930 C.3       9 GLL5        0.0000 
     12 CA         46.1730    7.4670   64.6620 C.3       6 GLP5        0.0000 
     13 CA         47.1420    6.8130   58.2505 C.3       3 GLC5        0.0000 
     14 CA         48.0780    7.7310   59.5760 C.3       9 GLL5        0.0000 
     15 CA         46.2060    5.8950   56.9250 C.3       6 GLP5        0.0000 
     16 CA         46.2150    7.5745   60.0265 C.3       3 GLC5        0.0000 
     17 CA         44.3520    7.4180   60.4770 C.3       6 GLP5        0.0000 
     18 CA         48.3960    6.0685   60.2245 C.3       3 GLC5        0.0000 
     19 CA         48.7140    4.4060   60.8730 C.3       6 GLP5        0.0000 
     20 CA         48.0670    8.3445   56.4745 C.3       3 GLC5        0.0000 
     21 CA         47.4700    9.6830   57.3910 C.3       9 GLL5        0.0000 
     22 CA         48.6640    7.0060   55.5580 C.3       6 GLP5        0.0000 
     23 CA         45.7580    9.0610   58.4855 C.3       3 GLC5        0.0000 
     24 CA         44.0460    8.4390   59.5800 C.3       6 GLP5        0.0000 
     25 CA         47.7215   13.8915   59.8680 C.3       3 GLC5        0.0000 
     26 CA         45.6090   13.9940   59.8160 C.3       9 GLL5        0.0000 
     27 CA         49.8340   13.7890   59.9200 C.3       6 GLP5        0.0000 
     28 CA         46.8015   15.5440   59.2460 C.3       3 GLC5        0.0000 
     29 CA         47.9940   17.0940   58.6760 C.3       6 GLP5        0.0000 
     30 CA         42.4110   12.6235   59.4320 C.3       3 GLC5        0.0000 
     31 CA         44.1160   13.9310   59.4340 C.3       9 GLL5        0.0000 
     32 CA         40.7060   11.3160   59.4300 C.3       6 GLP5        0.0000 
     33 O          43.1080   12.1415   60.1875 O.2       1 ALC1        0.0000 
     34 O          43.6720   12.6630   58.9740 O.2       7 ALL1        0.0000 
     35 O          42.5440   11.6200   61.4010 O.2       4 ALP1        0.0000 
     36 N          45.0620   16.9375   58.0860 N.am      2 SEC2        0.0000 
     37 N          43.9730   16.3010   58.9430 N.am      8 SEL2        0.0000 
     38 N          46.1510   17.5740   57.2290 N.am      5 SEP2        0.0000 
     39 O          43.5740   17.4550   58.1125 O.2       1 ALC1        0.0000 
     40 O          43.9730   16.3010   58.9430 O.2       7 ALL1        0.0000 
     41 O          43.1750   18.6090   57.2820 O.2       4 ALP1        0.0000 
     42 O          42.7290   17.2290   56.9610 O.2       1 ALC1        0.0000 
     43 O          42.2830   15.8490   56.6400 O.2       7 ALL1        0.0000 
     44 CA         41.0665   15.3520   60.9575 C.3       3 GLC5        0.0000 
     45 CA         41.2820   15.1660   58.7620 C.3       9 GLL5        0.0000 
     46 CA         40.8510   15.5380   63.1530 C.3       6 GLP5        0.0000 
     47 CA         41.1360   17.0585   59.2910 C.3       3 GLC5        0.0000 
     48 CA         40.9900   18.9510   59.8200 C.3       6 GLP5        0.0000 
     49 N          39.1470   16.0975   61.1700 N.am      2 SEC2        0.0000 
     50 N          38.5580   16.1090   59.8740 N.am      8 SEL2        0.0000 
     51 N          39.7360   16.0860   62.4660 N.am      5 SEP2        0.0000 
     52 N          38.9025   17.4130   59.0290 N.am      2 SEC2        0.0000 
     53 N          39.2470   18.7170   58.1840 N.am      5 SEP2        0.0000 
     54 N          37.4955   16.5825   60.6420 N.am      2 SEC2        0.0000 
     55 N          36.4330   17.0560   61.4100 N.am      5 SEP2        0.0000 
     56 N          38.8750   12.5825   60.5000 N.am      2 SEC2        0.0000 
     57 N          38.6410   13.5860   59.7390 N.am      8 SEL2        0.0000 
     58 N          39.1090   11.5790   61.2610 N.am      5 SEP2        0.0000 
     59 N          37.5820   12.8275   59.3665 N.am      2 SEC2        0.0000 
     60 N          36.5230   12.0690   58.9940 N.am      5 SEP2        0.0000 
     61 N          37.0250   13.4680   58.4335 N.am      2 SEC2        0.0000 
     62 N          37.5270   14.8670   57.8730 N.am      8 SEL2        0.0000 
     63 CA         48.1975   12.6487   59.8663 C.3       3 GLC5        0.0000 
     64 CA         46.4120   11.7070   60.4740 C.3       9 GLL5        0.0000 
     65 CA         41.2737   13.1803   58.8453 C.3       3 GLC5        0.0000 
     66 CA         42.4010   14.9230   57.7590 C.3       9 GLL5        0.0000 
@<TRIPOS>BOND
@<TRIPOS>SUBSTRUCTURE
     1 ALC1        4 GROUP        1 X    ALC  0     ROOT ALC X 1
     2 SEC2        1 GROUP        1 X    SEC  0     **** SEC X 2
     3 GLC5       10 GROUP        1 X    GLC  0     **** GLC X 6
     4 ALP1        6 GROUP        1 Y    ALP  0     ROOT ALP Y 8
     5 SEP2        3 GROUP        1 Y    SEP  0     **** SEP Y 9
     6 GLP5       12 GROUP        1 Y    GLP  0     **** GLP Y 13
     7 ALL1        5 GROUP        1 Z    ALL  0     ROOT ALL Z 15
     8 SEL2        2 GROUP        1 Z    SEL  0     **** SEL Z 16
     9 GLL5       11 GROUP        1 Z    GLL  0     **** GLL Z 20
@<TRIPOS>SET

