#    Name: 1g63_FMN_10_ligand
#    Modification time : Tue Mar 25 02:40:21 2014

@<TRIPOS>MOLECULE
1g63_FMN_10_ligand
   50    52     1     0     0
SMALL
NO_CHARGES


@<TRIPOS>ATOM
      1 N1         44.8590   14.3930   62.5030 N.2       1 FMN509      0.0000 
      2 C2         44.4970   14.6470   63.8060 C.2       1 FMN509      0.0000 
      3 O2         43.9440   15.6500   64.1750 O.2       1 FMN509      0.0000 
      4 N3         44.7950   13.6670   64.8010 N.am      1 FMN509      0.0000 
      5 C4         45.4160   12.4840   64.5860 C.2       1 FMN509      0.0000 
      6 O4         45.6540   11.7160   65.5400 O.2       1 FMN509      0.0000 
      7 C4A        45.8300   12.2190   63.2010 C.2       1 FMN509      0.0000 
      8 N5         46.4000   11.0700   62.8750 N.2       1 FMN509      0.0000 
      9 C5A        46.6260   10.7700   61.5570 C.ar      1 FMN509      0.0000 
     10 C6         47.1570    9.4600   61.1930 C.ar      1 FMN509      0.0000 
     11 C7         47.5370    9.1360   59.9190 C.ar      1 FMN509      0.0000 
     12 C7M        48.0780    7.7310   59.5760 C.3       1 FMN509      0.0000 
     13 C8         47.1930   10.0480   58.8200 C.ar      1 FMN509      0.0000 
     14 C8M        47.4700    9.6830   57.3910 C.3       1 FMN509      0.0000 
     15 C9         46.7100   11.3100   59.1510 C.ar      1 FMN509      0.0000 
     16 C9A        46.4120   11.7070   60.4740 C.ar      1 FMN509      0.0000 
     17 N10        45.8900   12.9810   60.8620 N.pl3     1 FMN509      0.0000 
     18 C10        45.4870   13.2490   62.1830 C.2       1 FMN509      0.0000 
     19 C1'        45.6090   13.9940   59.8160 C.3       1 FMN509      0.0000 
     20 C2'        44.1160   13.9310   59.4340 C.3       1 FMN509      0.0000 
     21 O2'        43.6720   12.6630   58.9740 O.3       1 FMN509      0.0000 
     22 C3'        43.7960   14.9770   58.3620 C.3       1 FMN509      0.0000 
     23 O3'        43.9730   16.3010   58.9430 O.3       1 FMN509      0.0000 
     24 C4'        42.4010   14.9230   57.7590 C.3       1 FMN509      0.0000 
     25 O4'        42.2830   15.8490   56.6400 O.3       1 FMN509      0.0000 
     26 C5'        41.2820   15.1660   58.7620 C.3       1 FMN509      0.0000 
     27 O5'        39.9900   14.9970   58.1420 O.3       1 FMN509      0.0000 
     28 P          38.6400   14.8880   58.9770 P.3       1 FMN509      0.0000 
     29 O1P        38.5580   16.1090   59.8740 O.co2     1 FMN509      0.0000 
     30 O2P        38.6410   13.5860   59.7390 O.co2     1 FMN509      0.0000 
     31 O3P        37.5270   14.8670   57.8730 O.co2     1 FMN509      0.0000 
     32 H          44.4886   13.9172   65.7952 H         1 FMN509      0.0000 
     33 H          47.2358    8.7645   61.9666 H         1 FMN509      0.0000 
     34 H          46.5560   12.0097   58.3850 H         1 FMN509      0.0000 
     35 H          46.1982   13.7998   58.9247 H         1 FMN509      0.0000 
     36 H          45.8265   14.9935   60.1806 H         1 FMN509      0.0000 
     37 H          43.5412   14.2352   60.3300 H         1 FMN509      0.0000 
     38 H          44.5242   14.8645   57.5493 H         1 FMN509      0.0000 
     39 H          42.2581   13.8906   57.3630 H         1 FMN509      0.0000 
     40 H          41.4002   16.1826   59.1637 H         1 FMN509      0.0000 
     41 H          41.4165   14.4648   59.5981 H         1 FMN509      0.0000 
     42 H          48.3122    7.6495   58.6072 H         1 FMN509      0.0000 
     43 H          48.9038    7.5137   60.0965 H         1 FMN509      0.0000 
     44 H          47.4084    7.0160   59.7768 H         1 FMN509      0.0000 
     45 H          48.4446    9.5278   57.2295 H         1 FMN509      0.0000 
     46 H          46.9915    8.8472   57.1217 H         1 FMN509      0.0000 
     47 H          47.1795   10.4030   56.7608 H         1 FMN509      0.0000 
     48 H          43.2693   12.2231   59.7767 H         1 FMN509      0.0000 
     49 H          43.3411   16.8908   58.4401 H         1 FMN509      0.0000 
     50 H          42.4586   16.7521   57.0319 H         1 FMN509      0.0000 
@<TRIPOS>BOND
     1    2    1 1    
     2   18    1 2    
     3    3    2 2    
     4    4    2 am   
     5    5    4 am   
     6   32    4 1    
     7    6    5 2    
     8    7    5 1    
     9    8    7 2    
    10   18    7 1    
    11    9    8 1    
    12   10    9 ar   
    13   16    9 ar   
    14   11   10 ar   
    15   33   10 1    
    16   12   11 1    
    17   13   11 ar   
    18   42   12 1    
    19   43   12 1    
    20   44   12 1    
    21   14   13 1    
    22   15   13 ar   
    23   45   14 1    
    24   46   14 1    
    25   47   14 1    
    26   16   15 ar   
    27   34   15 1    
    28   17   16 1    
    29   18   17 1    
    30   19   17 1    
    31   20   19 1    
    32   35   19 1    
    33   36   19 1    
    34   21   20 1    
    35   22   20 1    
    36   37   20 1    
    37   48   21 1    
    38   23   22 1    
    39   24   22 1    
    40   38   22 1    
    41   49   23 1    
    42   25   24 1    
    43   26   24 1    
    44   39   24 1    
    45   50   25 1    
    46   27   26 1    
    47   40   26 1    
    48   41   26 1    
    49   28   27 1    
    50   29   28 ar   
    51   30   28 ar   
    52   31   28 ar   
@<TRIPOS>SUBSTRUCTURE
     1 FMN509      1 GROUP   
@<TRIPOS>SET

