#    Name: 4enh_FVX_1_INTS_M
#    Modification time : Mon Mar 24 18:18:46 2014

@<TRIPOS>MOLECULE
4enh_FVX_1_INTS_M
   56     0     6     0     0
SMALL
NO_CHARGES


@<TRIPOS>ATOM
      1 CA          4.8940   27.5590  -18.2080 C.3       2 GLC5        0.0000 
      2 CA          3.1570   27.5380  -17.5890 C.3       6 GLL5        0.0000 
      3 CA          6.6310   27.5800  -18.8270 C.3       4 GLP5        0.0000 
      4 CA          2.7585   26.1205  -16.4650 C.3       2 GLC5        0.0000 
      5 CA          2.3600   24.7030  -15.3410 C.3       4 GLP5        0.0000 
      6 CA          3.9680   28.1510  -16.1710 C.3       2 GLC5        0.0000 
      7 CA          4.7790   28.7640  -14.7530 C.3       4 GLP5        0.0000 
      8 CA          3.8005   26.0695  -18.5230 C.3       2 GLC5        0.0000 
      9 CA          4.4440   24.6010  -19.4570 C.3       4 GLP5        0.0000 
     10 CA          1.7785   27.7865  -16.3515 C.3       2 GLC5        0.0000 
     11 CA          0.4000   28.0350  -15.1140 C.3       4 GLP5        0.0000 
     12 CA          3.4300   26.1375  -19.6270 C.3       2 GLC5        0.0000 
     13 CA          2.4160   27.6740  -19.7970 C.3       6 GLL5        0.0000 
     14 CA          3.2385   31.6050  -19.8265 C.3       2 GLC5        0.0000 
     15 CA          2.0130   30.0880  -20.4040 C.3       6 GLL5        0.0000 
     16 CA          4.4640   33.1220  -19.2490 C.3       4 GLP5        0.0000 
     17 CA         -0.7725   28.6460  -19.8830 C.3       2 GLC5        0.0000 
     18 CA          0.5220   29.8280  -20.6140 C.3       6 GLL5        0.0000 
     19 CA         -2.0670   27.4640  -19.1520 C.3       4 GLP5        0.0000 
     20 CA          2.8300   27.0820  -24.6720 C.3       2 GLC5        0.0000 
     21 CA          1.3980   27.9110  -24.9040 C.3       6 GLL5        0.0000 
     22 CA          4.2620   26.2530  -24.4400 C.3       4 GLP5        0.0000 
     23 O           1.3680   25.5100  -25.4215 O.2       1 ALC1        0.0000 
     24 O           0.8670   26.7950  -25.7260 O.2       5 ALL1        0.0000 
     25 O           1.8690   24.2250  -25.1170 O.2       3 ALP1        0.0000 
     26 O          -0.1935   25.8890  -25.1445 O.2       1 ALC1        0.0000 
     27 O          -1.2540   24.9830  -24.5630 O.2       3 ALP1        0.0000 
     28 CA          0.9805   37.1655  -21.0310 C.3       2 GLC5        0.0000 
     29 CA         -0.6840   36.7690  -19.5820 C.3       6 GLL5        0.0000 
     30 CA          2.6450   37.5620  -22.4800 C.3       4 GLP5        0.0000 
     31 CA         -2.6940   36.9815  -18.5965 C.3       2 GLC5        0.0000 
     32 CA         -4.7040   37.1940  -17.6110 C.3       4 GLP5        0.0000 
     33 CA         -3.7640   36.7135  -18.7525 C.3       2 GLC5        0.0000 
     34 CA         -2.8240   36.2330  -19.8940 C.3       6 GLL5        0.0000 
     35 CA         -4.1625   36.2295  -21.3780 C.3       2 GLC5        0.0000 
     36 CA         -5.5010   36.2260  -22.8620 C.3       4 GLP5        0.0000 
     37 CA         -2.5900   37.2330  -21.7440 C.3       2 GLC5        0.0000 
     38 CA         -2.3560   38.2330  -23.5940 C.3       4 GLP5        0.0000 
     39 CA         -1.5770   35.9250  -16.4620 C.3       2 GLC5        0.0000 
     40 CA         -1.7670   35.6580  -18.0410 C.3       6 GLL5        0.0000 
     41 CA         -1.3870   36.1920  -14.8830 C.3       4 GLP5        0.0000 
     42 CA          4.4538   28.5712  -19.6840 C.3       2 GLC5        0.0000 
     43 CA          2.7910   28.8170  -20.7470 C.3       6 GLL5        0.0000 
     44 CA          6.3040   28.8970  -19.0960 C.3       4 GLP5        0.0000 
     45 CA         -0.7950   27.3597  -23.8038 C.3       2 GLC5        0.0000 
     46 CA         -2.4140   26.4820  -23.0770 C.3       4 GLP5        0.0000 
     47 CA         -2.3405   31.3413  -21.9105 C.3       2 GLC5        0.0000 
     48 CA         -0.4280   32.1330  -21.0360 C.3       6 GLL5        0.0000 
     49 CA         -3.7050   30.5390  -23.2170 C.3       4 GLP5        0.0000 
     50 CA         -0.8782   36.7762  -17.4017 C.3       2 GLC5        0.0000 
     51 CA         -1.6410   35.8420  -19.3710 C.3       6 GLL5        0.0000 
     52 CA         -0.5940   37.2470  -15.3270 C.3       4 GLP5        0.0000 
     53 CA         -3.0665   35.8450  -17.9175 C.3       2 GLC5        0.0000 
     54 CA         -4.4290   35.9400  -17.1290 C.3       4 GLP5        0.0000 
     55 CA         -1.5081   37.7363  -18.7816 C.3       2 GLC5        0.0000 
     56 CA         -1.1360   39.5090  -18.7000 C.3       4 GLP5        0.0000 
@<TRIPOS>BOND
@<TRIPOS>SUBSTRUCTURE
     1 ALC1       23 GROUP        1 X    ALC  0     ROOT ALC X 1
     2 GLC5        1 GROUP        1 X    GLC  0     **** GLC X 6
     3 ALP1       25 GROUP        1 Y    ALP  0     ROOT ALP Y 8
     4 GLP5        3 GROUP        1 Y    GLP  0     **** GLP Y 13
     5 ALL1       24 GROUP        1 Z    ALL  0     ROOT ALL Z 15
     6 GLL5        2 GROUP        1 Z    GLL  0     **** GLL Z 20
@<TRIPOS>SET

