#    Name: 4enh_FVX_1_ligand
#    Modification time : Mon Mar 24 18:18:46 2014

@<TRIPOS>MOLECULE
4enh_FVX_1_ligand
   44    44     1     0     0
SMALL
NO_CHARGES


@<TRIPOS>ATOM
      1 C1          3.1570   27.5380  -17.5890 C.3       1 FVX602      0.0000 
      2 O2          2.2390   28.1810  -18.4710 O.3       1 FVX602      0.0000 
      3 C3          2.4160   27.6740  -19.7970 C.3       1 FVX602      0.0000 
      4 C4          2.7910   28.8170  -20.7470 C.3       1 FVX602      0.0000 
      5 C5          2.0130   30.0880  -20.4040 C.3       1 FVX602      0.0000 
      6 C6          0.5220   29.8280  -20.6140 C.3       1 FVX602      0.0000 
      7 C7          0.0130   30.8380  -21.6060 C.2       1 FVX602      0.0000 
      8 N8         -0.0440   30.6480  -22.8640 N.2       1 FVX602      0.0000 
      9 O9          0.7650   29.7740  -23.5720 O.3       1 FVX602      0.0000 
     10 C10         0.2500   28.5640  -24.1570 C.3       1 FVX602      0.0000 
     11 C11         1.3980   27.9110  -24.9040 C.3       1 FVX602      0.0000 
     12 N12         0.8670   26.7950  -25.7260 N.4       1 FVX602      0.0000 
     13 C13        -0.4280   32.1330  -21.0360 C.ar      1 FVX602      0.0000 
     14 C14         0.2850   33.2840  -21.3600 C.ar      1 FVX602      0.0000 
     15 C15        -0.1200   34.4950  -20.8180 C.ar      1 FVX602      0.0000 
     16 C16        -1.2180   34.5230  -19.9600 C.ar      1 FVX602      0.0000 
     17 C17        -1.9220   33.3670  -19.6310 C.ar      1 FVX602      0.0000 
     18 C18        -1.5240   32.1540  -20.1720 C.ar      1 FVX602      0.0000 
     19 C19        -1.6410   35.8420  -19.3710 C.3       1 FVX602      0.0000 
     20 F20        -0.6840   36.7690  -19.5820 F         1 FVX602      0.0000 
     21 F21        -2.8240   36.2330  -19.8940 F         1 FVX602      0.0000 
     22 F22        -1.7670   35.6580  -18.0410 F         1 FVX602      0.0000 
     23 H           1.5002   27.2099  -20.1805 H         1 FVX602      0.0000 
     24 H           3.2167   26.9270  -19.8432 H         1 FVX602      0.0000 
     25 H           2.5638   28.5209  -21.7692 H         1 FVX602      0.0000 
     26 H           3.8579   29.0148  -20.6641 H         1 FVX602      0.0000 
     27 H           2.3332   30.8910  -21.0523 H         1 FVX602      0.0000 
     28 H           2.1907   30.3501  -19.3709 H         1 FVX602      0.0000 
     29 H           0.0069   29.9404  -19.6726 H         1 FVX602      0.0000 
     30 H           0.3876   28.8292  -20.9993 H         1 FVX602      0.0000 
     31 H          -0.5467   28.7690  -24.8634 H         1 FVX602      0.0000 
     32 H          -0.1041   27.8731  -23.4000 H         1 FVX602      0.0000 
     33 H           2.1223   27.5383  -24.1839 H         1 FVX602      0.0000 
     34 H           1.8752   28.6536  -25.5386 H         1 FVX602      0.0000 
     35 H           1.0900   33.2354  -21.9846 H         1 FVX602      0.0000 
     36 H           0.3792   35.3588  -21.0435 H         1 FVX602      0.0000 
     37 H          -2.7237   33.4155  -18.9967 H         1 FVX602      0.0000 
     38 H          -2.0191   31.2926  -19.9459 H         1 FVX602      0.0000 
     39 H           4.1063   27.6994  -17.8589 H         1 FVX602      0.0000 
     40 H           3.0599   27.8650  -16.6490 H         1 FVX602      0.0000 
     41 H           3.0220   26.5473  -17.5701 H         1 FVX602      0.0000 
     42 H           0.6039   27.1003  -26.6411 H         1 FVX602      0.0000 
     43 H           1.5416   26.0661  -25.8428 H         1 FVX602      0.0000 
     44 H           0.0569   26.3808  -25.3109 H         1 FVX602      0.0000 
@<TRIPOS>BOND
     1    2    1 1    
     2   39    1 1    
     3   40    1 1    
     4   41    1 1    
     5    3    2 1    
     6    4    3 1    
     7   23    3 1    
     8   24    3 1    
     9    5    4 1    
    10   25    4 1    
    11   26    4 1    
    12    6    5 1    
    13   27    5 1    
    14   28    5 1    
    15    7    6 1    
    16   29    6 1    
    17   30    6 1    
    18    8    7 2    
    19   13    7 1    
    20    9    8 1    
    21   10    9 1    
    22   11   10 1    
    23   31   10 1    
    24   32   10 1    
    25   12   11 1    
    26   33   11 1    
    27   34   11 1    
    28   42   12 1    
    29   43   12 1    
    30   44   12 1    
    31   14   13 ar   
    32   18   13 ar   
    33   15   14 ar   
    34   35   14 1    
    35   16   15 ar   
    36   36   15 1    
    37   17   16 ar   
    38   19   16 1    
    39   18   17 ar   
    40   37   17 1    
    41   38   18 1    
    42   20   19 1    
    43   21   19 1    
    44   22   19 1    
@<TRIPOS>SUBSTRUCTURE
     1 FVX602      1 GROUP   
@<TRIPOS>SET

