#    Name: 3i68_J4Z_1_INTS_M
#    Modification time : Tue Mar 25 15:56:32 2014

@<TRIPOS>MOLECULE
3i68_J4Z_1_INTS_M
   68     0     9     0     0
SMALL
NO_CHARGES


@<TRIPOS>ATOM
      1 CA        -25.4295  -17.6395   14.2805 C.3       3 GLC5        0.0000 
      2 CA        -23.7770  -18.8300   14.3950 C.3       9 GLL5        0.0000 
      3 CA        -27.0820  -16.4490   14.1660 C.3       6 GLP5        0.0000 
      4 O         -21.2280  -16.4340   14.3235 O.2       1 ALC1        0.0000 
      5 O         -22.3360  -16.9970   15.0920 O.2       7 ALL1        0.0000 
      6 O         -20.1200  -15.8710   13.5550 O.2       4 ALP1        0.0000 
      7 CA        -18.4095  -20.0650   12.2515 C.3       3 GLC5        0.0000 
      8 CA        -20.3130  -20.7280   12.9310 C.3       9 GLL5        0.0000 
      9 CA        -16.5060  -19.4020   11.5720 C.3       6 GLP5        0.0000 
     10 N         -24.6765  -14.5000   19.5030 N.am      2 SEC2        0.0000 
     11 N         -24.3730  -15.2460   18.2700 N.am      8 SEL2        0.0000 
     12 N         -24.9800  -13.7540   20.7360 N.am      5 SEP2        0.0000 
     13 CA        -24.3265  -21.5740   11.1525 C.3       3 GLC5        0.0000 
     14 CA        -22.9010  -22.0190   12.6780 C.3       9 GLL5        0.0000 
     15 CA        -25.7520  -21.1290    9.6270 C.3       6 GLP5        0.0000 
     16 CA        -23.3550  -23.4830   13.9490 C.3       3 GLC5        0.0000 
     17 CA        -23.8090  -24.9470   15.2200 C.3       6 GLP5        0.0000 
     18 CA        -24.9805  -19.4280   12.1075 C.3       3 GLC5        0.0000 
     19 CA        -23.9240  -20.0930   13.7980 C.3       9 GLL5        0.0000 
     20 CA        -26.0370  -18.7630   10.4170 C.3       6 GLP5        0.0000 
     21 CA        -21.1090  -16.6210   16.3565 C.3       3 GLC5        0.0000 
     22 CA        -23.0250  -16.4550   16.1440 C.3       9 GLL5        0.0000 
     23 CA        -19.1930  -16.7870   16.5690 C.3       6 GLP5        0.0000 
     24 CA        -24.1710  -15.5700   14.9275 C.3       3 GLC5        0.0000 
     25 CA        -25.3170  -14.6850   13.7110 C.3       6 GLP5        0.0000 
     26 CA        -24.8875  -19.1220   16.9020 C.3       3 GLC5        0.0000 
     27 CA        -23.7520  -17.2280   17.0680 C.3       9 GLL5        0.0000 
     28 CA        -26.0230  -21.0160   16.7360 C.3       6 GLP5        0.0000 
     29 CA        -25.4170  -16.8385   15.6170 C.3       3 GLC5        0.0000 
     30 CA        -26.0520  -19.1435   18.5540 C.3       3 GLC5        0.0000 
     31 CA        -25.2080  -17.4370   19.1230 C.3       9 GLL5        0.0000 
     32 CA        -26.8960  -20.8500   17.9850 C.3       6 GLP5        0.0000 
     33 CA        -24.6205  -18.3935   20.9420 C.3       3 GLC5        0.0000 
     34 CA        -24.0330  -19.3500   22.7610 C.3       6 GLP5        0.0000 
     35 CA        -26.2190  -16.8365   20.7715 C.3       3 GLC5        0.0000 
     36 CA        -27.2300  -16.2360   22.4200 C.3       6 GLP5        0.0000 
     37 CA        -23.3890  -17.0960   19.6715 C.3       3 GLC5        0.0000 
     38 CA        -21.5700  -16.7550   20.2200 C.3       6 GLP5        0.0000 
     39 CA        -17.6230  -22.0020   12.9275 C.3       3 GLC5        0.0000 
     40 CA        -19.2870  -22.6270   11.8150 C.3       9 GLL5        0.0000 
     41 CA        -15.9590  -21.3770   14.0400 C.3       6 GLP5        0.0000 
     42 CA        -17.9110  -25.0280   12.0250 C.3       3 GLC5        0.0000 
     43 CA        -19.4050  -23.8790   11.2010 C.3       9 GLL5        0.0000 
     44 CA        -16.4170  -26.1770   12.8490 C.3       6 GLP5        0.0000 
     45 CA        -24.9367  -20.2387   15.4162 C.3       3 GLC5        0.0000 
     46 CA        -20.5710  -17.6645   15.4205 C.3       3 GLC5        0.0000 
     47 CA        -22.5180  -18.2210   14.5170 C.3       9 GLL5        0.0000 
     48 CA        -20.2263  -21.4775   14.4540 C.3       3 GLC5        0.0000 
     49 CA        -20.0880  -21.6030   16.2850 C.3       6 GLP5        0.0000 
     50 CA        -19.3848  -22.3317   10.0875 C.3       3 GLC5        0.0000 
     51 CA        -20.4160  -21.9760   12.3150 C.3       9 GLL5        0.0000 
     52 CA        -18.9180  -22.3620    8.1100 C.3       6 GLP5        0.0000 
     53 CA        -23.1375  -24.4215   12.7830 C.3       3 GLC5        0.0000 
     54 CA        -21.8060  -23.8890   11.5620 C.3       9 GLL5        0.0000 
     55 CA        -24.4990  -25.5780   13.6910 C.3       6 GLP5        0.0000 
     56 CA        -21.0998  -20.8621   14.8951 C.3       3 GLC5        0.0000 
     57 CA        -22.8010  -20.7600   13.2920 C.3       9 GLL5        0.0000 
     58 CA        -22.4793  -16.7982   18.4130 C.3       3 GLC5        0.0000 
     59 CA        -17.5880  -23.3925   11.1155 C.3       3 GLC5        0.0000 
     60 CA        -15.8300  -23.5320   10.7230 C.3       6 GLP5        0.0000 
     61 CA        -18.7700  -25.7073   10.3105 C.3       3 GLC5        0.0000 
     62 CA        -17.5110  -27.2260    9.4850 C.3       6 GLP5        0.0000 
     63 CA        -19.4735  -23.2752    9.6230 C.3       3 GLC5        0.0000 
     64 CA        -22.7607  -24.2587   10.3340 C.3       3 GLC5        0.0000 
     65 CA        -20.6530  -24.4980   11.0710 C.3       9 GLL5        0.0000 
     66 CA        -24.3070  -24.6360    9.1950 C.3       6 GLP5        0.0000 
     67 CA        -20.0756  -24.8826   12.6597 C.3       3 GLC5        0.0000 
     68 CA        -19.8710  -26.1980   13.8290 C.3       6 GLP5        0.0000 
@<TRIPOS>BOND
@<TRIPOS>SUBSTRUCTURE
     1 ALC1        4 GROUP        1 X    ALC  0     ROOT ALC X 1
     2 SEC2       10 GROUP        1 X    SEC  0     **** SEC X 2
     3 GLC5        1 GROUP        1 X    GLC  0     **** GLC X 6
     4 ALP1        6 GROUP        1 Y    ALP  0     ROOT ALP Y 8
     5 SEP2       12 GROUP        1 Y    SEP  0     **** SEP Y 9
     6 GLP5        3 GROUP        1 Y    GLP  0     **** GLP Y 13
     7 ALL1        5 GROUP        1 Z    ALL  0     ROOT ALL Z 15
     8 SEL2       11 GROUP        1 Z    SEL  0     **** SEL Z 16
     9 GLL5        2 GROUP        1 Z    GLL  0     **** GLL Z 20
@<TRIPOS>SET

