#    Name: 3i68_J4Z_1_ligand
#    Modification time : Tue Mar 25 15:56:32 2014

@<TRIPOS>MOLECULE
3i68_J4Z_1_ligand
   40    44     1     0     0
SMALL
NO_CHARGES


@<TRIPOS>ATOM
      1 C1        -23.7770  -18.8300   14.3950 C.ar      1 J4Z1001     0.0000 
      2 N1        -22.3360  -16.9970   15.0920 N.pl3     1 J4Z1001     0.0000 
      3 C2        -22.5180  -18.2210   14.5170 C.ar      1 J4Z1001     0.0000 
      4 N2        -23.0110  -15.1240   16.3320 N.pl3     1 J4Z1001     0.0000 
      5 C3        -21.3800  -18.8630   14.0270 C.ar      1 J4Z1001     0.0000 
      6 N3        -22.3550  -14.1910   15.5440 N.2       1 J4Z1001     0.0000 
      7 C4        -21.4640  -20.1020   13.4100 C.ar      1 J4Z1001     0.0000 
      8 N4        -23.4520  -13.2300   17.2320 N.2       1 J4Z1001     0.0000 
      9 C5        -20.3130  -20.7280   12.9310 C.ar      1 J4Z1001     0.0000 
     10 N5        -24.3730  -15.2460   18.2700 N.2       1 J4Z1001     0.0000 
     11 C6        -20.4160  -21.9760   12.3150 C.ar      1 J4Z1001     0.0000 
     12 C7        -21.7460  -22.6410   12.1880 C.ar      1 J4Z1001     0.0000 
     13 C8        -22.9010  -22.0190   12.6780 C.ar      1 J4Z1001     0.0000 
     14 C9        -22.8010  -20.7600   13.2920 C.ar      1 J4Z1001     0.0000 
     15 C10       -23.9240  -20.0930   13.7980 C.ar      1 J4Z1001     0.0000 
     16 C11       -23.0250  -16.4550   16.1440 C.2       1 J4Z1001     0.0000 
     17 C12       -23.7520  -17.2280   17.0680 C.2       1 J4Z1001     0.0000 
     18 C13       -24.4310  -16.6010   18.1310 C.2       1 J4Z1001     0.0000 
     19 C14       -25.2080  -17.4370   19.1230 C.3       1 J4Z1001     0.0000 
     20 C15       -23.6500  -14.5600   17.3460 C.2       1 J4Z1001     0.0000 
     21 C16       -22.6500  -13.0070   16.1430 C.2       1 J4Z1001     0.0000 
     22 C22       -19.2870  -22.6270   11.8150 C.ar      1 J4Z1001     0.0000 
     23 C23       -19.4050  -23.8790   11.2010 C.ar      1 J4Z1001     0.0000 
     24 C24       -20.6530  -24.4980   11.0710 C.ar      1 J4Z1001     0.0000 
     25 C25       -21.8060  -23.8890   11.5620 C.ar      1 J4Z1001     0.0000 
     26 H         -24.6136  -18.3390   14.7518 H         1 J4Z1001     0.0000 
     27 H         -21.5490  -16.3754   14.6644 H         1 J4Z1001     0.0000 
     28 H         -20.4570  -18.4023   14.1279 H         1 J4Z1001     0.0000 
     29 H         -19.4007  -20.2761   13.0304 H         1 J4Z1001     0.0000 
     30 H         -23.8097  -22.4759   12.5904 H         1 J4Z1001     0.0000 
     31 H         -24.8501  -20.5233   13.7337 H         1 J4Z1001     0.0000 
     32 H         -23.7879  -18.2451   16.9684 H         1 J4Z1001     0.0000 
     33 H         -22.3441  -12.1372   15.8507 H         1 J4Z1001     0.0000 
     34 H         -18.3617  -22.1850   11.8976 H         1 J4Z1001     0.0000 
     35 H         -18.5623  -24.3507   10.8402 H         1 J4Z1001     0.0000 
     36 H         -20.7177  -25.4168   10.6054 H         1 J4Z1001     0.0000 
     37 H         -22.7173  -24.3644   11.4630 H         1 J4Z1001     0.0000 
     38 H         -25.1634  -18.4114   18.9028 H         1 J4Z1001     0.0000 
     39 H         -24.8575  -17.3304   20.0535 H         1 J4Z1001     0.0000 
     40 H         -26.1755  -17.1851   19.1436 H         1 J4Z1001     0.0000 
@<TRIPOS>BOND
     1    3    1 ar   
     2   15    1 ar   
     3   26    1 1    
     4    3    2 1    
     5   16    2 1    
     6   27    2 1    
     7    5    3 ar   
     8    6    4 1    
     9   16    4 1    
    10   20    4 1    
    11    7    5 ar   
    12   28    5 1    
    13   21    6 2    
    14    9    7 ar   
    15   14    7 ar   
    16   20    8 2    
    17   21    8 1    
    18   11    9 ar   
    19   29    9 1    
    20   18   10 2    
    21   20   10 1    
    22   12   11 ar   
    23   22   11 ar   
    24   13   12 ar   
    25   25   12 ar   
    26   14   13 ar   
    27   30   13 1    
    28   15   14 ar   
    29   31   15 1    
    30   17   16 2    
    31   18   17 1    
    32   32   17 1    
    33   19   18 1    
    34   38   19 1    
    35   39   19 1    
    36   40   19 1    
    37   33   21 1    
    38   23   22 ar   
    39   34   22 1    
    40   24   23 ar   
    41   35   23 1    
    42   25   24 ar   
    43   36   24 1    
    44   37   25 1    
@<TRIPOS>SUBSTRUCTURE
     1 J4Z1001     1 GROUP   
@<TRIPOS>SET

