#    Name: 3l13_JZW_1_INTS_M
#    Modification time : Mon Mar 24 20:46:10 2014

@<TRIPOS>MOLECULE
3l13_JZW_1_INTS_M
   92     0     9     0     0
SMALL
NO_CHARGES


@<TRIPOS>ATOM
      1 N          18.3510   58.8310   24.7660 N.am      2 SEC2        0.0000 
      2 N          19.4150   59.7320   24.4770 N.am      8 SEL2        0.0000 
      3 N          17.2870   57.9300   25.0550 N.am      5 SEP2        0.0000 
      4 CA         20.4125   65.1845   23.2250 C.3       3 GLC5        0.0000 
      5 CA         21.5040   65.2300   21.3210 C.3       9 GLL5        0.0000 
      6 CA         19.3210   65.1390   25.1290 C.3       6 GLP5        0.0000 
      7 N          19.2110   67.3575   14.3050 N.am      2 SEC2        0.0000 
      8 N          18.4570   66.8960   15.5480 N.am      8 SEL2        0.0000 
      9 N          19.9650   67.8190   13.0620 N.am      5 SEP2        0.0000 
     10 N          15.5765   66.5085   16.5155 N.am      2 SEC2        0.0000 
     11 N          16.5180   67.2330   16.8000 N.am      8 SEL2        0.0000 
     12 N          14.6350   65.7840   16.2310 N.am      5 SEP2        0.0000 
     13 N          26.8340   58.7175   24.7985 N.am      2 SEC2        0.0000 
     14 N          27.7650   58.4150   23.9810 N.am      8 SEL2        0.0000 
     15 N          25.9030   59.0200   25.6160 N.am      5 SEP2        0.0000 
     16 N          27.9155   59.9775   24.3515 N.am      2 SEC2        0.0000 
     17 N          28.0660   61.5400   24.7220 N.am      5 SEP2        0.0000 
     18 O          29.0930   58.4880   23.5750 O.2       1 ALC1        0.0000 
     19 O          27.7650   58.4150   23.9810 O.2       7 ALL1        0.0000 
     20 O          30.4210   58.5610   23.1690 O.2       4 ALP1        0.0000 
     21 CA         24.5255   63.0780   22.7495 C.3       3 GLC5        0.0000 
     22 CA         24.4170   61.7480   21.3560 C.3       9 GLL5        0.0000 
     23 CA         24.6340   64.4080   24.1430 C.3       6 GLP5        0.0000 
     24 CA         18.2900   61.7405   21.0550 C.3       3 GLC5        0.0000 
     25 CA         19.7590   60.9610   22.4810 C.3       9 GLL5        0.0000 
     26 CA         16.8210   62.5200   19.6290 C.3       6 GLP5        0.0000 
     27 CA         20.1595   60.4735   20.8545 C.3       3 GLC5        0.0000 
     28 CA         20.5600   59.9860   19.2280 C.3       6 GLP5        0.0000 
     29 CA         19.9345   62.5805   24.7195 C.3       3 GLC5        0.0000 
     30 CA         19.0720   60.9510   23.8370 C.3       9 GLL5        0.0000 
     31 CA         20.7970   64.2100   25.6020 C.3       6 GLP5        0.0000 
     32 CA         21.9980   58.5605   26.0990 C.3       3 GLC5        0.0000 
     33 CA         20.7970   59.6910   24.7900 C.3       9 GLL5        0.0000 
     34 CA         23.1990   57.4300   27.4080 C.3       6 GLP5        0.0000 
     35 CA         19.1830   58.5155   23.7530 C.3       3 GLC5        0.0000 
     36 CA         17.5690   57.3400   22.7160 C.3       6 GLP5        0.0000 
     37 CA         19.7185   58.7055   26.2945 C.3       3 GLC5        0.0000 
     38 CA         18.6400   57.7200   27.7990 C.3       6 GLP5        0.0000 
     39 CA         20.9785   60.3975   26.6105 C.3       3 GLC5        0.0000 
     40 CA         21.1600   61.1040   28.4310 C.3       6 GLP5        0.0000 
     41 CA         21.0875   59.8645   21.3720 C.3       3 GLC5        0.0000 
     42 CA         21.6150   59.7430   23.5160 C.3       9 GLL5        0.0000 
     43 CA         23.2755   58.9255   24.7335 C.3       3 GLC5        0.0000 
     44 CA         24.9360   58.1080   25.9510 C.3       6 GLP5        0.0000 
     45 CA         22.5290   58.2860   22.5870 C.3       3 GLC5        0.0000 
     46 CA         23.4430   56.8290   21.6580 C.3       6 GLP5        0.0000 
     47 CA         17.9130   64.2810   19.6405 C.3       3 GLC5        0.0000 
     48 CA         19.0050   66.0420   19.6520 C.3       9 GLL5        0.0000 
     49 CA         18.6785   69.7750   14.4085 C.3       3 GLC5        0.0000 
     50 CA         17.7580   69.3020   15.9980 C.3       9 GLL5        0.0000 
     51 CA         19.5990   70.2480   12.8190 C.3       6 GLP5        0.0000 
     52 CA         28.8860   58.2895   19.9110 C.3       3 GLC5        0.0000 
     53 CA         28.0990   59.7170   20.9090 C.3       9 GLL5        0.0000 
     54 CA         29.6730   56.8620   18.9130 C.3       6 GLP5        0.0000 
     55 CA         25.6270   61.1705   23.7685 C.3       3 GLC5        0.0000 
     56 CA         25.9540   59.9370   21.9460 C.3       9 GLL5        0.0000 
     57 CA         25.3000   62.4040   25.5910 C.3       6 GLP5        0.0000 
     58 CA         29.0375   57.0945   23.0315 C.3       3 GLC5        0.0000 
     59 CA         27.4100   58.0430   22.6630 C.3       9 GLL5        0.0000 
     60 CA         30.6650   56.1460   23.4000 C.3       6 GLP5        0.0000 
     61 CA         26.0705   57.5120   23.9165 C.3       3 GLC5        0.0000 
     62 CA         24.7310   56.9810   25.1700 C.3       6 GLP5        0.0000 
     63 CA         27.6405   56.0010   22.2885 C.3       3 GLC5        0.0000 
     64 CA         27.8710   53.9590   21.9140 C.3       6 GLP5        0.0000 
     65 CA         28.2750   59.9250   23.2045 C.3       3 GLC5        0.0000 
     66 CA         29.1400   61.8070   23.7460 C.3       6 GLP5        0.0000 
     67 CA         21.3415   64.2498   19.3032 C.3       3 GLC5        0.0000 
     68 CA         22.7580   64.9390   20.9940 C.3       9 GLL5        0.0000 
     69 CA         20.5520   63.4150   17.4490 C.3       6 GLP5        0.0000 
     70 CA         23.3825   64.7463   22.6502 C.3       3 GLC5        0.0000 
     71 CA         21.3253   61.1585   20.6163 C.3       3 GLC5        0.0000 
     72 CA         22.0360   62.9850   21.8300 C.3       9 GLL5        0.0000 
     73 CA         21.2744   63.3910   23.8246 C.3       3 GLC5        0.0000 
     74 CA         22.1450   61.6770   22.1790 C.3       9 GLL5        0.0000 
     75 CA         23.4874   63.4551   23.0040 C.3       3 GLC5        0.0000 
     76 CA         25.6878   59.4772   19.8865 C.3       3 GLC5        0.0000 
     77 CA         25.6940   61.0510   21.1600 C.3       9 GLL5        0.0000 
     78 CA         25.2080   57.6720   19.0600 C.3       6 GLP5        0.0000 
     79 CA         18.4922   59.1480   22.9375 C.3       3 GLC5        0.0000 
     80 CA         22.6020   60.7545   25.1275 C.3       3 GLC5        0.0000 
     81 CA         23.9980   61.7920   26.1020 C.3       6 GLP5        0.0000 
     82 CA         19.7875   64.7682   18.1740 C.3       3 GLC5        0.0000 
     83 CA         27.1785   61.4860   18.2298 C.3       3 GLC5        0.0000 
     84 CA         26.6410   61.5140   20.2660 C.3       9 GLL5        0.0000 
     85 CA         27.1170   61.7970   16.2590 C.3       6 GLP5        0.0000 
     86 CA         26.5885   58.9742   19.7910 C.3       3 GLC5        0.0000 
     87 CA         27.8390   60.8360   20.1350 C.3       9 GLL5        0.0000 
     88 CA         27.9166   62.0686   21.6790 C.3       3 GLC5        0.0000 
     89 CA         28.8300   63.0780   22.9340 C.3       6 GLP5        0.0000 
     90 CA         27.9651   60.7608   22.7005 C.3       3 GLC5        0.0000 
     91 CA         26.0950   58.2473   20.6664 C.3       3 GLC5        0.0000 
     92 CA         27.1540   59.2670   21.8190 C.3       9 GLL5        0.0000 
@<TRIPOS>BOND
@<TRIPOS>SUBSTRUCTURE
     1 ALC1       18 GROUP        1 X    ALC  0     ROOT ALC X 1
     2 SEC2        1 GROUP        1 X    SEC  0     **** SEC X 2
     3 GLC5        4 GROUP        1 X    GLC  0     **** GLC X 6
     4 ALP1       20 GROUP        1 Y    ALP  0     ROOT ALP Y 8
     5 SEP2        3 GROUP        1 Y    SEP  0     **** SEP Y 9
     6 GLP5        6 GROUP        1 Y    GLP  0     **** GLP Y 13
     7 ALL1       19 GROUP        1 Z    ALL  0     ROOT ALL Z 15
     8 SEL2        2 GROUP        1 Z    SEL  0     **** SEL Z 16
     9 GLL5        5 GROUP        1 Z    GLL  0     **** GLL Z 20
@<TRIPOS>SET

