#    Name: 3l13_JZW_1_ligand
#    Modification time : Mon Mar 24 20:46:10 2014

@<TRIPOS>MOLECULE
3l13_JZW_1_ligand
   64    68     1     0     0
SMALL
NO_CHARGES


@<TRIPOS>ATOM
      1 C1         22.7580   64.9390   20.9940 C.2       1 JZW1        0.0000 
      2 N1         24.2270   63.1360   21.0200 N.ar      1 JZW1        0.0000 
      3 O1         19.4150   59.7320   24.4770 O.3       1 JZW1        0.0000 
      4 S1         20.6810   63.9490   22.0010 S.3       1 JZW1        0.0000 
      5 C2         21.5040   65.2300   21.3210 C.2       1 JZW1        0.0000 
      6 N2         23.3030   61.0680   21.9590 N.ar      1 JZW1        0.0000 
      7 O2         18.4570   66.8960   15.5480 O.2       1 JZW1        0.0000 
      8 S2         17.8510   67.7280   16.5590 S.o2      1 JZW1        0.0000 
      9 C3         23.0370   63.6700   21.2720 C.ar      1 JZW1        0.0000 
     10 N3         21.1960   60.9260   22.7580 N.3       1 JZW1        0.0000 
     11 O3         16.5180   67.2330   16.8000 O.2       1 JZW1        0.0000 
     12 C4         22.0360   62.9850   21.8300 C.ar      1 JZW1        0.0000 
     13 N4         20.0780   66.9290   20.0390 N.4       1 JZW1        0.0000 
     14 O4         27.7650   58.4150   23.9810 O.3       1 JZW1        0.0000 
     15 C5         24.4170   61.7480   21.3560 C.ar      1 JZW1        0.0000 
     16 N5         18.6650   67.5690   17.8490 N.pl3     1 JZW1        0.0000 
     17 C6         22.1450   61.6770   22.1790 C.ar      1 JZW1        0.0000 
     18 C7         25.6940   61.0510   21.1600 C.ar      1 JZW1        0.0000 
     19 C8         19.7590   60.9610   22.4810 C.3       1 JZW1        0.0000 
     20 C9         19.0720   60.9510   23.8370 C.3       1 JZW1        0.0000 
     21 C10        20.7970   59.6910   24.7900 C.3       1 JZW1        0.0000 
     22 C11        21.6150   59.7430   23.5160 C.3       1 JZW1        0.0000 
     23 C12        20.9300   66.6190   21.1690 C.3       1 JZW1        0.0000 
     24 C13        19.7850   68.3450   19.8590 C.3       1 JZW1        0.0000 
     25 C14        19.5430   68.6160   18.3730 C.3       1 JZW1        0.0000 
     26 C15        19.0410   66.2010   18.1460 C.3       1 JZW1        0.0000 
     27 C16        19.0050   66.0420   19.6520 C.3       1 JZW1        0.0000 
     28 C17        17.7580   69.3020   15.9980 C.3       1 JZW1        0.0000 
     29 C18        26.6410   61.5140   20.2660 C.ar      1 JZW1        0.0000 
     30 C19        27.8390   60.8360   20.1350 C.ar      1 JZW1        0.0000 
     31 C20        28.0990   59.7170   20.9090 C.ar      1 JZW1        0.0000 
     32 C21        27.1540   59.2670   21.8190 C.ar      1 JZW1        0.0000 
     33 C22        25.9540   59.9370   21.9460 C.ar      1 JZW1        0.0000 
     34 C23        27.4100   58.0430   22.6630 C.3       1 JZW1        0.0000 
     35 H          23.3981   65.5803   20.5970 H         1 JZW1        0.0000 
     36 H          20.8746   66.7633   19.0900 H         1 JZW1        0.0000 
     37 H          19.4486   60.0911   21.9270 H         1 JZW1        0.0000 
     38 H          19.4856   61.8624   21.9588 H         1 JZW1        0.0000 
     39 H          19.4173   61.8190   24.3957 H         1 JZW1        0.0000 
     40 H          17.9998   61.0401   23.6718 H         1 JZW1        0.0000 
     41 H          21.0670   58.7708   25.3272 H         1 JZW1        0.0000 
     42 H          21.0985   60.5401   25.4196 H         1 JZW1        0.0000 
     43 H          22.6668   59.8041   23.7767 H         1 JZW1        0.0000 
     44 H          21.4359   58.8364   22.9468 H         1 JZW1        0.0000 
     45 H          21.8046   67.3498   21.1990 H         1 JZW1        0.0000 
     46 H          20.3824   66.8648   22.1383 H         1 JZW1        0.0000 
     47 H          20.6181   68.9643   20.1875 H         1 JZW1        0.0000 
     48 H          18.8911   68.6350   20.4087 H         1 JZW1        0.0000 
     49 H          19.0855   69.5959   18.2732 H         1 JZW1        0.0000 
     50 H          20.5020   68.6132   17.8633 H         1 JZW1        0.0000 
     51 H          20.0450   65.9837   17.7981 H         1 JZW1        0.0000 
     52 H          18.3439   65.4962   17.7060 H         1 JZW1        0.0000 
     53 H          18.0659   66.3756   20.0126 H         1 JZW1        0.0000 
     54 H          19.2168   65.0332   19.8984 H         1 JZW1        0.0000 
     55 H          26.4569   62.3535   19.7043 H         1 JZW1        0.0000 
     56 H          28.5450   61.1650   19.4562 H         1 JZW1        0.0000 
     57 H          28.9947   59.2181   20.8092 H         1 JZW1        0.0000 
     58 H          25.2485   59.6127   22.6237 H         1 JZW1        0.0000 
     59 H          26.4985   57.4224   22.6460 H         1 JZW1        0.0000 
     60 H          28.2068   57.4559   22.1764 H         1 JZW1        0.0000 
     61 H          18.6615   69.6751   15.7870 H         1 JZW1        0.0000 
     62 H          17.2118   69.3670   15.1629 H         1 JZW1        0.0000 
     63 H          17.3388   69.9118   16.6706 H         1 JZW1        0.0000 
     64 H          28.6932   58.0650   24.1075 H         1 JZW1        0.0000 
@<TRIPOS>BOND
     1    5    1 2    
     2    9    1 1    
     3   35    1 1    
     4    9    2 ar   
     5   15    2 ar   
     6   20    3 1    
     7   21    3 1    
     8    5    4 1    
     9   12    4 1    
    10   23    5 1    
    11   15    6 ar   
    12   17    6 ar   
    13    8    7 2    
    14   11    8 2    
    15   16    8 1    
    16   28    8 1    
    17   12    9 ar   
    18   17   10 1    
    19   19   10 1    
    20   22   10 1    
    21   17   12 ar   
    22   23   13 1    
    23   24   13 1    
    24   27   13 1    
    25   36   13 1    
    26   34   14 1    
    27   64   14 1    
    28   18   15 1    
    29   25   16 1    
    30   26   16 1    
    31   29   18 ar   
    32   33   18 ar   
    33   20   19 1    
    34   37   19 1    
    35   38   19 1    
    36   39   20 1    
    37   40   20 1    
    38   22   21 1    
    39   41   21 1    
    40   42   21 1    
    41   43   22 1    
    42   44   22 1    
    43   45   23 1    
    44   46   23 1    
    45   25   24 1    
    46   47   24 1    
    47   48   24 1    
    48   49   25 1    
    49   50   25 1    
    50   27   26 1    
    51   51   26 1    
    52   52   26 1    
    53   53   27 1    
    54   54   27 1    
    55   61   28 1    
    56   62   28 1    
    57   63   28 1    
    58   30   29 ar   
    59   55   29 1    
    60   31   30 ar   
    61   56   30 1    
    62   32   31 ar   
    63   57   31 1    
    64   33   32 ar   
    65   34   32 1    
    66   58   33 1    
    67   59   34 1    
    68   60   34 1    
@<TRIPOS>SUBSTRUCTURE
     1 JZW1        1 GROUP   
@<TRIPOS>SET

