#    Name: 1OJL_1_CAVITY_N1_6.mol2
#    Modification time : Mon Mar 10 22:31:19 2014

@<TRIPOS>MOLECULE
1OJL_1_CAVITY_N1_6.mol2
   92     0     5     0     0
SMALL
NO_CHARGES


@<TRIPOS>ATOM
      1 O         -36.3974  -39.2825  -17.8389 O.2       1 ALA2        0.0000 
      2 O         -35.6819  -40.5859  -18.0369 O.2       1 ALA2        0.0000 
      3 OD1       -39.7164  -35.8985  -18.0184 O.3       2 ASP3        0.0000 
      4 NZ        -39.0009  -37.2019  -18.2164 N.2       3 LYS4        0.0000 
      5 O         -38.2854  -38.5053  -18.4145 O.2       1 ALA2        0.0000 
      6 O         -37.5699  -39.8087  -18.6125 O.2       1 ALA2        0.0000 
      7 NZ        -36.8545  -41.1121  -18.8105 N.2       3 LYS4        0.0000 
      8 NZ        -36.1390  -42.4155  -19.0085 N.2       3 LYS4        0.0000 
      9 OD1       -40.8889  -36.4246  -18.7920 O.3       2 ASP3        0.0000 
     10 NZ        -40.1735  -37.7280  -18.9900 N.2       3 LYS4        0.0000 
     11 NZ        -39.4580  -39.0314  -19.1880 N.2       3 LYS4        0.0000 
     12 NZ        -38.7425  -40.3348  -19.3860 N.2       3 LYS4        0.0000 
     13 NZ        -38.0270  -41.6382  -19.5840 N.2       3 LYS4        0.0000 
     14 NZ        -37.3115  -42.9416  -19.7820 N.2       3 LYS4        0.0000 
     15 NZ        -36.5960  -44.2450  -19.9800 N.2       3 LYS4        0.0000 
     16 NZ        -39.9150  -40.8609  -20.1595 N.2       3 LYS4        0.0000 
     17 O         -39.1995  -42.1643  -20.3575 O.2       1 ALA2        0.0000 
     18 NZ        -38.4840  -43.4677  -20.5556 N.2       3 LYS4        0.0000 
     19 DU        -37.7686  -44.7712  -20.7536 H         5 CUB7        0.0000 
     20 CA        -39.6566  -43.9939  -21.3291 C.3       4 GLY6        0.0000 
     21 O         -35.3705  -37.4506  -14.8240 O.2       1 ALA2        0.0000 
     22 DU        -34.6550  -38.7540  -15.0220 H         5 CUB7        0.0000 
     23 O         -37.2586  -36.6734  -15.3996 O.2       1 ALA2        0.0000 
     24 O         -36.5431  -37.9768  -15.5976 O.2       1 ALA2        0.0000 
     25 DU        -35.8276  -39.2802  -15.7956 H         5 CUB7        0.0000 
     26 DU        -35.1121  -40.5836  -15.9936 H         5 CUB7        0.0000 
     27 DU        -34.3966  -41.8870  -16.1916 H         5 CUB7        0.0000 
     28 CA        -39.1466  -35.8961  -15.9751 C.3       4 GLY6        0.0000 
     29 O         -38.4311  -37.1995  -16.1731 O.2       1 ALA2        0.0000 
     30 O         -37.7156  -38.5029  -16.3711 O.2       1 ALA2        0.0000 
     31 CA        -37.0001  -39.8063  -16.5691 C.3       4 GLY6        0.0000 
     32 NZ        -36.2846  -41.1097  -16.7671 N.2       3 LYS4        0.0000 
     33 OD1       -40.3191  -36.4222  -16.7486 O.3       2 ASP3        0.0000 
     34 NZ        -39.6036  -37.7256  -16.9466 N.2       3 LYS4        0.0000 
     35 NZ        -38.8881  -39.0290  -17.1446 N.2       3 LYS4        0.0000 
     36 NZ        -38.1726  -40.3324  -17.3426 N.2       3 LYS4        0.0000 
     37 NZ        -38.3713  -45.2949  -19.4838 N.2       3 LYS4        0.0000 
     38 O         -34.7678  -36.9269  -16.0939 O.2       1 ALA2        0.0000 
     39 O         -34.0524  -38.2303  -16.2919 O.2       1 ALA2        0.0000 
     40 O         -33.3369  -39.5337  -16.4899 O.2       1 ALA2        0.0000 
     41 O         -36.6559  -36.1496  -16.6694 O.2       1 ALA2        0.0000 
     42 O         -35.9404  -37.4530  -16.8674 O.2       1 ALA2        0.0000 
     43 O         -35.2249  -38.7564  -17.0654 O.2       1 ALA2        0.0000 
     44 O         -34.5094  -40.0598  -17.2634 O.2       1 ALA2        0.0000 
     45 DU        -33.7939  -41.3632  -17.4614 H         5 CUB7        0.0000 
     46 O         -38.5439  -35.3723  -17.2449 O.2       1 ALA2        0.0000 
     47 O         -37.8284  -36.6757  -17.4429 O.2       1 ALA2        0.0000 
     48 O         -37.1129  -37.9791  -17.6409 O.2       1 ALA2        0.0000 
     49 CA        -35.2577  -39.2778  -13.7522 C.3       4 GLY6        0.0000 
     50 DU        -34.5423  -40.5812  -13.9502 H         5 CUB7        0.0000 
     51 CA        -37.1458  -38.5005  -14.3278 C.3       4 GLY6        0.0000 
     52 CA        -36.4303  -39.8039  -14.5258 C.3       4 GLY6        0.0000 
     53 CA        -35.7148  -41.1073  -14.7238 C.3       4 GLY6        0.0000 
     54 CA        -36.8873  -41.6335  -15.4973 C.3       4 GLY6        0.0000 
     55 NZ        -36.1718  -42.9369  -15.6953 N.2       3 LYS4        0.0000 
     56 CA        -35.8604  -39.8015  -12.4824 C.3       4 GLY6        0.0000 
     57 CA        -35.1450  -41.1049  -12.6804 C.3       4 GLY6        0.0000 
     58 O         -37.0330  -40.3277  -13.2559 O.2       1 ALA2        0.0000 
     59 CA        -36.3175  -41.6311  -13.4540 C.3       4 GLY6        0.0000 
     60 O         -37.2257  -36.1520  -18.7127 O.2       1 ALA2        0.0000 
     61 CA        -39.1137  -35.3747  -19.2882 C.3       4 GLY6        0.0000 
     62 O         -38.3982  -36.6781  -19.4863 O.2       1 ALA2        0.0000 
     63 O         -37.6827  -37.9815  -19.6843 O.2       1 ALA2        0.0000 
     64 O         -36.2518  -40.5883  -20.0803 O.2       1 ALA2        0.0000 
     65 O         -35.5363  -41.8917  -20.2783 O.2       1 ALA2        0.0000 
     66 O         -34.8208  -43.1951  -20.4763 O.2       1 ALA2        0.0000 
     67 CA        -40.2862  -35.9008  -20.0618 C.3       4 GLY6        0.0000 
     68 NZ        -39.5708  -37.2042  -20.2598 N.2       3 LYS4        0.0000 
     69 NZ        -38.8553  -38.5076  -20.4578 N.2       3 LYS4        0.0000 
     70 O         -38.1398  -39.8110  -20.6558 O.2       1 ALA2        0.0000 
     71 O         -37.4243  -41.1145  -20.8538 O.2       1 ALA2        0.0000 
     72 O         -36.7088  -42.4179  -21.0518 O.2       1 ALA2        0.0000 
     73 O         -35.9933  -43.7213  -21.2499 O.2       1 ALA2        0.0000 
     74 NZ        -40.0278  -39.0338  -21.2313 N.2       3 LYS4        0.0000 
     75 O         -39.3123  -40.3372  -21.4294 O.2       1 ALA2        0.0000 
     76 O         -38.5968  -41.6406  -21.6274 O.2       1 ALA2        0.0000 
     77 DU        -37.8813  -42.9440  -21.8254 H         5 CUB7        0.0000 
     78 O         -37.7955  -36.1544  -20.7561 O.2       1 ALA2        0.0000 
     79 CA        -39.6835  -35.3771  -21.3316 C.3       4 GLY6        0.0000 
     80 NZ        -38.9681  -36.6805  -21.5296 N.2       3 LYS4        0.0000 
     81 O         -38.2526  -37.9839  -21.7276 O.2       1 ALA2        0.0000 
     82 O         -37.5371  -39.2873  -21.9256 O.2       1 ALA2        0.0000 
     83 O         -36.8216  -40.5907  -22.1236 O.2       1 ALA2        0.0000 
     84 O         -36.1061  -41.8941  -22.3217 O.2       1 ALA2        0.0000 
     85 O         -38.7096  -39.8134  -22.6992 O.2       1 ALA2        0.0000 
     86 O         -37.9941  -41.1168  -22.8972 O.2       1 ALA2        0.0000 
     87 DU        -37.2786  -42.4202  -23.0952 H         5 CUB7        0.0000 
     88 O         -37.1928  -35.6306  -22.0259 O.2       1 ALA2        0.0000 
     89 CA        -39.7963  -33.5499  -22.4034 C.3       4 GLY6        0.0000 
     90 CA        -39.0808  -34.8533  -22.6014 C.3       4 GLY6        0.0000 
     91 O         -38.3654  -36.1567  -22.7994 O.2       1 ALA2        0.0000 
     92 NZ        -40.2534  -35.3795  -23.3749 N.2       3 LYS4        0.0000 
@<TRIPOS>BOND
@<TRIPOS>SUBSTRUCTURE
     1 ALA2        1 GROUP   
     2 ASP3        3 GROUP   
     3 LYS4        4 GROUP   
     4 GLY6       20 GROUP   
     5 CUB7       19 GROUP   
@<TRIPOS>SET

