#    Name: 1ojl_ATP_1_INTS_M
#    Modification time : Mon Mar 24 20:13:56 2014

@<TRIPOS>MOLECULE
1ojl_ATP_1_INTS_M
   45     0     9     0     0
SMALL
NO_CHARGES


@<TRIPOS>ATOM
      1 N         -37.6140  -34.3210  -17.0860 N.am      1 SEC2        0.0000 
      2 N         -38.1390  -35.3720  -16.6670 N.am      7 SEL2        0.0000 
      3 N         -37.0890  -33.2700  -17.5050 N.am      4 SEP2        0.0000 
      4 N         -37.3360  -34.6390  -15.8470 N.am      1 SEC2        0.0000 
      5 N         -36.5330  -33.9060  -15.0270 N.am      4 SEP2        0.0000 
      6 NZ        -40.8650  -35.6320  -17.4120 N.4       2 LYC4        0.0000 
      7 NZ        -39.6720  -36.9040  -17.8060 N.4       8 LYL4        0.0000 
      8 NZ        -42.0580  -34.3600  -17.0180 N.4       5 LYP4        0.0000 
      9 NZ        -35.7560  -37.0635  -19.2665 N.4       2 LYC4        0.0000 
     10 NZ        -37.2840  -36.8050  -18.5280 N.4       8 LYL4        0.0000 
     11 NZ        -34.2280  -37.3220  -20.0050 N.4       5 LYP4        0.0000 
     12 N         -38.7280  -39.8480  -14.4460 N.am      1 SEC2        0.0000 
     13 N         -37.2600  -40.0190  -15.2840 N.am      7 SEL2        0.0000 
     14 N         -40.1960  -39.6770  -13.6080 N.am      4 SEP2        0.0000 
     15 NZ        -34.6865  -36.9660  -18.8820 N.4       2 LYC4        0.0000 
     16 NZ        -35.1450  -36.6100  -17.7590 N.4       8 LYL4        0.0000 
     17 CA        -32.3425  -37.5990  -17.9085 C.3       3 GLC5        0.0000 
     18 CA        -32.7250  -38.7900  -16.1050 C.3       9 GLL5        0.0000 
     19 CA        -31.9600  -36.4080  -19.7120 C.3       6 GLP5        0.0000 
     20 CA        -28.6295  -39.1015  -13.9995 C.3       3 GLC5        0.0000 
     21 CA        -30.3970  -39.9220  -13.8800 C.3       9 GLL5        0.0000 
     22 CA        -26.8620  -38.2810  -14.1190 C.3       6 GLP5        0.0000 
     23 N         -28.0175  -41.1060  -14.0745 N.am      1 SEC2        0.0000 
     24 N         -29.0660  -40.3490  -14.0190 N.am      7 SEL2        0.0000 
     25 N         -26.9690  -41.8630  -14.1300 N.am      4 SEP2        0.0000 
     26 CA        -28.9995  -37.7660  -13.6975 C.3       3 GLC5        0.0000 
     27 CA        -30.4610  -38.4150  -13.6460 C.3       9 GLL5        0.0000 
     28 CA        -27.5380  -37.1170  -13.7490 C.3       6 GLP5        0.0000 
     29 CA        -30.7020  -36.6675  -14.2840 C.3       3 GLC5        0.0000 
     30 CA        -30.9430  -34.9200  -14.9220 C.3       6 GLP5        0.0000 
     31 CA        -30.1915  -38.0945   -7.8135 C.3       3 GLC5        0.0000 
     32 CA        -31.8600  -37.8210   -8.9870 C.3       9 GLL5        0.0000 
     33 CA        -28.5230  -38.3680   -6.6400 C.3       6 GLP5        0.0000 
     34 CA        -29.0815  -38.5295   -7.9370 C.3       3 GLC5        0.0000 
     35 CA        -29.6400  -38.6910   -9.2340 C.3       9 GLL5        0.0000 
     36 CA        -29.5080  -37.1095   -8.7440 C.3       3 GLC5        0.0000 
     37 CA        -29.3760  -35.5280   -8.2540 C.3       6 GLP5        0.0000 
     38 CA        -27.5200  -39.3680   -9.3580 C.3       3 GLC5        0.0000 
     39 CA        -25.4000  -40.0450   -9.4820 C.3       6 GLP5        0.0000 
     40 CA        -31.4665  -36.8448  -15.4423 C.3       3 GLC5        0.0000 
     41 CA        -31.2550  -38.7490  -15.8200 C.3       9 GLL5        0.0000 
     42 CA        -33.4963  -39.2867   -9.6133 C.3       3 GLC5        0.0000 
     43 CA        -31.9830  -37.7900  -10.3720 C.3       9 GLL5        0.0000 
     44 CA        -35.0710  -40.7680   -9.5470 C.3       6 GLP5        0.0000 
     45 CA        -30.3994  -36.7689   -9.3379 C.3       3 GLC5        0.0000 
@<TRIPOS>BOND
@<TRIPOS>SUBSTRUCTURE
     1 SEC2        1 GROUP        1 X    SEC  0     ROOT SEC X 2
     2 LYC4        6 GROUP        1 X    LYC  0     **** LYC X 4
     3 GLC5       17 GROUP        1 X    GLC  0     **** GLC X 6
     4 SEP2        3 GROUP        1 Y    SEP  0     ROOT SEP Y 9
     5 LYP4        8 GROUP        1 Y    LYP  0     **** LYP Y 11
     6 GLP5       19 GROUP        1 Y    GLP  0     **** GLP Y 13
     7 SEL2        2 GROUP        1 Z    SEL  0     ROOT SEL Z 16
     8 LYL4        7 GROUP        1 Z    LYL  0     **** LYL Z 18
     9 GLL5       18 GROUP        1 Z    GLL  0     **** GLL Z 20
@<TRIPOS>SET

