#    Name: 1ojl_ATP_1_ligand
#    Modification time : Mon Mar 24 20:13:56 2014

@<TRIPOS>MOLECULE
1ojl_ATP_1_ligand
   43    45     1     0     0
SMALL
NO_CHARGES


@<TRIPOS>ATOM
      1 PG        -38.2350  -36.7050  -17.3110 P.3       1 ATP1442     0.0000 
      2 O1G       -38.1390  -35.3720  -16.6670 O.co2     1 ATP1442     0.0000 
      3 O2G       -39.6720  -36.9040  -17.8060 O.co2     1 ATP1442     0.0000 
      4 O3G       -37.2840  -36.8050  -18.5280 O.co2     1 ATP1442     0.0000 
      5 PB        -37.0910  -39.1640  -16.4790 P.3       1 ATP1442     0.0000 
      6 O1B       -37.2600  -40.0190  -15.2840 O.co2     1 ATP1442     0.0000 
      7 O2B       -37.6490  -39.8830  -17.7250 O.co2     1 ATP1442     0.0000 
      8 O3B       -37.8540  -37.7800  -16.1830 O.3       1 ATP1442     0.0000 
      9 PA        -34.7970  -37.4320  -16.5940 P.3       1 ATP1442     0.0000 
     10 O1A       -35.1450  -36.6100  -17.7590 O.co2     1 ATP1442     0.0000 
     11 O2A       -35.0790  -36.7920  -15.2220 O.co2     1 ATP1442     0.0000 
     12 O3A       -35.5070  -38.8770  -16.6810 O.3       1 ATP1442     0.0000 
     13 O5'       -33.2160  -37.6720  -16.7690 O.3       1 ATP1442     0.0000 
     14 C5'       -32.7250  -38.7900  -16.1050 C.3       1 ATP1442     0.0000 
     15 C4'       -31.2550  -38.7490  -15.8200 C.3       1 ATP1442     0.0000 
     16 O4'       -30.9850  -37.8020  -14.8160 O.3       1 ATP1442     0.0000 
     17 C3'       -31.1130  -40.1170  -15.1940 C.3       1 ATP1442     0.0000 
     18 O3'       -30.4760  -41.0210  -16.0670 O.3       1 ATP1442     0.0000 
     19 C2'       -30.3970  -39.9220  -13.8800 C.3       1 ATP1442     0.0000 
     20 O2'       -29.0660  -40.3490  -14.0190 O.3       1 ATP1442     0.0000 
     21 C1'       -30.4610  -38.4150  -13.6460 C.3       1 ATP1442     0.0000 
     22 N9        -31.3020  -38.0850  -12.4760 N.pl3     1 ATP1442     0.0000 
     23 C8        -32.5770  -37.5820  -12.4860 C.2       1 ATP1442     0.0000 
     24 N7        -32.9800  -37.4080  -11.2010 N.2       1 ATP1442     0.0000 
     25 C5        -31.9830  -37.7900  -10.3720 C.ar      1 ATP1442     0.0000 
     26 C6        -31.8600  -37.8210   -8.9870 C.ar      1 ATP1442     0.0000 
     27 N6        -32.8290  -37.3630   -8.1950 N.pl3     1 ATP1442     0.0000 
     28 N1        -30.6830  -38.2760   -8.4320 N.ar      1 ATP1442     0.0000 
     29 C2        -29.6400  -38.6910   -9.2340 C.ar      1 ATP1442     0.0000 
     30 N3        -29.7740  -38.6550  -10.6020 N.ar      1 ATP1442     0.0000 
     31 C4        -30.9240  -38.2140  -11.1640 C.ar      1 ATP1442     0.0000 
     32 H         -32.9270  -39.7340  -16.6811 H         1 ATP1442     0.0000 
     33 H         -33.2506  -38.9517  -15.1244 H         1 ATP1442     0.0000 
     34 H         -30.7150  -38.6989  -16.6743 H         1 ATP1442     0.0000 
     35 H         -32.1373  -40.4502  -14.9519 H         1 ATP1442     0.0000 
     36 H         -30.9372  -40.4080  -13.1207 H         1 ATP1442     0.0000 
     37 H         -29.4442  -38.0728  -13.4649 H         1 ATP1442     0.0000 
     38 H         -33.0919  -37.3880  -13.2726 H         1 ATP1442     0.0000 
     39 H         -33.6155  -36.9510   -8.6551 H         1 ATP1442     0.0000 
     40 H         -32.6824  -37.4725   -7.2119 H         1 ATP1442     0.0000 
     41 H         -28.7635  -39.0268   -8.8069 H         1 ATP1442     0.0000 
     42 H         -29.7001  -41.3790  -15.5476 H         1 ATP1442     0.0000 
     43 H         -28.6045  -39.6044  -14.5014 H         1 ATP1442     0.0000 
@<TRIPOS>BOND
     1    2    1 ar   
     2    3    1 ar   
     3    4    1 ar   
     4    8    1 1    
     5    6    5 ar   
     6    7    5 ar   
     7    8    5 1    
     8   12    5 1    
     9   10    9 ar   
    10   11    9 ar   
    11   12    9 1    
    12   13    9 1    
    13   14   13 1    
    14   15   14 1    
    15   32   14 1    
    16   33   14 1    
    17   16   15 1    
    18   17   15 1    
    19   34   15 1    
    20   21   16 1    
    21   18   17 1    
    22   19   17 1    
    23   35   17 1    
    24   42   18 1    
    25   20   19 1    
    26   21   19 1    
    27   36   19 1    
    28   43   20 1    
    29   22   21 1    
    30   37   21 1    
    31   23   22 1    
    32   31   22 1    
    33   24   23 2    
    34   38   23 1    
    35   25   24 1    
    36   26   25 ar   
    37   31   25 ar   
    38   27   26 1    
    39   28   26 ar   
    40   39   27 1    
    41   40   27 1    
    42   29   28 ar   
    43   30   29 ar   
    44   41   29 1    
    45   31   30 ar   
@<TRIPOS>SUBSTRUCTURE
     1 ATP1442     1 GROUP   
@<TRIPOS>SET

