#    Name: 2ayp_43A_1_INTS_M
#    Modification time : Mon Mar 24 19:42:56 2014

@<TRIPOS>MOLECULE
2ayp_43A_1_INTS_M
   71     0     9     0     0
SMALL
NO_CHARGES


@<TRIPOS>ATOM
      1 CA          9.1340   -0.1480   16.0055 C.3       3 GLC5        0.0000 
      2 CA          9.7490   -2.2520   15.7760 C.3       9 GLL5        0.0000 
      3 CA          8.5190    1.9560   16.2350 C.3       6 GLP5        0.0000 
      4 CA          8.0580   -1.5705   14.5015 C.3       3 GLC5        0.0000 
      5 CA          6.3670   -0.8890   13.2270 C.3       6 GLP5        0.0000 
      6 N          14.5870   -2.5925   14.8375 N.am      2 SEC2        0.0000 
      7 N          13.1580   -3.5130   14.5320 N.am      8 SEL2        0.0000 
      8 N          16.0160   -1.6720   15.1430 N.am      5 SEP2        0.0000 
      9 N          12.4315   -3.4140   13.0565 N.am      2 SEC2        0.0000 
     10 N          11.7050   -3.3150   11.5810 N.am      5 SEP2        0.0000 
     11 O          13.5220   -4.8135   14.3660 O.2       1 ALC1        0.0000 
     12 O          13.1580   -3.5130   14.5320 O.2       7 ALL1        0.0000 
     13 O          13.8860   -6.1140   14.2000 O.2       4 ALP1        0.0000 
     14 CA         10.1145    1.0890   15.7605 C.3       3 GLC5        0.0000 
     15 CA         11.7100    0.2220   15.2860 C.3       9 GLL5        0.0000 
     16 CA         12.0425   -0.2715   16.9130 C.3       3 GLC5        0.0000 
     17 CA         12.3750   -0.7650   18.5400 C.3       6 GLP5        0.0000 
     18 CA         11.9160    0.0895   13.4325 C.3       3 GLC5        0.0000 
     19 CA         12.1220   -0.0430   11.5790 C.3       6 GLP5        0.0000 
     20 CA          7.8565   -0.4770   17.7640 C.3       3 GLC5        0.0000 
     21 CA          7.3700   -2.4480   17.8560 C.3       9 GLL5        0.0000 
     22 CA          8.3430    1.4940   17.6720 C.3       6 GLP5        0.0000 
     23 O           6.2640   -0.3755   20.0030 O.2       1 ALC1        0.0000 
     24 O           5.4650   -1.6090   19.3160 O.2       7 ALL1        0.0000 
     25 O           7.0630    0.8580   20.6900 O.2       4 ALP1        0.0000 
     26 CA          3.9840   -3.9795   20.7750 C.3       3 GLC5        0.0000 
     27 CA          3.8210   -3.2850   18.8580 C.3       9 GLL5        0.0000 
     28 CA          4.1470   -4.6740   22.6920 C.3       6 GLP5        0.0000 
     29 N           3.3680    0.1190   20.7470 N.am      2 SEC2        0.0000 
     30 N           3.4730   -1.3460   20.3940 N.am      8 SEL2        0.0000 
     31 N           3.2630    1.5840   21.1000 N.am      5 SEP2        0.0000 
     32 CA          2.7995   -5.2755   20.1425 C.3       3 GLC5        0.0000 
     33 CA          2.7120   -4.0880   18.7820 C.3       9 GLL5        0.0000 
     34 CA          2.8870   -6.4630   21.5030 C.3       6 GLP5        0.0000 
     35 CA          1.5015   -4.2840   21.0740 C.3       3 GLC5        0.0000 
     36 CA          1.3370   -3.7400   19.2330 C.3       9 GLL5        0.0000 
     37 CA          1.6660   -4.8280   22.9150 C.3       6 GLP5        0.0000 
     38 O           0.7430   -1.0400   19.9355 O.2       1 ALC1        0.0000 
     39 O           1.0230   -2.7190   19.7800 O.2       7 ALL1        0.0000 
     40 O           0.4630    0.6390   20.0910 O.2       4 ALP1        0.0000 
     41 CA          1.5730   -5.4955   20.2960 C.3       3 GLC5        0.0000 
     42 CA          0.2590   -4.5280   19.0890 C.3       9 GLL5        0.0000 
     43 CA         11.5070   -2.9620   16.9970 C.3       3 GLC5        0.0000 
     44 CA         11.1140   -2.2090   15.1650 C.3       9 GLL5        0.0000 
     45 CA         11.5170   -3.0790   18.8680 C.3       6 GLP5        0.0000 
     46 CA         10.4330   -3.3150   13.6440 C.3       3 GLC5        0.0000 
     47 CA         11.8800   -3.4810   15.0870 C.3       9 GLL5        0.0000 
     48 CA          9.3690   -3.7850   12.1620 C.3       6 GLP5        0.0000 
     49 CA         10.4877   -2.9757   17.4500 C.3       3 GLC5        0.0000 
     50 CA          9.4138   -3.3288   14.0970 C.3       3 GLC5        0.0000 
     51 CA          9.1680   -3.4930   16.2880 C.3       9 GLL5        0.0000 
     52 CA         11.3205   -6.1913   16.5433 C.3       3 GLC5        0.0000 
     53 CA          9.9650   -4.7120   16.1830 C.3       9 GLL5        0.0000 
     54 CA         12.0120   -7.6710   17.1970 C.3       6 GLP5        0.0000 
     55 CA         11.0730   -3.8953   17.3788 C.3       3 GLC5        0.0000 
     56 CA         11.2930   -4.7110   15.5960 C.3       9 GLL5        0.0000 
     57 CA          9.9990   -4.2483   14.0258 C.3       3 GLC5        0.0000 
     58 CA          9.5460   -3.0295   18.1253 C.3       3 GLC5        0.0000 
     59 CA          7.7800   -3.5120   16.9090 C.3       9 GLL5        0.0000 
     60 CA          7.1120   -2.3805   20.0478 C.3       3 GLC5        0.0000 
     61 CA          7.5220   -2.2990   21.9480 C.3       6 GLP5        0.0000 
     62 CA          5.3900   -1.5780   17.2138 C.3       3 GLC5        0.0000 
     63 CA          6.0340   -2.4760   18.4390 C.3       9 GLL5        0.0000 
     64 CA          4.0780   -0.6940   16.2800 C.3       6 GLP5        0.0000 
     65 CA          4.6805   -2.3712   16.9690 C.3       3 GLC5        0.0000 
     66 CA          5.1020   -3.5150   18.1210 C.3       9 GLL5        0.0000 
     67 CA          3.6723   -2.1902   17.5500 C.3       3 GLC5        0.0000 
     68 CA          0.5095   -4.0457   21.3962 C.3       3 GLC5        0.0000 
     69 CA         -0.4070   -2.6860   20.0990 C.3       9 GLL5        0.0000 
     70 CA         -1.1890   -2.4754   18.5786 C.3       3 GLC5        0.0000 
     71 CA         -2.1840   -1.0550   17.6740 C.3       6 GLP5        0.0000 
@<TRIPOS>BOND
@<TRIPOS>SUBSTRUCTURE
     1 ALC1       11 GROUP        1 X    ALC  0     ROOT ALC X 1
     2 SEC2        6 GROUP        1 X    SEC  0     **** SEC X 2
     3 GLC5        1 GROUP        1 X    GLC  0     **** GLC X 6
     4 ALP1       13 GROUP        1 Y    ALP  0     ROOT ALP Y 8
     5 SEP2        8 GROUP        1 Y    SEP  0     **** SEP Y 9
     6 GLP5        3 GROUP        1 Y    GLP  0     **** GLP Y 13
     7 ALL1       12 GROUP        1 Z    ALL  0     ROOT ALL Z 15
     8 SEL2        7 GROUP        1 Z    SEL  0     **** SEL Z 16
     9 GLL5        2 GROUP        1 Z    GLL  0     **** GLL Z 20
@<TRIPOS>SET

