#    Name: 2ayp_43A_1_ligand
#    Modification time : Mon Mar 24 19:42:56 2014

@<TRIPOS>MOLECULE
2ayp_43A_1_ligand
   41    44     1     0     0
SMALL
NO_CHARGES


@<TRIPOS>ATOM
      1 C1         11.8800   -3.4810   15.0870 C.ar      1 43A270      0.0000 
      2 C2         11.1140   -2.2090   15.1650 C.ar      1 43A270      0.0000 
      3 C3          9.7490   -2.2520   15.7760 C.ar      1 43A270      0.0000 
      4 C4          9.1680   -3.4930   16.2880 C.ar      1 43A270      0.0000 
      5 C5          9.9650   -4.7120   16.1830 C.ar      1 43A270      0.0000 
      6 C6         11.2930   -4.7110   15.5960 C.ar      1 43A270      0.0000 
      7 O7         13.1580   -3.5130   14.5320 O.3       1 43A270      0.0000 
      8 O8         11.7880   -1.0420   14.6300 O.3       1 43A270      0.0000 
      9 C9         11.7100    0.2220   15.2860 C.3       1 43A270      0.0000 
     10 C10         7.7800   -3.5120   16.9090 C.ar      1 43A270      0.0000 
     11 C11         7.3700   -2.4480   17.8560 C.ar      1 43A270      0.0000 
     12 C12         6.0340   -2.4760   18.4390 C.ar      1 43A270      0.0000 
     13 C13         5.1020   -3.5150   18.1210 C.ar      1 43A270      0.0000 
     14 C14         5.4640   -4.5820   17.1950 C.ar      1 43A270      0.0000 
     15 C15         6.8040   -4.5680   16.6000 C.ar      1 43A270      0.0000 
     16 N16         5.4650   -1.6090   19.3160 N.am      1 43A270      0.0000 
     17 C17         4.1910   -1.9840   19.6200 C.2       1 43A270      0.0000 
     18 C18         3.8210   -3.2850   18.8580 C.2       1 43A270      0.0000 
     19 O19         3.4730   -1.3460   20.3940 O.2       1 43A270      0.0000 
     20 C20         2.7120   -4.0880   18.7820 C.2       1 43A270      0.0000 
     21 C21         1.3370   -3.7400   19.2330 C.2       1 43A270      0.0000 
     22 N22         1.0230   -2.7190   19.7800 N.pl3     1 43A270      0.0000 
     23 C23        -0.4070   -2.6860   20.0990 C.2       1 43A270      0.0000 
     24 C24        -0.8870   -3.8410   19.6560 C.2       1 43A270      0.0000 
     25 C25         0.2590   -4.5280   19.0890 C.2       1 43A270      0.0000 
     26 H           9.2220   -1.3879   15.8304 H         1 43A270      0.0000 
     27 H           9.5747   -5.5871   16.5329 H         1 43A270      0.0000 
     28 H          11.8175   -5.5755   15.5397 H         1 43A270      0.0000 
     29 H           8.0141   -1.7195   18.0870 H         1 43A270      0.0000 
     30 H           4.8195   -5.3039   16.9701 H         1 43A270      0.0000 
     31 H           7.0677   -5.3082   15.9555 H         1 43A270      0.0000 
     32 H           5.9098   -0.8180   19.6828 H         1 43A270      0.0000 
     33 H           2.7969   -5.0632   18.3671 H         1 43A270      0.0000 
     34 H           1.5546   -1.9120   20.0469 H         1 43A270      0.0000 
     35 H          -0.8123   -1.9671   20.5241 H         1 43A270      0.0000 
     36 H          -1.7443   -4.1993   19.6688 H         1 43A270      0.0000 
     37 H           0.1932   -5.3882   18.6967 H         1 43A270      0.0000 
     38 H          12.0762    0.1812   16.2157 H         1 43A270      0.0000 
     39 H          12.2262    0.9260   14.7983 H         1 43A270      0.0000 
     40 H          10.7667    0.5462   15.3565 H         1 43A270      0.0000 
     41 H          13.3727   -4.4846   14.4329 H         1 43A270      0.0000 
@<TRIPOS>BOND
     1    2    1 ar   
     2    6    1 ar   
     3    7    1 1    
     4    3    2 ar   
     5    8    2 1    
     6    4    3 ar   
     7   26    3 1    
     8    5    4 ar   
     9   10    4 1    
    10    6    5 ar   
    11   27    5 1    
    12   28    6 1    
    13   41    7 1    
    14    9    8 1    
    15   38    9 1    
    16   39    9 1    
    17   40    9 1    
    18   11   10 ar   
    19   15   10 ar   
    20   12   11 ar   
    21   29   11 1    
    22   13   12 ar   
    23   16   12 1    
    24   14   13 ar   
    25   18   13 1    
    26   15   14 ar   
    27   30   14 1    
    28   31   15 1    
    29   17   16 am   
    30   32   16 1    
    31   18   17 1    
    32   19   17 2    
    33   20   18 2    
    34   21   20 1    
    35   33   20 1    
    36   22   21 1    
    37   25   21 2    
    38   23   22 1    
    39   34   22 1    
    40   24   23 2    
    41   35   23 1    
    42   25   24 1    
    43   36   24 1    
    44   37   25 1    
@<TRIPOS>SUBSTRUCTURE
     1 43A270      1 GROUP   
@<TRIPOS>SET

