#    Name: 3osa_KN3_4_INTS_M
#    Modification time : Tue Mar 25 05:15:58 2014

@<TRIPOS>MOLECULE
3osa_KN3_4_INTS_M
   82     0     9     0     0
SMALL
NO_CHARGES


@<TRIPOS>ATOM
      1 CA        -22.1090  -39.8910  -32.6460 C.3       3 GLC5        0.0000 
      2 CA        -23.5530  -38.3540  -33.0140 C.3       9 GLL5        0.0000 
      3 CA        -20.6650  -41.4280  -32.2780 C.3       6 GLP5        0.0000 
      4 CA        -25.5210  -36.3650  -30.7295 C.3       3 GLC5        0.0000 
      5 CA        -25.5220  -36.9440  -32.8240 C.3       9 GLL5        0.0000 
      6 CA        -25.5200  -35.7860  -28.6350 C.3       6 GLP5        0.0000 
      7 CA        -32.1100  -39.2925  -32.1270 C.3       3 GLC5        0.0000 
      8 CA        -31.1060  -37.8020  -31.4610 C.3       9 GLL5        0.0000 
      9 CA        -33.1140  -40.7830  -32.7930 C.3       6 GLP5        0.0000 
     10 CA        -30.7490  -39.3690  -30.1615 C.3       3 GLC5        0.0000 
     11 CA        -30.3920  -40.9360  -28.8620 C.3       6 GLP5        0.0000 
     12 CA        -29.4340  -38.7090  -34.0350 C.3       3 GLC5        0.0000 
     13 CA        -29.9440  -37.0260  -33.6740 C.3       9 GLL5        0.0000 
     14 CA        -28.9240  -40.3920  -34.3960 C.3       6 GLP5        0.0000 
     15 CA        -26.9510  -40.0110  -28.6615 C.3       3 GLC5        0.0000 
     16 CA        -26.5820  -40.6060  -30.5420 C.3       9 GLL5        0.0000 
     17 CA        -27.3200  -39.4160  -26.7810 C.3       6 GLP5        0.0000 
     18 CA        -26.5140  -41.7470  -27.9300 C.3       3 GLC5        0.0000 
     19 CA        -26.5150  -41.8660  -29.9560 C.3       9 GLL5        0.0000 
     20 CA        -26.5130  -41.6280  -25.9040 C.3       6 GLP5        0.0000 
     21 CA        -22.1720  -42.1380  -30.0750 C.3       3 GLC5        0.0000 
     22 CA        -24.1340  -41.7350  -30.0250 C.3       9 GLL5        0.0000 
     23 CA        -20.2100  -42.5410  -30.1250 C.3       6 GLP5        0.0000 
     24 CA        -22.4285  -40.9630  -31.4540 C.3       3 GLC5        0.0000 
     25 CA        -24.1920  -40.4980  -30.6300 C.3       9 GLL5        0.0000 
     26 N         -24.0275  -44.6265  -29.4925 N.am      2 SEC2        0.0000 
     27 N         -25.1390  -43.6670  -29.1400 N.am      8 SEL2        0.0000 
     28 N         -22.9160  -45.5860  -29.8450 N.am      5 SEP2        0.0000 
     29 N         -24.2365  -43.9365  -27.8645 N.am      2 SEC2        0.0000 
     30 N         -23.3340  -44.2060  -26.5890 N.am      5 SEP2        0.0000 
     31 O         -26.1280  -44.1670  -28.7180 O.2       1 ALC1        0.0000 
     32 O         -25.1390  -43.6670  -29.1400 O.2       7 ALL1        0.0000 
     33 O         -27.1170  -44.6670  -28.2960 O.2       4 ALP1        0.0000 
     34 CA        -23.4820  -32.8915  -34.7805 C.3       3 GLC5        0.0000 
     35 CA        -24.8170  -33.9100  -34.7310 C.3       9 GLL5        0.0000 
     36 CA        -22.1470  -31.8730  -34.8300 C.3       6 GLP5        0.0000 
     37 CA        -25.4005  -31.9050  -35.2690 C.3       3 GLC5        0.0000 
     38 CA        -25.9840  -29.9000  -35.8070 C.3       6 GLP5        0.0000 
     39 CA        -28.0405  -33.5800  -33.1015 C.3       3 GLC5        0.0000 
     40 CA        -26.2320  -34.1480  -33.1240 C.3       9 GLL5        0.0000 
     41 CA        -29.8490  -33.0120  -33.0790 C.3       6 GLP5        0.0000 
     42 CA        -28.3460  -35.2465  -36.1150 C.3       3 GLC5        0.0000 
     43 CA        -26.6990  -34.9290  -35.0730 C.3       9 GLL5        0.0000 
     44 CA        -29.9930  -35.5640  -37.1570 C.3       6 GLP5        0.0000 
     45 CA        -26.8240  -37.1120  -35.2775 C.3       3 GLC5        0.0000 
     46 CA        -26.9490  -39.2950  -35.4820 C.3       6 GLP5        0.0000 
     47 CA        -28.2740  -33.9705  -34.0760 C.3       3 GLC5        0.0000 
     48 CA        -22.5427  -35.9023  -32.4213 C.3       3 GLC5        0.0000 
     49 CA        -23.7210  -36.3110  -34.3100 C.3       9 GLL5        0.0000 
     50 CA        -21.7160  -34.9170  -30.7150 C.3       6 GLP5        0.0000 
     51 CA        -24.7142  -36.0207  -36.0528 C.3       3 GLC5        0.0000 
     52 CA        -25.0790  -35.8690  -38.0720 C.3       6 GLP5        0.0000 
     53 CA        -21.9323  -35.5977  -34.2293 C.3       3 GLC5        0.0000 
     54 CA        -20.4950  -34.3080  -34.3310 C.3       6 GLP5        0.0000 
     55 CA        -21.4693  -37.9880  -33.4938 C.3       3 GLC5        0.0000 
     56 CA        -23.0180  -37.4640  -33.9450 C.3       9 GLL5        0.0000 
     57 CA        -19.6530  -38.0670  -33.5080 C.3       6 GLP5        0.0000 
     58 CA        -25.5622  -38.7585  -34.1078 C.3       3 GLC5        0.0000 
     59 CA        -26.0995  -37.8920  -34.3863 C.3       3 GLC5        0.0000 
     60 CA        -24.8385  -40.0605  -28.6995 C.3       3 GLC5        0.0000 
     61 CA        -25.4200  -39.8880  -30.8360 C.3       9 GLL5        0.0000 
     62 CA        -24.8710  -39.9280  -26.6660 C.3       6 GLP5        0.0000 
     63 CA        -26.9195  -36.0660  -30.1983 C.3       3 GLC5        0.0000 
     64 CA        -28.8650  -36.6550  -31.4940 C.3       9 GLL5        0.0000 
     65 CA        -29.0840  -34.6790  -32.4203 C.3       3 GLC5        0.0000 
     66 CA        -27.7730  -36.0370  -32.0290 C.3       9 GLL5        0.0000 
     67 CA        -30.5547  -36.0865  -34.3975 C.3       3 GLC5        0.0000 
     68 CA        -29.9790  -37.1440  -32.1320 C.3       9 GLL5        0.0000 
     69 CA        -31.1480  -35.0880  -35.8920 C.3       6 GLP5        0.0000 
     70 CA        -29.7332  -38.9325  -33.0962 C.3       3 GLC5        0.0000 
     71 CA        -29.9053  -35.0485  -32.9910 C.3       3 GLC5        0.0000 
     72 CA        -32.1222  -37.1175  -31.1067 C.3       3 GLC5        0.0000 
     73 CA        -33.7020  -36.7620  -30.4170 C.3       6 GLP5        0.0000 
     74 CA        -28.4703  -41.0860  -29.5555 C.3       3 GLC5        0.0000 
     75 CA        -26.4845  -43.9325  -30.8165 C.3       3 GLC5        0.0000 
     76 CA        -27.0730  -45.7180  -31.8050 C.3       6 GLP5        0.0000 
     77 CA        -24.7882  -41.0048  -28.2643 C.3       3 GLC5        0.0000 
     78 CA        -25.2770  -42.4280  -29.7000 C.3       9 GLL5        0.0000 
     79 CA        -25.0124  -32.6937  -32.8560 C.3       3 GLC5        0.0000 
     80 CA        -24.2750  -31.1530  -31.9190 C.3       6 GLP5        0.0000 
     81 CA        -25.5311  -35.2470  -36.4198 C.3       3 GLC5        0.0000 
     82 CA        -25.7180  -34.7320  -34.1930 C.3       9 GLL5        0.0000 
@<TRIPOS>BOND
@<TRIPOS>SUBSTRUCTURE
     1 ALC1       31 GROUP        1 X    ALC  0     ROOT ALC X 1
     2 SEC2       26 GROUP        1 X    SEC  0     **** SEC X 2
     3 GLC5        1 GROUP        1 X    GLC  0     **** GLC X 6
     4 ALP1       33 GROUP        1 Y    ALP  0     ROOT ALP Y 8
     5 SEP2       28 GROUP        1 Y    SEP  0     **** SEP Y 9
     6 GLP5        3 GROUP        1 Y    GLP  0     **** GLP Y 13
     7 ALL1       32 GROUP        1 Z    ALL  0     ROOT ALL Z 15
     8 SEL2       27 GROUP        1 Z    SEL  0     **** SEL Z 16
     9 GLL5        2 GROUP        1 Z    GLL  0     **** GLL Z 20
@<TRIPOS>SET

