#    Name: 3osa_KN3_4_ligand
#    Modification time : Tue Mar 25 05:15:58 2014

@<TRIPOS>MOLECULE
3osa_KN3_4_ligand
   43    45     1     0     0
SMALL
NO_CHARGES


@<TRIPOS>ATOM
      1 CAA       -23.7210  -36.3110  -34.3100 C.ar      1 KN31        0.0000 
      2 CAB       -23.0180  -37.4640  -33.9450 C.ar      1 KN31        0.0000 
      3 CAC       -23.5530  -38.3540  -33.0140 C.ar      1 KN31        0.0000 
      4 CAD       -24.7980  -38.0900  -32.4530 C.ar      1 KN31        0.0000 
      5 CAE       -25.5220  -36.9440  -32.8240 C.ar      1 KN31        0.0000 
      6 CAF       -24.9780  -36.0340  -33.7570 C.ar      1 KN31        0.0000 
      7 CAG       -25.5850  -38.6690  -31.4640 C.2       1 KN31        0.0000 
      8 NAH       -26.7130  -37.9930  -31.4020 N.2       1 KN31        0.0000 
      9 NAI       -26.6480  -36.9710  -32.0710 N.pl3     1 KN31        0.0000 
     10 CAJ       -25.4200  -39.8880  -30.8360 C.ar      1 KN31        0.0000 
     11 CAK       -27.7730  -36.0370  -32.0290 C.3       1 KN31        0.0000 
     12 CAL       -28.8650  -36.6550  -31.4940 C.2       1 KN31        0.0000 
     13 CAM       -29.9790  -37.1440  -32.1320 C.2       1 KN31        0.0000 
     14 CAN       -31.1060  -37.8020  -31.4610 C.3       1 KN31        0.0000 
     15 CAO       -29.9440  -37.0260  -33.6740 C.3       1 KN31        0.0000 
     16 CAP       -26.5820  -40.6060  -30.5420 C.ar      1 KN31        0.0000 
     17 CAQ       -26.5150  -41.8660  -29.9560 C.ar      1 KN31        0.0000 
     18 CAR       -25.2770  -42.4280  -29.7000 C.ar      1 KN31        0.0000 
     19 CAS       -24.1340  -41.7350  -30.0250 C.ar      1 KN31        0.0000 
     20 CAT       -24.1920  -40.4980  -30.6300 C.ar      1 KN31        0.0000 
     21 OAU       -23.0240  -39.8560  -30.8820 O.3       1 KN31        0.0000 
     22 OAV       -25.1390  -43.6670  -29.1400 O.3       1 KN31        0.0000 
     23 CAW       -25.7180  -34.7320  -34.1930 C.3       1 KN31        0.0000 
     24 FAX       -24.8170  -33.9100  -34.7310 F         1 KN31        0.0000 
     25 FAY       -26.2320  -34.1480  -33.1240 F         1 KN31        0.0000 
     26 FAZ       -26.6990  -34.9290  -35.0730 F         1 KN31        0.0000 
     27 H         -23.3106  -35.6578  -34.9929 H         1 KN31        0.0000 
     28 H         -22.0989  -37.6554  -34.3679 H         1 KN31        0.0000 
     29 H         -23.0324  -39.1939  -32.7469 H         1 KN31        0.0000 
     30 H         -27.9599  -35.6703  -33.0608 H         1 KN31        0.0000 
     31 H         -27.4640  -35.1457  -31.4425 H         1 KN31        0.0000 
     32 H         -28.8557  -36.7806  -30.4029 H         1 KN31        0.0000 
     33 H         -27.5031  -40.1930  -30.7640 H         1 KN31        0.0000 
     34 H         -27.3748  -42.3692  -29.7180 H         1 KN31        0.0000 
     35 H         -23.2037  -42.1533  -29.8096 H         1 KN31        0.0000 
     36 H         -30.8167  -38.6219  -30.9669 H         1 KN31        0.0000 
     37 H         -31.5457  -37.1987  -30.7957 H         1 KN31        0.0000 
     38 H         -31.8113  -38.0851  -32.1110 H         1 KN31        0.0000 
     39 H         -29.8614  -36.0750  -33.9719 H         1 KN31        0.0000 
     40 H         -29.1714  -37.5245  -34.0672 H         1 KN31        0.0000 
     41 H         -30.7740  -37.3936  -34.0935 H         1 KN31        0.0000 
     42 H         -22.4466  -39.2786  -30.3046 H         1 KN31        0.0000 
     43 H         -26.0277  -44.1079  -29.2653 H         1 KN31        0.0000 
@<TRIPOS>BOND
     1    2    1 ar   
     2    6    1 ar   
     3   27    1 1    
     4    3    2 ar   
     5   28    2 1    
     6    4    3 ar   
     7   29    3 1    
     8    5    4 ar   
     9    7    4 1    
    10    6    5 ar   
    11    9    5 1    
    12   23    6 1    
    13    8    7 2    
    14   10    7 1    
    15    9    8 1    
    16   11    9 1    
    17   16   10 ar   
    18   20   10 ar   
    19   12   11 1    
    20   30   11 1    
    21   31   11 1    
    22   13   12 2    
    23   32   12 1    
    24   14   13 1    
    25   15   13 1    
    26   36   14 1    
    27   37   14 1    
    28   38   14 1    
    29   39   15 1    
    30   40   15 1    
    31   41   15 1    
    32   17   16 ar   
    33   33   16 1    
    34   18   17 ar   
    35   34   17 1    
    36   19   18 ar   
    37   22   18 1    
    38   20   19 ar   
    39   35   19 1    
    40   21   20 1    
    41   42   21 1    
    42   43   22 1    
    43   24   23 1    
    44   25   23 1    
    45   26   23 1    
@<TRIPOS>SUBSTRUCTURE
     1 KN31        1 GROUP   
@<TRIPOS>SET

