#    Name: 4iue_AJ4_1_INTS_M
#    Modification time : Tue Mar 25 04:37:08 2014

@<TRIPOS>MOLECULE
4iue_AJ4_1_INTS_M
   47     0     9     0     0
SMALL
NO_CHARGES


@<TRIPOS>ATOM
      1 CA          1.7885  -13.9170  -15.4510 C.3       3 GLC5        0.0000 
      2 CA          3.1370  -12.3490  -14.5700 C.3       9 GLL5        0.0000 
      3 CA          0.4400  -15.4850  -16.3320 C.3       6 GLP5        0.0000 
      4 CA          3.3270  -13.9600  -13.6620 C.3       3 GLC5        0.0000 
      5 CA          3.5170  -15.5710  -12.7540 C.3       6 GLP5        0.0000 
      6 N          -0.5330  -12.6565  -14.5400 N.am      2 SEC2        0.0000 
      7 N           0.8650  -12.5260  -14.9580 N.am      8 SEL2        0.0000 
      8 N          -1.9310  -12.7870  -14.1220 N.am      5 SEP2        0.0000 
      9 N           0.5110  -12.9465  -16.1765 N.am      2 SEC2        0.0000 
     10 N           0.1570  -13.3670  -17.3950 N.am      5 SEP2        0.0000 
     11 O           0.3330  -12.5275  -12.2195 O.2       1 ALC1        0.0000 
     12 O           1.4970  -12.1660  -12.8020 O.2       7 ALL1        0.0000 
     13 O          -0.8310  -12.8890  -11.6370 O.2       4 ALP1        0.0000 
     14 CA          2.2885  -13.5065  -10.3885 C.3       3 GLC5        0.0000 
     15 CA          3.1170  -11.6130   -9.5170 C.3       9 GLL5        0.0000 
     16 CA          1.4600  -15.4000  -11.2600 C.3       6 GLP5        0.0000 
     17 CA         -0.5460  -13.4250   -8.8435 C.3       3 GLC5        0.0000 
     18 CA          1.3250  -13.5600   -8.2320 C.3       9 GLL5        0.0000 
     19 CA         -2.4170  -13.2900   -9.4550 C.3       6 GLP5        0.0000 
     20 CA          1.3925  -14.4800   -9.7460 C.3       3 GLC5        0.0000 
     21 CA          1.1530  -15.3365   -7.2550 C.3       3 GLC5        0.0000 
     22 CA          0.9810  -17.1130   -6.2780 C.3       6 GLP5        0.0000 
     23 CA          4.8963  -13.8577  -13.4043 C.3       3 GLC5        0.0000 
     24 CA          5.6550  -12.1620  -14.0950 C.3       9 GLL5        0.0000 
     25 CA          4.8810  -15.5510  -12.9500 C.3       6 GLP5        0.0000 
     26 CA          4.5681  -10.5404  -13.9456 C.3       3 GLC5        0.0000 
     27 CA          4.1680  -12.1670  -13.6220 C.3       9 GLL5        0.0000 
     28 CA          5.1120   -8.8240  -13.6770 C.3       6 GLP5        0.0000 
     29 CA          2.2742  -13.6701  -11.4860 C.3       3 GLC5        0.0000 
     30 CA          2.5030  -11.9900  -11.8470 C.3       9 GLL5        0.0000 
     31 CA          4.5602  -10.3521  -12.6599 C.3       3 GLC5        0.0000 
     32 CA          4.8400  -11.7740  -11.2390 C.3       9 GLL5        0.0000 
     33 CA          4.2858  -12.7203   -8.2325 C.3       3 GLC5        0.0000 
     34 CA          4.4700  -11.6100   -9.8830 C.3       9 GLL5        0.0000 
     35 CA          4.7780  -13.8290   -6.7650 C.3       6 GLP5        0.0000 
     36 CA          5.2700  -10.3293   -9.3810 C.3       3 GLC5        0.0000 
     37 CA          6.6540   -9.0060   -8.7230 C.3       6 GLP5        0.0000 
     38 CA          3.8490  -12.3848   -7.2800 C.3       3 GLC5        0.0000 
     39 CA          3.1420  -10.3990   -7.4080 C.3       9 GLL5        0.0000 
     40 CA          4.7115   -9.2670   -7.0910 C.3       3 GLC5        0.0000 
     41 CA          6.4820   -8.2170   -7.4340 C.3       6 GLP5        0.0000 
     42 CA          3.5477  -12.2635   -6.2788 C.3       3 GLC5        0.0000 
     43 CA          2.7400  -10.2350   -6.0880 C.3       9 GLL5        0.0000 
     44 CA         -0.1236  -13.5940   -7.1410 C.3       3 GLC5        0.0000 
     45 CA          1.4450  -12.2700   -6.2350 C.3       9 GLL5        0.0000 
     46 CA         -1.7250  -14.2290   -6.7120 C.3       6 GLP5        0.0000 
     47 CA          3.1279  -13.3940   -7.1675 C.3       3 GLC5        0.0000 
@<TRIPOS>BOND
@<TRIPOS>SUBSTRUCTURE
     1 ALC1       11 GROUP        1 X    ALC  0     ROOT ALC X 1
     2 SEC2        6 GROUP        1 X    SEC  0     **** SEC X 2
     3 GLC5        1 GROUP        1 X    GLC  0     **** GLC X 6
     4 ALP1       13 GROUP        1 Y    ALP  0     ROOT ALP Y 8
     5 SEP2        8 GROUP        1 Y    SEP  0     **** SEP Y 9
     6 GLP5        3 GROUP        1 Y    GLP  0     **** GLP Y 13
     7 ALL1       12 GROUP        1 Z    ALL  0     ROOT ALL Z 15
     8 SEL2        7 GROUP        1 Z    SEL  0     **** SEL Z 16
     9 GLL5        2 GROUP        1 Z    GLL  0     **** GLL Z 20
@<TRIPOS>SET

