#    Name: 4iue_AJ4_1_ligand
#    Modification time : Tue Mar 25 04:37:08 2014

@<TRIPOS>MOLECULE
4iue_AJ4_1_ligand
   31    33     1     0     0
SMALL
NO_CHARGES


@<TRIPOS>ATOM
      1 CAA         5.6550  -12.1620  -14.0950 C.3       1 AJ41204     0.0000 
      2 CAM         4.1680  -12.1670  -13.6220 C.2       1 AJ41204     0.0000 
      3 CAJ         3.1370  -12.3490  -14.5700 C.2       1 AJ41204     0.0000 
      4 CAQ         1.8010  -12.3480  -14.1670 C.2       1 AJ41204     0.0000 
      5 OAB         0.8650  -12.5260  -14.9580 O.2       1 AJ41204     0.0000 
      6 NAL         1.4970  -12.1660  -12.8020 N.am      1 AJ41204     0.0000 
      7 CAR         2.5030  -11.9900  -11.8470 C.ar      1 AJ41204     0.0000 
      8 CAK         2.1490  -11.8050  -10.5090 C.ar      1 AJ41204     0.0000 
      9 CAS         3.8510  -11.9830  -12.2460 C.ar      1 AJ41204     0.0000 
     10 CAI         4.8400  -11.7740  -11.2390 C.ar      1 AJ41204     0.0000 
     11 CAH         4.4700  -11.6100   -9.8830 C.ar      1 AJ41204     0.0000 
     12 CAO         3.1170  -11.6130   -9.5170 C.ar      1 AJ41204     0.0000 
     13 CAP         2.6980  -11.4820   -8.1820 C.ar      1 AJ41204     0.0000 
     14 CAG         3.1420  -10.3990   -7.4080 C.ar      1 AJ41204     0.0000 
     15 CAE         2.7400  -10.2350   -6.0880 C.ar      1 AJ41204     0.0000 
     16 CAD         1.8950  -11.1610   -5.4970 C.ar      1 AJ41204     0.0000 
     17 CAF         1.4450  -12.2700   -6.2350 C.ar      1 AJ41204     0.0000 
     18 CAN         1.8160  -12.4460   -7.5810 C.ar      1 AJ41204     0.0000 
     19 FAC         1.3250  -13.5600   -8.2320 F         1 AJ41204     0.0000 
     20 H           3.3793  -12.4820  -15.5583 H         1 AJ41204     0.0000 
     21 H           0.5060  -12.1634  -12.5058 H         1 AJ41204     0.0000 
     22 H           1.1473  -11.8098  -10.2434 H         1 AJ41204     0.0000 
     23 H           5.8280  -11.7431  -11.5059 H         1 AJ41204     0.0000 
     24 H           5.1965  -11.4893   -9.1723 H         1 AJ41204     0.0000 
     25 H           3.7856   -9.7075   -7.8368 H         1 AJ41204     0.0000 
     26 H           3.0719   -9.4222   -5.5485 H         1 AJ41204     0.0000 
     27 H           1.5933  -11.0456   -4.5235 H         1 AJ41204     0.0000 
     28 H           0.8334  -12.9657   -5.7832 H         1 AJ41204     0.0000 
     29 H           6.2867  -12.0214  -13.3327 H         1 AJ41204     0.0000 
     30 H           5.9090  -13.0255  -14.5307 H         1 AJ41204     0.0000 
     31 H           5.8310  -11.4356  -14.7593 H         1 AJ41204     0.0000 
@<TRIPOS>BOND
     1    2    1 1    
     2   29    1 1    
     3   30    1 1    
     4   31    1 1    
     5    3    2 2    
     6    9    2 1    
     7    4    3 1    
     8   20    3 1    
     9    5    4 2    
    10    6    4 am   
    11    7    6 1    
    12   21    6 1    
    13    8    7 ar   
    14    9    7 ar   
    15   12    8 ar   
    16   22    8 1    
    17   10    9 ar   
    18   11   10 ar   
    19   23   10 1    
    20   12   11 ar   
    21   24   11 1    
    22   13   12 1    
    23   14   13 ar   
    24   18   13 ar   
    25   15   14 ar   
    26   25   14 1    
    27   16   15 ar   
    28   26   15 1    
    29   17   16 ar   
    30   27   16 1    
    31   18   17 ar   
    32   28   17 1    
    33   19   18 1    
@<TRIPOS>SUBSTRUCTURE
     1 AJ41204     1 GROUP   
@<TRIPOS>SET

