#    Name: 4dz6_ADP_2_INTS_M
#    Modification time : Tue Mar 25 10:25:44 2014

@<TRIPOS>MOLECULE
4dz6_ADP_2_INTS_M
   67     0     9     0     0
SMALL
NO_CHARGES


@<TRIPOS>ATOM
      1 NZ         45.1530   32.0275   22.8825 N.4       2 LYC4        0.0000 
      2 NZ         46.6860   31.5030   22.6990 N.4       8 LYL4        0.0000 
      3 NZ         43.2970   32.9920   21.8670 N.4       5 LYP4        0.0000 
      4 N          46.3990   30.3565   23.3185 N.am      1 SEC2        0.0000 
      5 N          46.6860   31.5030   22.6990 N.am      7 SEL2        0.0000 
      6 N          46.1120   29.2100   23.9380 N.am      4 SEP2        0.0000 
      7 N          45.1530   32.0275   22.8825 N.am      1 SEC2        0.0000 
      8 N          43.6200   32.5520   23.0660 N.am      4 SEP2        0.0000 
      9 NZ         48.2945   33.5235   23.5045 N.4       2 LYC4        0.0000 
     10 NZ         49.0160   32.4670   22.6570 N.4       8 LYL4        0.0000 
     11 NZ         47.9340   34.3800   25.6090 N.4       5 LYP4        0.0000 
     12 N          48.8220   32.8810   24.2960 N.am      1 SEC2        0.0000 
     13 N          49.0160   32.4670   22.6570 N.am      7 SEL2        0.0000 
     14 N          48.6280   33.2950   25.9350 N.am      4 SEP2        0.0000 
     15 N          48.2945   33.5235   23.5045 N.am      1 SEC2        0.0000 
     16 N          47.5730   34.5800   24.3520 N.am      4 SEP2        0.0000 
     17 N          52.3900   30.6230   21.4210 N.am      1 SEC2        0.0000 
     18 N          50.8590   31.1820   21.1570 N.am      7 SEL2        0.0000 
     19 N          53.9210   30.0640   21.6850 N.am      4 SEP2        0.0000 
     20 NZ         51.8770   28.6050   22.5935 N.4       2 LYC4        0.0000 
     21 NZ         50.5080   28.7010   21.9540 N.4       8 LYL4        0.0000 
     22 NZ         54.2170   29.2150   22.6610 N.4       5 LYP4        0.0000 
     23 N          51.8770   28.6050   22.5935 N.am      1 SEC2        0.0000 
     24 N          50.5080   28.7010   21.9540 N.am      7 SEL2        0.0000 
     25 N          53.2460   28.5090   23.2330 N.am      4 SEP2        0.0000 
     26 N          51.0210   27.3565   21.4975 N.am      1 SEC2        0.0000 
     27 N          51.5340   26.0120   21.0410 N.am      4 SEP2        0.0000 
     28 N          47.3170   29.7340   22.7850 N.am      1 SEC2        0.0000 
     29 N          48.5220   30.2580   21.6320 N.am      7 SEL2        0.0000 
     30 CA         50.4920   29.9460   16.8225 C.3       3 GLC5        0.0000 
     31 CA         49.7390   30.4330   18.6780 C.3       9 GLL5        0.0000 
     32 CA         51.2450   29.4590   14.9670 C.3       6 GLP5        0.0000 
     33 CA         48.7485   30.1260   15.9500 C.3       3 GLC5        0.0000 
     34 CA         48.5360   30.1530   17.7990 C.3       9 GLL5        0.0000 
     35 CA         48.9610   30.0990   14.1010 C.3       6 GLP5        0.0000 
     36 N          45.9060   31.9835   17.7365 N.am      1 SEC2        0.0000 
     37 N          46.5010   31.1800   18.7020 N.am      7 SEL2        0.0000 
     38 N          45.3110   32.7870   16.7710 N.am      4 SEP2        0.0000 
     39 N          45.0390   30.8165   19.0355 N.am      1 SEC2        0.0000 
     40 N          43.5770   30.4530   19.3690 N.am      4 SEP2        0.0000 
     41 CA         48.2835   29.1180   15.5760 C.3       3 GLC5        0.0000 
     42 CA         47.6060   28.1370   17.0510 C.3       9 GLL5        0.0000 
     43 CA         49.5525   22.8465   16.8175 C.3       3 GLC5        0.0000 
     44 CA         47.8420   23.2250   17.8040 C.3       9 GLL5        0.0000 
     45 CA         51.2630   22.4680   15.8310 C.3       6 GLP5        0.0000 
     46 CA         44.9320   22.9455   15.1610 C.3       3 GLC5        0.0000 
     47 CA         46.7830   23.9270   15.8000 C.3       9 GLL5        0.0000 
     48 CA         43.0810   21.9640   14.5220 C.3       6 GLP5        0.0000 
     49 CA         46.2710   24.8575   14.1765 C.3       3 GLC5        0.0000 
     50 CA         45.7590   25.7880   12.5530 C.3       6 GLP5        0.0000 
     51 CA         45.0430   25.0355   16.3050 C.3       3 GLC5        0.0000 
     52 CA         43.3030   26.1440   16.8100 C.3       6 GLP5        0.0000 
     53 N          45.6750   25.5980   15.3105 N.am      1 SEC2        0.0000 
     54 N          46.9600   25.2470   16.0440 N.am      7 SEL2        0.0000 
     55 N          44.3900   25.9490   14.5770 N.am      4 SEP2        0.0000 
     56 CA         45.4440   25.9035   16.9965 C.3       3 GLC5        0.0000 
     57 CA         47.5850   25.6630   17.1830 C.3       9 GLL5        0.0000 
     58 CA         50.0463   31.9000   17.1528 C.3       3 GLC5        0.0000 
     59 CA         50.9550   33.5070   16.0670 C.3       6 GLP5        0.0000 
     60 CA         46.3558   28.8435   19.9398 C.3       3 GLC5        0.0000 
     61 CA         47.2360   29.9560   18.5620 C.3       9 GLL5        0.0000 
     62 CA         45.8410   28.2420   21.7390 C.3       6 GLP5        0.0000 
     63 CA         45.3093   27.9967   17.4495 C.3       3 GLC5        0.0000 
     64 CA         46.5050   28.9340   17.7190 C.3       9 GLL5        0.0000 
     65 CA         43.5630   27.4580   17.5140 C.3       6 GLP5        0.0000 
     66 CA         49.5053   25.0650   16.7702 C.3       3 GLC5        0.0000 
     67 CA         51.1820   24.9690   15.8750 C.3       6 GLP5        0.0000 
@<TRIPOS>BOND
@<TRIPOS>SUBSTRUCTURE
     1 SEC2        4 GROUP        1 X    SEC  0     ROOT SEC X 2
     2 LYC4        1 GROUP        1 X    LYC  0     **** LYC X 4
     3 GLC5       30 GROUP        1 X    GLC  0     **** GLC X 6
     4 SEP2        6 GROUP        1 Y    SEP  0     ROOT SEP Y 9
     5 LYP4        3 GROUP        1 Y    LYP  0     **** LYP Y 11
     6 GLP5       32 GROUP        1 Y    GLP  0     **** GLP Y 13
     7 SEL2        5 GROUP        1 Z    SEL  0     ROOT SEL Z 16
     8 LYL4        2 GROUP        1 Z    LYL  0     **** LYL Z 18
     9 GLL5       31 GROUP        1 Z    GLL  0     **** GLL Z 20
@<TRIPOS>SET

