#    Name: 4dz6_ADP_2_ligand
#    Modification time : Tue Mar 25 10:25:45 2014

@<TRIPOS>MOLECULE
4dz6_ADP_2_ligand
   39    41     1     0     0
SMALL
NO_CHARGES


@<TRIPOS>ATOM
      1 PB         47.9340   31.7520   21.8720 P.3       1 ADP1001     0.0000 
      2 O1B        47.7030   32.2990   20.4820 O.co2     1 ADP1001     0.0000 
      3 O2B        46.6860   31.5030   22.6990 O.co2     1 ADP1001     0.0000 
      4 O3B        49.0160   32.4670   22.6570 O.co2     1 ADP1001     0.0000 
      5 PA         50.0370   29.9080   21.1810 P.3       1 ADP1001     0.0000 
      6 O1A        50.8590   31.1820   21.1570 O.co2     1 ADP1001     0.0000 
      7 O2A        50.5080   28.7010   21.9540 O.co2     1 ADP1001     0.0000 
      8 O3A        48.5220   30.2580   21.6320 O.3       1 ADP1001     0.0000 
      9 O5'        49.8340   29.4160   19.6650 O.3       1 ADP1001     0.0000 
     10 C5'        49.7390   30.4330   18.6780 C.3       1 ADP1001     0.0000 
     11 C4'        48.5360   30.1530   17.7990 C.3       1 ADP1001     0.0000 
     12 O4'        48.7920   28.9200   17.1320 O.3       1 ADP1001     0.0000 
     13 C3'        47.2360   29.9560   18.5620 C.3       1 ADP1001     0.0000 
     14 O3'        46.5010   31.1800   18.7020 O.3       1 ADP1001     0.0000 
     15 C2'        46.5050   28.9340   17.7190 C.3       1 ADP1001     0.0000 
     16 O2'        45.7550   29.5990   16.6830 O.3       1 ADP1001     0.0000 
     17 C1'        47.6060   28.1370   17.0510 C.3       1 ADP1001     0.0000 
     18 N9         47.8920   26.8470   17.7110 N.pl3     1 ADP1001     0.0000 
     19 C8         48.5230   26.6630   18.8860 C.2       1 ADP1001     0.0000 
     20 N7         48.6270   25.3440   19.1680 N.2       1 ADP1001     0.0000 
     21 C5         48.0720   24.6590   18.1480 C.ar      1 ADP1001     0.0000 
     22 C6         47.8420   23.2250   17.8040 C.ar      1 ADP1001     0.0000 
     23 N6         48.2520   22.2390   18.6420 N.pl3     1 ADP1001     0.0000 
     24 N1         47.1960   22.9490   16.6360 N.ar      1 ADP1001     0.0000 
     25 C2         46.7830   23.9270   15.8000 C.ar      1 ADP1001     0.0000 
     26 N3         46.9600   25.2470   16.0440 N.ar      1 ADP1001     0.0000 
     27 C4         47.5850   25.6630   17.1830 C.ar      1 ADP1001     0.0000 
     28 H          50.6262   30.4638   18.0374 H         1 ADP1001     0.0000 
     29 H          49.6084   31.4239   19.1246 H         1 ADP1001     0.0000 
     30 H          48.4155   30.9421   17.0902 H         1 ADP1001     0.0000 
     31 H          47.4773   29.4977   19.4996 H         1 ADP1001     0.0000 
     32 H          45.9336   28.3097   18.3199 H         1 ADP1001     0.0000 
     33 H          47.3421   27.9753   16.0212 H         1 ADP1001     0.0000 
     34 H          48.8610   27.3815   19.4593 H         1 ADP1001     0.0000 
     35 H          48.7116   22.5358   19.4791 H         1 ADP1001     0.0000 
     36 H          48.0582   21.3030   18.3482 H         1 ADP1001     0.0000 
     37 H          46.2903   23.6447   14.8978 H         1 ADP1001     0.0000 
     38 H          47.1727   31.8506   19.0166 H         1 ADP1001     0.0000 
     39 H          45.6491   30.5402   17.0038 H         1 ADP1001     0.0000 
@<TRIPOS>BOND
     1    2    1 ar   
     2    3    1 ar   
     3    4    1 ar   
     4    8    1 1    
     5    6    5 ar   
     6    7    5 ar   
     7    8    5 1    
     8    9    5 1    
     9   10    9 1    
    10   11   10 1    
    11   28   10 1    
    12   29   10 1    
    13   12   11 1    
    14   13   11 1    
    15   30   11 1    
    16   17   12 1    
    17   14   13 1    
    18   15   13 1    
    19   31   13 1    
    20   38   14 1    
    21   16   15 1    
    22   17   15 1    
    23   32   15 1    
    24   39   16 1    
    25   18   17 1    
    26   33   17 1    
    27   19   18 1    
    28   27   18 1    
    29   20   19 2    
    30   34   19 1    
    31   21   20 1    
    32   22   21 ar   
    33   27   21 ar   
    34   23   22 1    
    35   24   22 ar   
    36   35   23 1    
    37   36   23 1    
    38   25   24 ar   
    39   26   25 ar   
    40   37   25 1    
    41   27   26 ar   
@<TRIPOS>SUBSTRUCTURE
     1 ADP1001     1 GROUP   
@<TRIPOS>SET

