#    Name: 1OG1_1_CAVITY_N1_ALL.mol2
#    Modification time : Mon Mar 10 22:12:37 2014

@<TRIPOS>MOLECULE
1OG1_1_CAVITY_N1_ALL.mol2
  117     0     6     0     0
SMALL
NO_CHARGES


@<TRIPOS>ATOM
      1 N          57.7049   22.2878   18.3277 N.2       2 ALA2        0.0000 
      2 N          56.4771   21.4970   17.9855 N.2       2 ALA2        0.0000 
      3 N          55.2493   20.7063   17.6432 N.2       2 ALA2        0.0000 
      4 CA         58.5752   22.7407   20.7334 C.3       5 GLY6        0.0000 
      5 DU         58.1716   23.7949   19.7457 H         6 CUB7        0.0000 
      6 DU         57.7679   24.8492   18.7580 H         6 CUB7        0.0000 
      7 N          57.3474   21.9499   20.3912 N.2       2 ALA2        0.0000 
      8 DU         56.9437   23.0042   19.4035 H         6 CUB7        0.0000 
      9 CZ         56.1196   21.1591   20.0489 C.ar      4 PHE5        0.0000 
     10 CZ         55.7159   22.2134   19.0612 C.ar      4 PHE5        0.0000 
     11 CZ         54.4881   21.4226   18.7190 C.ar      4 PHE5        0.0000 
     12 O          57.8140   23.4571   21.8092 O.2       2 ALA2        0.0000 
     13 O          57.4103   24.5113   20.8215 O.2       2 ALA2        0.0000 
     14 O          57.0066   25.5656   19.8338 O.2       2 ALA2        0.0000 
     15 DU         56.6029   26.6199   18.8461 H         6 CUB7        0.0000 
     16 N          56.5862   22.6663   21.4670 N.2       2 ALA2        0.0000 
     17 O          56.1825   23.7206   20.4793 O.2       2 ALA2        0.0000 
     18 DU         55.7788   24.7748   19.4916 H         6 CUB7        0.0000 
     19 CA         55.3751   25.8291   18.5039 C.3       5 GLY6        0.0000 
     20 CZ         55.7620   20.8213   22.1124 C.ar      4 PHE5        0.0000 
     21 CZ         55.3584   21.8755   21.1247 C.ar      4 PHE5        0.0000 
     22 DU         54.9547   22.9298   20.1370 H         6 CUB7        0.0000 
     23 DU         54.5510   23.9841   19.1493 H         6 CUB7        0.0000 
     24 CA         54.1473   25.0383   18.1616 C.3       5 GLY6        0.0000 
     25 CZ         53.7268   22.1390   19.7948 C.ar      4 PHE5        0.0000 
     26 DU         53.3231   23.1933   18.8071 H         6 CUB7        0.0000 
     27 CA         52.9194   24.2476   17.8194 C.3       5 GLY6        0.0000 
     28 CZ         52.4990   21.3483   19.4526 C.ar      4 PHE5        0.0000 
     29 DU         52.0953   22.4025   18.4649 H         6 CUB7        0.0000 
     30 CZ         51.2712   20.5575   19.1104 C.ar      4 PHE5        0.0000 
     31 DU         50.8675   21.6118   18.1227 H         6 CUB7        0.0000 
     32 O          56.2454   26.2820   20.9096 O.2       2 ALA2        0.0000 
     33 O          56.2287   22.3284   23.5305 O.2       2 ALA2        0.0000 
     34 O          55.8250   23.3827   22.5428 O.2       2 ALA2        0.0000 
     35 O          55.4213   24.4369   21.5551 O.2       2 ALA2        0.0000 
     36 O          55.0176   25.4912   20.5674 O.2       2 ALA2        0.0000 
     37 CA         54.6139   26.5455   19.5797 C.3       5 GLY6        0.0000 
     38 N          55.4045   20.4834   24.1759 N.2       2 ALA2        0.0000 
     39 CZ         55.0008   21.5376   23.1882 C.ar      4 PHE5        0.0000 
     40 O          54.5971   22.5919   22.2005 O.2       2 ALA2        0.0000 
     41 DU         54.1934   23.6462   21.2128 H         6 CUB7        0.0000 
     42 DU         53.7898   24.7004   20.2251 H         6 CUB7        0.0000 
     43 CA         53.3861   25.7547   19.2374 C.3       5 GLY6        0.0000 
     44 CZ         54.1767   19.6926   23.8337 C.ar      4 PHE5        0.0000 
     45 CZ         53.7730   20.7469   22.8460 C.ar      4 PHE5        0.0000 
     46 CZ         53.3693   21.8011   21.8583 C.ar      4 PHE5        0.0000 
     47 CZ         52.9656   22.8554   20.8706 C.ar      4 PHE5        0.0000 
     48 DU         52.5619   23.9097   19.8829 H         6 CUB7        0.0000 
     49 CA         52.1582   24.9640   18.8952 C.3       5 GLY6        0.0000 
     50 CA         51.7545   26.0182   17.9075 C.3       5 GLY6        0.0000 
     51 CZ         51.7378   22.0646   20.5284 C.ar      4 PHE5        0.0000 
     52 DU         51.3341   23.1189   19.5407 H         6 CUB7        0.0000 
     53 DU         50.9304   24.1732   18.5530 H         6 CUB7        0.0000 
     54 CZ         50.5099   21.2739   20.1862 C.ar      4 PHE5        0.0000 
     55 DU         50.1063   22.3282   19.1985 H         6 CUB7        0.0000 
     56 DU         49.7026   23.3824   18.2108 H         6 CUB7        0.0000 
     57 O          49.2821   20.4831   19.8440 O.2       2 ALA2        0.0000 
     58 DU         48.8784   21.5374   18.8563 H         6 CUB7        0.0000 
     59 O          48.0543   19.6924   19.5017 O.2       2 ALA2        0.0000 
     60 DU         47.6506   20.7466   18.5140 H         6 CUB7        0.0000 
     61 O          54.6601   25.1533   22.6309 O.2       2 ALA2        0.0000 
     62 O          54.2564   26.2076   21.6432 O.2       2 ALA2        0.0000 
     63 O          53.8527   27.2619   20.6555 O.2       2 ALA2        0.0000 
     64 N          54.6433   21.1998   25.2517 N.2       2 ALA2        0.0000 
     65 CA         54.2396   22.2540   24.2640 C.3       5 GLY6        0.0000 
     66 CA         53.8359   23.3083   23.2763 C.3       5 GLY6        0.0000 
     67 CA         53.4322   24.3626   22.2886 C.3       5 GLY6        0.0000 
     68 DU         53.0285   25.4168   21.3009 H         6 CUB7        0.0000 
     69 CA         52.6248   26.4711   20.3132 C.3       5 GLY6        0.0000 
     70 CA         52.2211   27.5254   19.3255 C.3       5 GLY6        0.0000 
     71 O          53.8192   19.3547   25.8972 O.2       2 ALA2        0.0000 
     72 CA         53.4155   20.4090   24.9095 C.3       5 GLY6        0.0000 
     73 CA         53.0118   21.4633   23.9218 C.3       5 GLY6        0.0000 
     74 CA         52.6081   22.5175   22.9341 C.3       5 GLY6        0.0000 
     75 OG         52.2044   23.5718   21.9464 O.2       1 SER1        0.0000 
     76 DU         51.8007   24.6261   20.9587 H         6 CUB7        0.0000 
     77 CA         51.3970   25.6803   19.9710 C.3       5 GLY6        0.0000 
     78 CA         50.9933   26.7346   18.9833 C.3       5 GLY6        0.0000 
     79 CA         52.5913   18.5640   25.5550 C.3       5 GLY6        0.0000 
     80 CZ         52.1876   19.6182   24.5673 C.ar      4 PHE5        0.0000 
     81 CZ         51.7839   20.6725   23.5796 C.ar      4 PHE5        0.0000 
     82 CZ         51.3802   21.7268   22.5919 C.ar      4 PHE5        0.0000 
     83 DU         50.9766   22.7810   21.6042 H         6 CUB7        0.0000 
     84 DU         50.5729   23.8353   20.6165 H         6 CUB7        0.0000 
     85 CA         50.1692   24.8896   19.6288 C.3       5 GLY6        0.0000 
     86 CA         49.7655   25.9438   18.6411 C.3       5 GLY6        0.0000 
     87 N          50.1524   20.9360   22.2497 N.2       2 ALA2        0.0000 
     88 N          49.7487   21.9903   21.2620 N.2       2 ALA2        0.0000 
     89 DU         49.3450   23.0445   20.2743 H         6 CUB7        0.0000 
     90 N          48.9413   24.0988   19.2866 N.2       2 ALA2        0.0000 
     91 N          48.5376   25.1531   18.2989 N.2       2 ALA2        0.0000 
     92 N          48.5209   21.1995   20.9197 N.2       2 ALA2        0.0000 
     93 N          48.1172   22.2538   19.9320 N.2       2 ALA2        0.0000 
     94 N          47.7135   23.3080   18.9443 N.2       2 ALA2        0.0000 
     95 N          47.2931   20.4087   20.5775 N.2       2 ALA2        0.0000 
     96 N          46.8894   21.4630   19.5898 N.2       2 ALA2        0.0000 
     97 N          46.4857   22.5173   18.6021 N.2       2 ALA2        0.0000 
     98 OG         53.4951   26.9240   22.7190 O.2       1 SER1        0.0000 
     99 OG         52.2673   26.1332   22.3767 O.2       1 SER1        0.0000 
    100 CA         51.8636   27.1875   21.3890 C.3       5 GLY6        0.0000 
    101 O          52.6542   21.1254   25.9853 O.2       2 ALA2        0.0000 
    102 OG         51.0395   25.3425   22.0345 O.2       1 SER1        0.0000 
    103 N          51.4264   20.3346   25.6431 N.2       2 ALA2        0.0000 
    104 CA         51.0227   21.3889   24.6554 C.3       5 GLY6        0.0000 
    105 CA         50.6190   22.4431   23.6677 C.3       5 GLY6        0.0000 
    106 OG         50.2153   23.4974   22.6800 O.2       1 SER1        0.0000 
    107 DU         49.8116   24.5517   21.6923 H         6 CUB7        0.0000 
    108 CA         49.4080   25.6060   20.7046 C.3       5 GLY6        0.0000 
    109 N          49.3912   21.6524   23.3255 N.2       2 ALA2        0.0000 
    110 N          48.9875   22.7067   22.3378 N.2       2 ALA2        0.0000 
    111 N          48.5838   23.7609   21.3501 N.2       2 ALA2        0.0000 
    112 N          48.1801   24.8152   20.3624 N.2       2 ALA2        0.0000 
    113 N          47.7597   21.9159   21.9955 N.2       2 ALA2        0.0000 
    114 NZ         49.4541   24.2138   23.7558 N.2       3 LYS4        0.0000 
    115 N          49.0504   25.2681   22.7681 N.2       2 ALA2        0.0000 
    116 NZ         48.2263   23.4230   23.4136 N.2       3 LYS4        0.0000 
    117 CA         47.8226   24.4773   22.4259 C.3       5 GLY6        0.0000 
@<TRIPOS>BOND
@<TRIPOS>SUBSTRUCTURE
     1 SER1       75 GROUP   
     2 ALA2        1 GROUP   
     3 LYS4      114 GROUP   
     4 PHE5        9 GROUP   
     5 GLY6        4 GROUP   
     6 CUB7        5 GROUP   
@<TRIPOS>SET

