#    Name: 1og1_TAD_1_INTS_M
#    Modification time : Mon Mar 24 20:04:59 2014

@<TRIPOS>MOLECULE
1og1_TAD_1_INTS_M
   65     0    12     0     0
SMALL
NO_CHARGES


@<TRIPOS>ATOM
      1 N          54.4350   29.7485   21.3750 N.am      2 SEC2        0.0000 
      2 N          55.4280   29.3280   20.2620 N.am     10 SEL2        0.0000 
      3 N          53.4420   30.1690   22.4880 N.am      6 SEP2        0.0000 
      4 NZ         57.4065   26.5865   22.3305 N.4       3 LYC4        0.0000 
      5 NZ         56.9920   27.4150   21.3220 N.4      11 LYL4        0.0000 
      6 NZ         57.5910   25.1050   24.4750 N.4       7 LYP4        0.0000 
      7 N          57.4065   26.5865   22.3305 N.am      2 SEC2        0.0000 
      8 N          56.9920   27.4150   21.3220 N.am     10 SEL2        0.0000 
      9 N          57.8210   25.7580   23.3390 N.am      6 SEP2        0.0000 
     10 N          61.6810   25.7450   16.8175 N.am      2 SEC2        0.0000 
     11 N          60.2380   26.3910   16.9800 N.am     10 SEL2        0.0000 
     12 N          63.1240   25.0990   16.6550 N.am      6 SEP2        0.0000 
     13 CA         63.9915   31.5565   18.6630 C.3       4 GLC5        0.0000 
     14 CA         62.8730   32.5520   19.2250 C.3      12 GLL5        0.0000 
     15 CA         65.1100   30.5610   18.1010 C.3       8 GLP5        0.0000 
     16 CA         61.7235   33.6670   19.8685 C.3       4 GLC5        0.0000 
     17 CA         60.5740   34.7820   20.5120 C.3       8 GLP5        0.0000 
     18 CA         53.7335   27.3135   18.6010 C.3       4 GLC5        0.0000 
     19 CA         54.3770   26.7410   20.3960 C.3      12 GLL5        0.0000 
     20 CA         53.0900   27.8860   16.8060 C.3       8 GLP5        0.0000 
     21 NZ         56.2150   26.1280   23.1200 N.4       3 LYC4        0.0000 
     22 NZ         54.6090   26.4980   22.9010 N.4      11 LYL4        0.0000 
     23 N          55.4910   25.5415   23.8080 N.am      2 SEC2        0.0000 
     24 N          54.6090   26.4980   22.9010 N.am     10 SEL2        0.0000 
     25 N          56.3730   24.5850   24.7150 N.am      6 SEP2        0.0000 
     26 N          56.2150   26.1280   23.1200 N.am      2 SEC2        0.0000 
     27 NZ         56.6370   25.1785   22.2535 N.4       3 LYC4        0.0000 
     28 NZ         55.4530   24.5990   21.1680 N.4      11 LYL4        0.0000 
     29 N          56.6370   25.1785   22.2535 N.am      2 SEC2        0.0000 
     30 N          55.4530   24.5990   21.1680 N.am     10 SEL2        0.0000 
     31 N          48.5275   22.8665   24.6505 N.am      2 SEC2        0.0000 
     32 N          48.9260   23.1240   23.4740 N.am     10 SEL2        0.0000 
     33 N          48.1290   22.6090   25.8270 N.am      6 SEP2        0.0000 
     34 CA         51.8095   20.5920   21.6675 C.3       4 GLC5        0.0000 
     35 CA         50.8800   22.1520   22.4280 C.3      12 GLL5        0.0000 
     36 CA         52.7390   19.0320   20.9070 C.3       8 GLP5        0.0000 
     37 CA         53.6680   20.7855   26.9825 C.3       4 GLC5        0.0000 
     38 CA         52.9310   20.0330   25.2450 C.3      12 GLL5        0.0000 
     39 CA         54.4050   21.5380   28.7200 C.3       8 GLP5        0.0000 
     40 CA         52.9455   18.5815   26.8965 C.3       4 GLC5        0.0000 
     41 CA         52.9600   17.1300   28.5480 C.3       8 GLP5        0.0000 
     42 CA         51.8110   22.3535   25.2965 C.3       4 GLC5        0.0000 
     43 CA         51.1970   20.5000   24.9180 C.3      12 GLL5        0.0000 
     44 CA         52.4250   24.2070   25.6750 C.3       8 GLP5        0.0000 
     45 CA         49.8655   18.8955   24.9550 C.3       4 GLC5        0.0000 
     46 CA         48.5340   17.2910   24.9920 C.3       8 GLP5        0.0000 
     47 CA         49.8770   20.6610   26.4500 C.3       4 GLC5        0.0000 
     48 CA         48.5570   20.8220   27.9820 C.3       8 GLP5        0.0000 
     49 N          57.3230   19.4115   25.0010 N.am      2 SEC2        0.0000 
     50 N          55.7710   19.4260   24.8750 N.am     10 SEL2        0.0000 
     51 N          58.8750   19.3970   25.1270 N.am      6 SEP2        0.0000 
     52 O          57.3340   21.0195   23.1815 O.2       1 ALC1        0.0000 
     53 O          55.9150   21.2520   23.5560 O.2       9 ALL1        0.0000 
     54 O          58.7530   20.7870   22.8070 O.2       5 ALP1        0.0000 
     55 CA         61.7566   28.9185   18.3766 C.3       4 GLC5        0.0000 
     56 CA         59.9360   27.5660   17.7340 C.3      12 GLL5        0.0000 
     57 CA         63.6460   28.8220   19.2440 C.3       8 GLP5        0.0000 
     58 CA         62.5084   29.9674   19.7304 C.3       4 GLC5        0.0000 
     59 CA         61.1950   30.8980   20.7510 C.3      12 GLL5        0.0000 
     60 CA         60.9724   32.9474   20.3644 C.3       4 GLC5        0.0000 
     61 CA         61.0630   30.9380   19.3690 C.3      12 GLL5        0.0000 
     62 CA         51.4800   23.5012   24.1653 C.3       4 GLC5        0.0000 
     63 CA         50.1900   23.4390   22.8830 C.3      12 GLL5        0.0000 
     64 CA         52.8775   22.2630   25.2333 C.3       4 GLC5        0.0000 
     65 CA         53.7290   20.6050   24.3380 C.3      12 GLL5        0.0000 
@<TRIPOS>BOND
@<TRIPOS>SUBSTRUCTURE
     1 ALC1       52 GROUP        1 X    ALC  0     ROOT ALC X 1
     2 SEC2        1 GROUP        1 X    SEC  0     **** SEC X 2
     3 LYC4        4 GROUP        1 X    LYC  0     **** LYC X 4
     4 GLC5       13 GROUP        1 X    GLC  0     **** GLC X 6
     5 ALP1       54 GROUP        1 Y    ALP  0     ROOT ALP Y 8
     6 SEP2        3 GROUP        1 Y    SEP  0     **** SEP Y 9
     7 LYP4        6 GROUP        1 Y    LYP  0     **** LYP Y 11
     8 GLP5       15 GROUP        1 Y    GLP  0     **** GLP Y 13
     9 ALL1       53 GROUP        1 Z    ALL  0     ROOT ALL Z 15
    10 SEL2        2 GROUP        1 Z    SEL  0     **** SEL Z 16
    11 LYL4        5 GROUP        1 Z    LYL  0     **** LYL Z 18
    12 GLL5       14 GROUP        1 Z    GLL  0     **** GLL Z 20
@<TRIPOS>SET

