#    Name: 1og1_TAD_1_ligand
#    Modification time : Mon Mar 24 20:04:59 2014

@<TRIPOS>MOLECULE
1og1_TAD_1_ligand
   68    72     1     0     0
SMALL
NO_CHARGES


@<TRIPOS>ATOM
      1 PA         55.8170   27.7850   20.5050 P.3       1 TAD1227     0.0000 
      2 O1A        55.4280   29.3280   20.2620 O.co2     1 TAD1227     0.0000 
      3 O2A        56.9920   27.4150   21.3220 O.co2     1 TAD1227     0.0000 
      4 O5B        56.3940   27.5380   19.0190 O.3       1 TAD1227     0.0000 
      5 C5B        57.7370   27.0760   18.8520 C.3       1 TAD1227     0.0000 
      6 C4B        58.4270   27.8160   17.7030 C.3       1 TAD1227     0.0000 
      7 O4B        58.2650   29.2440   17.7840 O.3       1 TAD1227     0.0000 
      8 C3B        59.9360   27.5660   17.7340 C.3       1 TAD1227     0.0000 
      9 O3B        60.2380   26.3910   16.9800 O.3       1 TAD1227     0.0000 
     10 C2B        60.4010   28.7920   16.9530 C.3       1 TAD1227     0.0000 
     11 O2B        59.9840   28.6840   15.5880 O.3       1 TAD1227     0.0000 
     12 C1B        59.5660   29.8510   17.6750 C.3       1 TAD1227     0.0000 
     13 N9A        60.0790   30.1040   19.0430 N.pl3     1 TAD1227     0.0000 
     14 C8A        59.6120   29.5640   20.1660 C.2       1 TAD1227     0.0000 
     15 N7A        60.2870   30.0430   21.2090 N.2       1 TAD1227     0.0000 
     16 C5A        61.1950   30.8980   20.7510 C.ar      1 TAD1227     0.0000 
     17 C6A        62.1620   31.6770   21.3780 C.ar      1 TAD1227     0.0000 
     18 N6A        62.2970   31.6310   22.6990 N.pl3     1 TAD1227     0.0000 
     19 N1A        63.0000   32.5040   20.6190 N.ar      1 TAD1227     0.0000 
     20 C2A        62.8730   32.5520   19.2250 C.ar      1 TAD1227     0.0000 
     21 N3A        61.8980   31.7620   18.6030 N.ar      1 TAD1227     0.0000 
     22 C4A        61.0630   30.9380   19.3690 C.ar      1 TAD1227     0.0000 
     23 C3         54.3770   26.7410   20.3960 C.3       1 TAD1227     0.0000 
     24 PN         54.3840   25.4890   21.6670 P.3       1 TAD1227     0.0000 
     25 O1N        54.6090   26.4980   22.9010 O.co2     1 TAD1227     0.0000 
     26 O2N        55.4530   24.5990   21.1680 O.co2     1 TAD1227     0.0000 
     27 O5D        52.8270   25.0660   21.6280 O.3       1 TAD1227     0.0000 
     28 C5D        52.1580   24.7350   20.4090 C.3       1 TAD1227     0.0000 
     29 C4D        51.0970   23.6630   20.6670 C.3       1 TAD1227     0.0000 
     30 O4D        51.7410   22.5840   21.3630 O.3       1 TAD1227     0.0000 
     31 C3D        49.9400   24.1380   21.5480 C.3       1 TAD1227     0.0000 
     32 O3D        48.6890   23.7180   20.9970 O.3       1 TAD1227     0.0000 
     33 C2D        50.1900   23.4390   22.8830 C.3       1 TAD1227     0.0000 
     34 O2D        48.9260   23.1240   23.4740 O.3       1 TAD1227     0.0000 
     35 C1D        50.8800   22.1520   22.4280 C.3       1 TAD1227     0.0000 
     36 C2N        51.7590   21.4730   23.4840 C.2       1 TAD1227     0.0000 
     37 N3N        53.0870   21.3570   23.4330 N.2       1 TAD1227     0.0000 
     38 C4N        53.7290   20.6050   24.3380 C.2       1 TAD1227     0.0000 
     39 C5N        52.9310   20.0330   25.2450 C.2       1 TAD1227     0.0000 
     40 S1N        51.1970   20.5000   24.9180 S.3       1 TAD1227     0.0000 
     41 C6N        55.2420   20.3740   24.2950 C.2       1 TAD1227     0.0000 
     42 O6N        55.7710   19.4260   24.8750 O.2       1 TAD1227     0.0000 
     43 N6N        55.9150   21.2520   23.5560 N.am      1 TAD1227     0.0000 
     44 H          57.7709   26.0007   18.6231 H         1 TAD1227     0.0000 
     45 H          58.3374   27.2368   19.7594 H         1 TAD1227     0.0000 
     46 H          58.0566   27.4398   16.7651 H         1 TAD1227     0.0000 
     47 H          60.2788   27.6069   18.6885 H         1 TAD1227     0.0000 
     48 H          61.3925   28.9569   17.1249 H         1 TAD1227     0.0000 
     49 H          59.5354   30.7224   17.0954 H         1 TAD1227     0.0000 
     50 H          58.8812   28.9118   20.2180 H         1 TAD1227     0.0000 
     51 H          63.0368   32.1820   23.0852 H         1 TAD1227     0.0000 
     52 H          61.6466   31.0495   23.1878 H         1 TAD1227     0.0000 
     53 H          63.4810   33.1528   18.6715 H         1 TAD1227     0.0000 
     54 H          54.4250   26.2484   19.4836 H         1 TAD1227     0.0000 
     55 H          53.5491   27.3434   20.5670 H         1 TAD1227     0.0000 
     56 H          52.8536   24.3415   19.6575 H         1 TAD1227     0.0000 
     57 H          51.6529   25.6058   19.9731 H         1 TAD1227     0.0000 
     58 H          50.7074   23.3210   19.7303 H         1 TAD1227     0.0000 
     59 H          50.0237   25.1759   21.6872 H         1 TAD1227     0.0000 
     60 H          50.8284   23.9987   23.4562 H         1 TAD1227     0.0000 
     61 H          50.1527   21.4725   22.0604 H         1 TAD1227     0.0000 
     62 H          52.9766   19.4853   25.9731 H         1 TAD1227     0.0000 
     63 H          56.8998   21.0973   23.4770 H         1 TAD1227     0.0000 
     64 H          55.3754   21.9874   23.1462 H         1 TAD1227     0.0000 
     65 H          60.4636   26.7224   16.0638 H         1 TAD1227     0.0000 
     66 H          59.0139   28.9268   15.5939 H         1 TAD1227     0.0000 
     67 H          48.1589   24.5589   20.8885 H         1 TAD1227     0.0000 
     68 H          48.2694   23.1714   22.7211 H         1 TAD1227     0.0000 
@<TRIPOS>BOND
     1    2    1 ar   
     2    3    1 ar   
     3    4    1 1    
     4   23    1 1    
     5    5    4 1    
     6    6    5 1    
     7   44    5 1    
     8   45    5 1    
     9    7    6 1    
    10    8    6 1    
    11   46    6 1    
    12   12    7 1    
    13    9    8 1    
    14   10    8 1    
    15   47    8 1    
    16   65    9 1    
    17   11   10 1    
    18   12   10 1    
    19   48   10 1    
    20   66   11 1    
    21   13   12 1    
    22   49   12 1    
    23   14   13 1    
    24   22   13 1    
    25   15   14 2    
    26   50   14 1    
    27   16   15 1    
    28   17   16 ar   
    29   22   16 ar   
    30   18   17 1    
    31   19   17 ar   
    32   51   18 1    
    33   52   18 1    
    34   20   19 ar   
    35   21   20 ar   
    36   53   20 1    
    37   22   21 ar   
    38   24   23 1    
    39   54   23 1    
    40   55   23 1    
    41   25   24 ar   
    42   26   24 ar   
    43   27   24 1    
    44   28   27 1    
    45   29   28 1    
    46   56   28 1    
    47   57   28 1    
    48   30   29 1    
    49   31   29 1    
    50   58   29 1    
    51   35   30 1    
    52   32   31 1    
    53   33   31 1    
    54   59   31 1    
    55   67   32 1    
    56   34   33 1    
    57   35   33 1    
    58   60   33 1    
    59   68   34 1    
    60   36   35 1    
    61   61   35 1    
    62   37   36 2    
    63   40   36 1    
    64   38   37 1    
    65   39   38 2    
    66   41   38 1    
    67   40   39 1    
    68   62   39 1    
    69   42   41 2    
    70   43   41 am   
    71   63   43 1    
    72   64   43 1    
@<TRIPOS>SUBSTRUCTURE
     1 TAD1227     1 GROUP   
@<TRIPOS>SET

