#    Name: 4l7o_1VD_1_INTS_M
#    Modification time : Tue Mar 25 09:52:27 2014

@<TRIPOS>MOLECULE
4l7o_1VD_1_INTS_M
   59     0     9     0     0
SMALL
NO_CHARGES


@<TRIPOS>ATOM
      1 CA         27.5595    0.1765   11.2980 C.3       3 GLC5        0.0000 
      2 CA         26.0140    1.2620   10.0830 C.3       9 GLL5        0.0000 
      3 CA         29.1050   -0.9090   12.5130 C.3       6 GLP5        0.0000 
      4 CA         26.2040   -2.5665   12.8250 C.3       3 GLC5        0.0000 
      5 CA         24.2980   -1.9020   12.5870 C.3       9 GLL5        0.0000 
      6 CA         28.1100   -3.2310   13.0630 C.3       6 GLP5        0.0000 
      7 CA         23.9445   -0.3565   16.2200 C.3       3 GLC5        0.0000 
      8 CA         23.8220   -0.1010   14.1340 C.3       9 GLL5        0.0000 
      9 CA         24.0670   -0.6120   18.3060 C.3       6 GLP5        0.0000 
     10 CA         25.1430   -4.4510   16.2750 C.3       3 GLC5        0.0000 
     11 CA         23.9630   -3.1890   15.3890 C.3       9 GLL5        0.0000 
     12 CA         26.3230   -5.7130   17.1610 C.3       6 GLP5        0.0000 
     13 CA         25.8610   -2.2065   15.0200 C.3       3 GLC5        0.0000 
     14 CA         27.7590   -1.2240   14.6510 C.3       6 GLP5        0.0000 
     15 CA         18.2825   -2.2895   13.2580 C.3       3 GLC5        0.0000 
     16 CA         18.6310   -4.3470   13.2760 C.3       9 GLL5        0.0000 
     17 CA         17.9340   -0.2320   13.2400 C.3       6 GLP5        0.0000 
     18 CA         17.3035   -5.0220   14.6230 C.3       3 GLC5        0.0000 
     19 CA         15.9760   -5.6970   15.9700 C.3       6 GLP5        0.0000 
     20 CA         15.2405   -7.4635    8.6790 C.3       3 GLC5        0.0000 
     21 CA         15.4880   -8.1670   10.6870 C.3       9 GLL5        0.0000 
     22 CA         14.9930   -6.7600    6.6710 C.3       6 GLP5        0.0000 
     23 CA         14.0370   -9.7610   11.2210 C.3       3 GLC5        0.0000 
     24 CA         12.5860  -11.3550   11.7550 C.3       6 GLP5        0.0000 
     25 CA         13.7255   -7.5350   11.9215 C.3       3 GLC5        0.0000 
     26 CA         11.9630   -6.9030   13.1560 C.3       6 GLP5        0.0000 
     27 N          14.1660   -4.2575   11.6395 N.am      2 SEC2        0.0000 
     28 N          14.6710   -5.5500   11.3180 N.am      8 SEL2        0.0000 
     29 N          13.6610   -2.9650   11.9610 N.am      5 SEP2        0.0000 
     30 N          13.3685   -5.9340   11.0875 N.am      2 SEC2        0.0000 
     31 N          12.0660   -6.3180   10.8570 N.am      5 SEP2        0.0000 
     32 O          16.2845   -3.9415   12.9395 O.2       1 ALC1        0.0000 
     33 O          16.6420   -5.0620   12.2380 O.2       7 ALL1        0.0000 
     34 O          15.9270   -2.8210   13.6410 O.2       4 ALP1        0.0000 
     35 CA         25.8712    1.9912    8.2613 C.3       3 GLC5        0.0000 
     36 CA         25.2480    2.2600    6.5710 C.3       6 GLP5        0.0000 
     37 CA         27.9703    1.0692    9.4718 C.3       3 GLC5        0.0000 
     38 CA         26.9750    2.1830    9.8200 C.3       9 GLL5        0.0000 
     39 CA         29.4460    0.4160    8.9920 C.3       6 GLP5        0.0000 
     40 CA         26.4252   -0.7875   13.3112 C.3       3 GLC5        0.0000 
     41 CA         25.1540    0.3290   12.1690 C.3       9 GLL5        0.0000 
     42 CA         23.1165    1.5440   14.9772 C.3       3 GLC5        0.0000 
     43 CA         24.5540    0.7730   13.3590 C.3       9 GLL5        0.0000 
     44 CA         22.0450    2.7520   16.2080 C.3       6 GLP5        0.0000 
     45 CA         25.8463   -0.8860   14.2051 C.3       3 GLC5        0.0000 
     46 CA         23.7593   -1.6855   16.6545 C.3       3 GLC5        0.0000 
     47 CA         18.4535   -7.9067   10.0025 C.3       3 GLC5        0.0000 
     48 CA         17.5920   -7.5250   11.6860 C.3       9 GLL5        0.0000 
     49 CA         19.0690   -7.6500    8.4260 C.3       6 GLP5        0.0000 
     50 CA         17.8537   -8.6273    9.5300 C.3       3 GLC5        0.0000 
     51 CA         17.2810   -9.7600   10.8310 C.3       9 GLL5        0.0000 
     52 CA         15.6447  -11.1227   11.5700 C.3       3 GLC5        0.0000 
     53 CA         14.6510  -12.6410   12.5060 C.3       6 GLP5        0.0000 
     54 CA         16.5373  -11.4102    9.7705 C.3       3 GLC5        0.0000 
     55 CA         15.9960   -9.4490   10.4370 C.3       9 GLL5        0.0000 
     56 CA         16.4360  -13.2160    8.9070 C.3       6 GLP5        0.0000 
     57 CA         13.7445   -8.9665    9.8045 C.3       3 GLC5        0.0000 
     58 CA         11.7470   -9.1250    9.0470 C.3       6 GLP5        0.0000 
     59 CA         17.4778   -7.6755    9.7178 C.3       3 GLC5        0.0000 
@<TRIPOS>BOND
@<TRIPOS>SUBSTRUCTURE
     1 ALC1       32 GROUP        1 X    ALC  0     ROOT ALC X 1
     2 SEC2       27 GROUP        1 X    SEC  0     **** SEC X 2
     3 GLC5        1 GROUP        1 X    GLC  0     **** GLC X 6
     4 ALP1       34 GROUP        1 Y    ALP  0     ROOT ALP Y 8
     5 SEP2       29 GROUP        1 Y    SEP  0     **** SEP Y 9
     6 GLP5        3 GROUP        1 Y    GLP  0     **** GLP Y 13
     7 ALL1       33 GROUP        1 Z    ALL  0     ROOT ALL Z 15
     8 SEL2       28 GROUP        1 Z    SEL  0     **** SEL Z 16
     9 GLL5        2 GROUP        1 Z    GLL  0     **** GLL Z 20
@<TRIPOS>SET

