#    Name: 4l7o_1VD_1_ligand
#    Modification time : Tue Mar 25 09:52:27 2014

@<TRIPOS>MOLECULE
4l7o_1VD_1_ligand
   50    53     1     0     0
SMALL
NO_CHARGES


@<TRIPOS>ATOM
      1 CAM        26.0140    1.2620   10.0830 C.2       1 1VD601      0.0000 
      2 CAF        26.9750    2.1830    9.8200 C.2       1 1VD601      0.0000 
      3 NAQ        27.4490    2.6130   11.0100 N.2       1 1VD601      0.0000 
      4 CAN        26.8140    1.9580   11.9850 C.2       1 1VD601      0.0000 
      5 NBC        25.8960    1.1420   11.4250 N.pl3     1 1VD601      0.0000 
      6 CAW        25.1540    0.3290   12.1690 C.ar      1 1VD601      0.0000 
      7 CAJ        25.0290   -1.0310   11.7740 C.ar      1 1VD601      0.0000 
      8 CAH        24.2980   -1.9020   12.5870 C.ar      1 1VD601      0.0000 
      9 CAI        24.5540    0.7730   13.3590 C.ar      1 1VD601      0.0000 
     10 CAG        23.8220   -0.1010   14.1340 C.ar      1 1VD601      0.0000 
     11 CAV        23.6790   -1.4320   13.7720 C.ar      1 1VD601      0.0000 
     12 CBB        22.9400   -2.3290   14.6170 C.3       1 1VD601      0.0000 
     13 CAA        23.9630   -3.1890   15.3890 C.3       1 1VD601      0.0000 
     14 NAS        22.1080   -3.3110   13.8900 N.am      1 1VD601      0.0000 
     15 CAU        20.7890   -3.1700   13.7210 C.2       1 1VD601      0.0000 
     16 OAB        20.1560   -2.1880   14.1100 O.2       1 1VD601      0.0000 
     17 CAO        20.1250   -4.3850   12.9930 C.3       1 1VD601      0.0000 
     18 CAP        18.6310   -4.3470   13.2760 C.3       1 1VD601      0.0000 
     19 CAX        17.9090   -5.3740   12.6200 C.2       1 1VD601      0.0000 
     20 NAR        18.3650   -6.6040   12.3640 N.2       1 1VD601      0.0000 
     21 CAZ        17.5920   -7.5250   11.6860 C.ar      1 1VD601      0.0000 
     22 CAK        18.0840   -8.8020   11.4720 C.ar      1 1VD601      0.0000 
     23 CAD        17.2810   -9.7600   10.8310 C.ar      1 1VD601      0.0000 
     24 CAE        15.9960   -9.4490   10.4370 C.ar      1 1VD601      0.0000 
     25 CAL        15.4880   -8.1670   10.6870 C.ar      1 1VD601      0.0000 
     26 CBA        16.2850   -7.2350   11.3320 C.ar      1 1VD601      0.0000 
     27 CAY        15.8090   -5.9400   11.6010 C.2       1 1VD601      0.0000 
     28 OAC        14.6710   -5.5500   11.3180 O.2       1 1VD601      0.0000 
     29 NAT        16.6420   -5.0620   12.2380 N.am      1 1VD601      0.0000 
     30 H          25.5044    0.7778    9.4248 H         1 1VD601      0.0000 
     31 H          27.2604    2.4710    8.9549 H         1 1VD601      0.0000 
     32 H          26.9780    2.0472   12.9356 H         1 1VD601      0.0000 
     33 H          25.4652   -1.3519   10.9181 H         1 1VD601      0.0000 
     34 H          24.2038   -2.8916   12.3310 H         1 1VD601      0.0000 
     35 H          24.6680    1.7557   13.6430 H         1 1VD601      0.0000 
     36 H          23.3686    0.2395   15.0042 H         1 1VD601      0.0000 
     37 H          22.3575   -1.8192   15.3504 H         1 1VD601      0.0000 
     38 H          22.6303   -4.1358   13.5114 H         1 1VD601      0.0000 
     39 H          20.5539   -5.2906   13.3804 H         1 1VD601      0.0000 
     40 H          20.3062   -4.2911   11.9383 H         1 1VD601      0.0000 
     41 H          18.2633   -3.3381   12.9816 H         1 1VD601      0.0000 
     42 H          18.5013   -4.3991   14.3807 H         1 1VD601      0.0000 
     43 H          19.0292   -9.0557   11.7769 H         1 1VD601      0.0000 
     44 H          17.6660  -10.7018   10.6583 H         1 1VD601      0.0000 
     45 H          15.4091  -10.1437    9.9641 H         1 1VD601      0.0000 
     46 H          14.5378   -7.9288   10.3935 H         1 1VD601      0.0000 
     47 H          16.2772   -4.0870   12.4433 H         1 1VD601      0.0000 
     48 H          24.5425   -3.7207   14.7713 H         1 1VD601      0.0000 
     49 H          24.5709   -2.6280   15.9509 H         1 1VD601      0.0000 
     50 H          23.5141   -3.8391   16.0021 H         1 1VD601      0.0000 
@<TRIPOS>BOND
     1    2    1 2    
     2    5    1 1    
     3   30    1 1    
     4    3    2 1    
     5   31    2 1    
     6    4    3 2    
     7    5    4 1    
     8   32    4 1    
     9    6    5 1    
    10    7    6 ar   
    11    9    6 ar   
    12    8    7 ar   
    13   33    7 1    
    14   11    8 ar   
    15   34    8 1    
    16   10    9 ar   
    17   35    9 1    
    18   11   10 ar   
    19   36   10 1    
    20   12   11 1    
    21   13   12 1    
    22   14   12 1    
    23   37   12 1    
    24   48   13 1    
    25   49   13 1    
    26   50   13 1    
    27   15   14 am   
    28   38   14 1    
    29   16   15 2    
    30   17   15 1    
    31   18   17 1    
    32   39   17 1    
    33   40   17 1    
    34   19   18 1    
    35   41   18 1    
    36   42   18 1    
    37   20   19 2    
    38   29   19 1    
    39   21   20 1    
    40   22   21 ar   
    41   26   21 ar   
    42   23   22 ar   
    43   43   22 1    
    44   24   23 ar   
    45   44   23 1    
    46   25   24 ar   
    47   45   24 1    
    48   26   25 ar   
    49   46   25 1    
    50   27   26 1    
    51   28   27 2    
    52   29   27 am   
    53   47   29 1    
@<TRIPOS>SUBSTRUCTURE
     1 1VD601      1 GROUP   
@<TRIPOS>SET

