#    Name: 4B83_1_CAVITY_N1_6.mol2
#    Modification time : Tue Mar 11 19:08:22 2014

@<TRIPOS>MOLECULE
4B83_1_CAVITY_N1_6.mol2
  145     0     6     0     0
SMALL
NO_CHARGES


@<TRIPOS>ATOM
      1 DU         35.6130   26.5827    6.8337 H         6 CUB7        0.0000 
      2 CZ         37.3400   25.0387    8.0099 C.ar      4 PHE5        0.0000 
      3 OG         36.1800   25.7109    8.6826 O.2       1 SER1        0.0000 
      4 OG         35.0200   26.3830    9.3553 O.2       1 SER1        0.0000 
      5 CZ         37.6068   23.9604    6.2026 C.ar      4 PHE5        0.0000 
      6 DU         36.4468   24.6325    6.8753 H         6 CUB7        0.0000 
      7 DU         35.2867   25.3047    7.5481 H         6 CUB7        0.0000 
      8 CZ         34.1267   25.9769    8.2208 C.ar      4 PHE5        0.0000 
      9 N          36.7135   23.5542    5.0681 N.2       2 ALA2        0.0000 
     10 N          35.5535   24.2264    5.7408 N.2       2 ALA2        0.0000 
     11 N          34.3935   24.8986    6.4135 N.2       2 ALA2        0.0000 
     12 N          35.8202   23.1481    3.9336 N.2       2 ALA2        0.0000 
     13 N          34.6602   23.8203    4.6063 N.2       2 ALA2        0.0000 
     14 OG         32.6145   24.2996   13.9784 O.2       1 SER1        0.0000 
     15 CA         31.4545   24.9718   14.6511 C.3       5 GLY6        0.0000 
     16 CA         30.2945   25.6440   15.3238 C.3       5 GLY6        0.0000 
     17 OG         31.7212   23.8935   12.8438 O.2       1 SER1        0.0000 
     18 NZ         30.5612   24.5657   13.5166 N.2       3 LYS4        0.0000 
     19 OG         29.4012   25.2379   14.1893 O.2       1 SER1        0.0000 
     20 CZ         34.3080   21.4708    9.6912 C.ar      4 PHE5        0.0000 
     21 OG         30.8279   23.4874   11.7093 O.2       1 SER1        0.0000 
     22 OG         29.6679   24.1595   12.3820 O.2       1 SER1        0.0000 
     23 CZ         33.4147   21.0647    8.5567 C.ar      4 PHE5        0.0000 
     24 OG         32.2547   21.7368    9.2294 O.2       1 SER1        0.0000 
     25 OG         31.0947   22.4090    9.9021 O.2       1 SER1        0.0000 
     26 CZ         29.9347   23.0812   10.5748 C.ar      4 PHE5        0.0000 
     27 N          33.6815   19.9863    6.7495 N.2       2 ALA2        0.0000 
     28 CZ         32.5214   20.6585    7.4222 C.ar      4 PHE5        0.0000 
     29 CZ         31.3614   21.3307    8.0949 C.ar      4 PHE5        0.0000 
     30 CZ         30.2014   22.0029    8.7676 C.ar      4 PHE5        0.0000 
     31 O          31.6282   20.2524    6.2877 O.2       2 ALA2        0.0000 
     32 OG         37.0733   26.1170    9.8171 O.2       1 SER1        0.0000 
     33 OG         30.4757   21.1379   16.7942 O.2       1 SER1        0.0000 
     34 OG         30.7424   20.0596   14.9870 O.2       1 SER1        0.0000 
     35 OG         29.5824   20.7318   15.6597 O.2       1 SER1        0.0000 
     36 CA         28.4224   21.4039   16.3324 C.3       5 GLY6        0.0000 
     37 CA         31.0092   18.9812   13.1798 C.3       5 GLY6        0.0000 
     38 CA         29.8492   19.6534   13.8525 C.3       5 GLY6        0.0000 
     39 DU         28.6892   20.3256   14.5252 H         6 CUB7        0.0000 
     40 CA         27.5291   20.9978   15.1979 C.3       5 GLY6        0.0000 
     41 O          30.1159   18.5751   12.0452 O.2       2 ALA2        0.0000 
     42 DU         28.9559   19.2473   12.7180 H         6 CUB7        0.0000 
     43 DU         27.7959   19.9195   13.3907 H         6 CUB7        0.0000 
     44 DU         26.6359   20.5917   14.0634 H         6 CUB7        0.0000 
     45 CZ         25.4759   21.2638   14.7361 C.ar      4 PHE5        0.0000 
     46 CZ         29.2226   18.1690   10.9107 C.ar      4 PHE5        0.0000 
     47 CZ         28.0626   18.8411   11.5834 C.ar      4 PHE5        0.0000 
     48 CA         26.9026   19.5133   12.2562 C.3       5 GLY6        0.0000 
     49 N          25.7426   20.1855   12.9289 N.2       2 ALA2        0.0000 
     50 N          24.5826   20.8577   13.6016 N.2       2 ALA2        0.0000 
     51 CZ         35.5275   23.1549   10.1113 C.ar      4 PHE5        0.0000 
     52 OG         34.3675   23.8271   10.7840 O.2       1 SER1        0.0000 
     53 NZ         33.2075   24.4993   11.4568 N.2       3 LYS4        0.0000 
     54 CZ         34.6342   22.7488    8.9768 C.ar      4 PHE5        0.0000 
     55 OG         33.4742   23.4210    9.6495 O.2       1 SER1        0.0000 
     56 CZ         32.3142   24.0931   10.3222 C.ar      4 PHE5        0.0000 
     57 CZ         36.0610   20.9983    6.4969 C.ar      4 PHE5        0.0000 
     58 CZ         34.9010   21.6704    7.1696 C.ar      4 PHE5        0.0000 
     59 DU         33.7410   22.3426    7.8423 H         6 CUB7        0.0000 
     60 CZ         32.5810   23.0148    8.5150 C.ar      4 PHE5        0.0000 
     61 CZ         31.4209   23.6870    9.1877 C.ar      4 PHE5        0.0000 
     62 N          35.1677   20.5921    5.3624 N.2       2 ALA2        0.0000 
     63 CA         34.0077   21.2643    6.0351 C.3       5 GLY6        0.0000 
     64 CA         32.8477   21.9365    6.7078 C.3       5 GLY6        0.0000 
     65 CA         31.6877   22.6087    7.3805 C.3       5 GLY6        0.0000 
     66 CZ         30.5277   23.2809    8.0532 C.ar      4 PHE5        0.0000 
     67 O          31.9544   21.5303    5.5733 O.2       2 ALA2        0.0000 
     68 CA         30.7944   22.2025    6.2460 C.3       5 GLY6        0.0000 
     69 OG         31.0687   21.3375   14.2726 O.2       1 SER1        0.0000 
     70 OG         29.9087   22.0097   14.9453 O.2       1 SER1        0.0000 
     71 CA         28.7487   22.6819   15.6180 C.3       5 GLY6        0.0000 
     72 OG         30.1754   20.9314   13.1381 O.2       1 SER1        0.0000 
     73 DU         29.0154   21.6036   13.8108 H         6 CUB7        0.0000 
     74 OG         27.8554   22.2758   14.4835 O.2       1 SER1        0.0000 
     75 OG         30.4422   19.8531   11.3309 O.2       1 SER1        0.0000 
     76 DU         29.2822   20.5253   12.0036 H         6 CUB7        0.0000 
     77 CZ         28.1221   21.1974   12.6763 C.ar      4 PHE5        0.0000 
     78 CZ         26.9621   21.8696   13.3490 C.ar      4 PHE5        0.0000 
     79 CZ         28.3889   20.1191   10.8691 C.ar      4 PHE5        0.0000 
     80 CZ         27.2289   20.7913   11.5418 C.ar      4 PHE5        0.0000 
     81 CZ         26.0689   21.4635   12.2145 C.ar      4 PHE5        0.0000 
     82 CZ         36.7470   24.8390   10.5315 C.ar      4 PHE5        0.0000 
     83 CZ         37.0138   23.7607    8.7242 C.ar      4 PHE5        0.0000 
     84 CZ         35.8538   24.4329    9.3969 C.ar      4 PHE5        0.0000 
     85 CZ         34.6937   25.1051   10.0697 C.ar      4 PHE5        0.0000 
     86 NZ         33.5337   25.7773   10.7424 N.2       3 LYS4        0.0000 
     87 CZ         37.2805   22.6824    6.9170 C.ar      4 PHE5        0.0000 
     88 CZ         36.1205   23.3546    7.5897 C.ar      4 PHE5        0.0000 
     89 DU         34.9605   24.0267    8.2624 H         6 CUB7        0.0000 
     90 CZ         33.8005   24.6989    8.9351 C.ar      4 PHE5        0.0000 
     91 CZ         33.1815   23.4278   15.8272 C.ar      4 PHE5        0.0000 
     92 N          32.0215   24.1000   16.5000 N.2       2 ALA2        0.0000 
     93 OG         32.2882   23.0217   14.6927 O.2       1 SER1        0.0000 
     94 OG         31.1282   23.6938   15.3654 O.2       1 SER1        0.0000 
     95 CA         29.9682   24.3660   16.0382 C.3       5 GLY6        0.0000 
     96 OG         30.2349   23.2877   14.2309 O.2       1 SER1        0.0000 
     97 OG         29.0749   23.9599   14.9036 O.2       1 SER1        0.0000 
     98 OG         30.5017   22.2094   12.4237 O.2       1 SER1        0.0000 
     99 OG         29.3417   22.8816   13.0964 O.2       1 SER1        0.0000 
    100 OG         31.9284   20.4589    9.9438 O.2       1 SER1        0.0000 
    101 OG         30.7684   21.1311   10.6165 O.2       1 SER1        0.0000 
    102 CZ         29.6084   21.8032   11.2892 C.ar      4 PHE5        0.0000 
    103 CZ         31.0352   20.0527    8.8093 C.ar      4 PHE5        0.0000 
    104 CZ         29.8752   20.7249    9.4820 C.ar      4 PHE5        0.0000 
    105 CZ         28.7151   21.3971   10.1547 C.ar      4 PHE5        0.0000 
    106 CA         37.5473   21.6041    5.1098 C.3       5 GLY6        0.0000 
    107 CZ         36.3872   22.2762    5.7825 C.ar      4 PHE5        0.0000 
    108 CZ         35.2272   22.9484    6.4552 C.ar      4 PHE5        0.0000 
    109 N          34.0672   23.6206    7.1279 N.2       2 ALA2        0.0000 
    110 CA         32.9072   24.2928    7.8006 C.3       5 GLY6        0.0000 
    111 N          34.3340   22.5423    5.3207 N.2       2 ALA2        0.0000 
    112 N          33.1740   23.2145    5.9934 N.2       2 ALA2        0.0000 
    113 CA         33.4407   22.1361    4.1862 C.3       5 GLY6        0.0000 
    114 CA         32.2807   22.8083    4.8589 C.3       5 GLY6        0.0000 
    115 OG         30.1494   19.8599   17.5086 O.2       1 SER1        0.0000 
    116 CA         28.9894   20.5321   18.1813 C.3       5 GLY6        0.0000 
    117 CA         29.2562   19.4538   16.3741 C.3       5 GLY6        0.0000 
    118 CZ         28.0962   20.1260   17.0468 C.ar      4 PHE5        0.0000 
    119 CA         28.3629   19.0476   15.2396 C.3       5 GLY6        0.0000 
    120 CZ         27.2029   19.7198   15.9123 C.ar      4 PHE5        0.0000 
    121 O          29.7897   17.2971   12.7596 O.2       2 ALA2        0.0000 
    122 CA         28.6296   17.9693   13.4323 C.3       5 GLY6        0.0000 
    123 DU         27.4696   18.6415   14.1051 H         6 CUB7        0.0000 
    124 DU         26.3096   19.3137   14.7778 H         6 CUB7        0.0000 
    125 CZ         25.1496   19.9859   15.4505 C.ar      4 PHE5        0.0000 
    126 CZ         30.0564   16.2188   10.9524 C.ar      4 PHE5        0.0000 
    127 OG         28.8964   16.8910   11.6251 O.2       1 SER1        0.0000 
    128 CA         27.7364   17.5632   12.2978 C.3       5 GLY6        0.0000 
    129 CA         26.5764   18.2354   12.9705 C.3       5 GLY6        0.0000 
    130 CA         25.4164   18.9075   13.6433 C.3       5 GLY6        0.0000 
    131 N          24.2563   19.5797   14.3160 N.2       2 ALA2        0.0000 
    132 N          28.9299   18.1758   17.0885 N.2       2 ALA2        0.0000 
    133 OG         27.7699   18.8480   17.7612 O.2       1 SER1        0.0000 
    134 O          28.0366   17.7697   15.9539 O.2       2 ALA2        0.0000 
    135 CZ         26.8766   18.4419   16.6267 C.ar      4 PHE5        0.0000 
    136 NZ         27.1434   17.3635   14.8194 N.2       3 LYS4        0.0000 
    137 NZ         25.9834   18.0357   15.4921 N.2       3 LYS4        0.0000 
    138 CZ         24.8234   18.7079   16.1649 C.ar      4 PHE5        0.0000 
    139 CA         26.2501   16.9574   13.6849 C.3       5 GLY6        0.0000 
    140 NZ         25.0901   17.6296   14.3576 N.2       3 LYS4        0.0000 
    141 N          35.8797   25.5044    5.0264 N.2       2 ALA2        0.0000 
    142 N          34.7197   26.1766    5.6992 N.2       2 ALA2        0.0000 
    143 N          31.6952   22.8220   17.2143 N.2       2 ALA2        0.0000 
    144 OG         31.9620   21.7437   15.4071 O.2       1 SER1        0.0000 
    145 OG         30.8020   22.4159   16.0798 O.2       1 SER1        0.0000 
@<TRIPOS>BOND
@<TRIPOS>SUBSTRUCTURE
     1 SER1        3 GROUP   
     2 ALA2        9 GROUP   
     3 LYS4       18 GROUP   
     4 PHE5        2 GROUP   
     5 GLY6       15 GROUP   
     6 CUB7        1 GROUP   
@<TRIPOS>SET

