#    Name: 4b83_B3V_1_INTS_M
#    Modification time : Tue Mar 25 07:04:30 2014

@<TRIPOS>MOLECULE
4b83_B3V_1_INTS_M
   39     0     3     0     0
SMALL
NO_CHARGES


@<TRIPOS>ATOM
      1 CA         33.9200   20.1805   10.7385 C.3       1 GLC5        0.0000 
      2 CA         33.6530   20.9430    8.8260 C.3       3 GLL5        0.0000 
      3 CA         34.1870   19.4180   12.6510 C.3       2 GLP5        0.0000 
      4 CA         35.2705   20.7340    9.3040 C.3       1 GLC5        0.0000 
      5 CA         36.8880   20.5250    9.7820 C.3       2 GLP5        0.0000 
      6 CA         33.4255   19.2315    9.0420 C.3       1 GLC5        0.0000 
      7 CA         33.1980   17.5200    9.2580 C.3       2 GLP5        0.0000 
      8 CA         30.7775   24.0325    7.5080 C.3       1 GLC5        0.0000 
      9 CA         30.5390   22.6130    8.7230 C.3       3 GLL5        0.0000 
     10 CA         31.0160   25.4520    6.2930 C.3       2 GLP5        0.0000 
     11 CA         27.3260   22.2345   16.1710 C.3       1 GLC5        0.0000 
     12 CA         28.1600   21.1690   14.9350 C.3       3 GLL5        0.0000 
     13 CA         26.4920   23.3000   17.4070 C.3       2 GLP5        0.0000 
     14 CA         28.2565   22.3725    7.2790 C.3       1 GLC5        0.0000 
     15 CA         29.2290   22.3750    9.1380 C.3       3 GLL5        0.0000 
     16 CA         27.2840   22.3700    5.4200 C.3       2 GLP5        0.0000 
     17 CA         27.8805   22.6760   12.3260 C.3       1 GLC5        0.0000 
     18 CA         29.0630   21.4260   13.7010 C.3       3 GLL5        0.0000 
     19 CA         26.6980   23.9260   10.9510 C.3       2 GLP5        0.0000 
     20 CA         28.3645   16.1475   16.6855 C.3       1 GLC5        0.0000 
     21 CA         27.6120   17.9420   16.0480 C.3       3 GLL5        0.0000 
     22 CA         29.1170   14.3530   17.3230 C.3       2 GLP5        0.0000 
     23 CA         29.3710   17.5385   15.8895 C.3       1 GLC5        0.0000 
     24 CA         31.1300   17.1350   15.7310 C.3       2 GLP5        0.0000 
     25 CA         26.2010   20.2045   17.2275 C.3       1 GLC5        0.0000 
     26 CA         26.8590   19.2640   15.9290 C.3       3 GLL5        0.0000 
     27 CA         25.5430   21.1450   18.5260 C.3       2 GLP5        0.0000 
     28 CA         25.1870   21.5395   15.4760 C.3       1 GLC5        0.0000 
     29 CA         25.9780   20.5330   14.0530 C.3       3 GLL5        0.0000 
     30 CA         24.3960   22.5460   16.8990 C.3       2 GLP5        0.0000 
     31 CA         25.2855   22.1920   13.0595 C.3       1 GLC5        0.0000 
     32 CA         24.5930   23.8510   12.0660 C.3       2 GLP5        0.0000 
     33 CA         24.1385   20.5430   15.4135 C.3       1 GLC5        0.0000 
     34 CA         25.0190   19.3840   13.8790 C.3       3 GLL5        0.0000 
     35 CA         23.2580   21.7020   16.9480 C.3       2 GLP5        0.0000 
     36 CA         25.0775   18.2400   12.3675 C.3       1 GLC5        0.0000 
     37 CA         25.1360   17.0960   10.8560 C.3       2 GLP5        0.0000 
     38 CA         23.3340   18.8200   14.1885 C.3       1 GLC5        0.0000 
     39 CA         21.6490   18.2560   14.4980 C.3       2 GLP5        0.0000 
@<TRIPOS>BOND
@<TRIPOS>SUBSTRUCTURE
     1 GLC5        1 GROUP        1 X    GLC  0     ROOT GLC X 6
     2 GLP5        3 GROUP        1 Y    GLP  0     ROOT GLP Y 13
     3 GLL5        2 GROUP        1 Z    GLL  0     ROOT GLL Z 20
@<TRIPOS>SET

