#    Name: 4b83_B3V_1_ligand
#    Modification time : Tue Mar 25 07:04:30 2014

@<TRIPOS>MOLECULE
4b83_B3V_1_ligand
   42    42     1     0     0
SMALL
NO_CHARGES


@<TRIPOS>ATOM
      1 N1         29.9260   20.2600   13.3330 N.pl3     1 B3V1543     0.0000 
      2 O1         28.2500   19.1570   11.8060 O.2       1 B3V1543     0.0000 
      3 S1         29.6190   19.5030   11.8910 S.o2      1 B3V1543     0.0000 
      4 C2         33.6530   20.9430    8.8260 C.3       1 B3V1543     0.0000 
      5 N2         27.2190   20.0150   14.6500 N.4       1 B3V1543     0.0000 
      6 O2         30.5870   18.4620   11.8340 O.2       1 B3V1543     0.0000 
      7 C5         30.5390   22.6130    8.7230 C.ar      1 B3V1543     0.0000 
      8 C6         31.5370   21.8740    9.3010 C.ar      1 B3V1543     0.0000 
      9 C7         31.3070   20.8980   10.2910 C.ar      1 B3V1543     0.0000 
     10 C11        28.1600   21.1690   14.9350 C.3       1 B3V1543     0.0000 
     11 C8         29.9670   20.6500   10.7080 C.ar      1 B3V1543     0.0000 
     12 C9         28.9740   21.4190   10.1060 C.ar      1 B3V1543     0.0000 
     13 C10        29.2290   22.3750    9.1380 C.ar      1 B3V1543     0.0000 
     14 C13        29.0630   21.4260   13.7010 C.3       1 B3V1543     0.0000 
     15 C16        27.6120   17.9420   16.0480 C.3       1 B3V1543     0.0000 
     16 C17        26.8590   19.2640   15.9290 C.3       1 B3V1543     0.0000 
     17 O06        32.8630   22.0930    8.9160 O.3       1 B3V1543     0.0000 
     18 C19        25.9780   20.5330   14.0530 C.3       1 B3V1543     0.0000 
     19 C20        25.0190   19.3840   13.8790 C.3       1 B3V1543     0.0000 
     20 H          30.6390   19.9121   13.8550 H         1 B3V1543     0.0000 
     21 H          27.6927   19.3305   13.9713 H         1 B3V1543     0.0000 
     22 H          30.7346   23.3143    8.0142 H         1 B3V1543     0.0000 
     23 H          32.0713   20.3808   10.7012 H         1 B3V1543     0.0000 
     24 H          28.7915   20.9318   15.7824 H         1 B3V1543     0.0000 
     25 H          27.5922   22.0680   15.1414 H         1 B3V1543     0.0000 
     26 H          27.9760   21.2620   10.4060 H         1 B3V1543     0.0000 
     27 H          28.4566   22.9116    8.7225 H         1 B3V1543     0.0000 
     28 H          28.4109   21.6956   12.8540 H         1 B3V1543     0.0000 
     29 H          29.6899   22.3067   13.9172 H         1 B3V1543     0.0000 
     30 H          25.7828   19.0663   15.9383 H         1 B3V1543     0.0000 
     31 H          27.0972   19.8919   16.7930 H         1 B3V1543     0.0000 
     32 H          26.1790   20.9789   13.0819 H         1 B3V1543     0.0000 
     33 H          25.5253   21.2793   14.7014 H         1 B3V1543     0.0000 
     34 H          34.5898   21.1567    8.5491 H         1 B3V1543     0.0000 
     35 H          33.7086   20.4612    9.7005 H         1 B3V1543     0.0000 
     36 H          33.2902   20.2946    8.1567 H         1 B3V1543     0.0000 
     37 H          28.6025   18.0788   16.0629 H         1 B3V1543     0.0000 
     38 H          27.3712   17.4515   16.8855 H         1 B3V1543     0.0000 
     39 H          27.4121   17.3305   15.2824 H         1 B3V1543     0.0000 
     40 H          25.3928   18.6756   13.2803 H         1 B3V1543     0.0000 
     41 H          24.8021   18.9459   14.7514 H         1 B3V1543     0.0000 
     42 H          24.1529   19.6808   13.4767 H         1 B3V1543     0.0000 
@<TRIPOS>BOND
     1    3    1 1    
     2   14    1 1    
     3   20    1 1    
     4    3    2 2    
     5    6    3 2    
     6   11    3 1    
     7   17    4 1    
     8   34    4 1    
     9   35    4 1    
    10   36    4 1    
    11   10    5 1    
    12   16    5 1    
    13   18    5 1    
    14   21    5 1    
    15    8    7 ar   
    16   13    7 ar   
    17   22    7 1    
    18    9    8 ar   
    19   17    8 1    
    20   11    9 ar   
    21   23    9 1    
    22   14   10 1    
    23   24   10 1    
    24   25   10 1    
    25   12   11 ar   
    26   13   12 ar   
    27   26   12 1    
    28   27   13 1    
    29   28   14 1    
    30   29   14 1    
    31   16   15 1    
    32   37   15 1    
    33   38   15 1    
    34   39   15 1    
    35   30   16 1    
    36   31   16 1    
    37   19   18 1    
    38   32   18 1    
    39   33   18 1    
    40   40   19 1    
    41   41   19 1    
    42   42   19 1    
@<TRIPOS>SUBSTRUCTURE
     1 B3V1543     1 GROUP   
@<TRIPOS>SET

