#    Name: 2pg0_FAD_1_INTS_M
#    Modification time : Mon Mar 24 18:56:03 2014

@<TRIPOS>MOLECULE
2pg0_FAD_1_INTS_M
  115     0    12     0     0
SMALL
NO_CHARGES


@<TRIPOS>ATOM
      1 NZ         -9.8355   62.9515   35.0240 N.4       3 LYC4        0.0000 
      2 NZ        -11.0200   62.1040   34.6070 N.4      11 LYL4        0.0000 
      3 NZ         -7.9910   62.6770   35.7130 N.4       7 LYP4        0.0000 
      4 N          -9.8380   61.8160   35.2035 N.am      2 SEC2        0.0000 
      5 N         -11.0200   62.1040   34.6070 N.am     10 SEL2        0.0000 
      6 N          -8.6560   61.5280   35.8000 N.am      6 SEP2        0.0000 
      7 N          -9.8355   62.9515   35.0240 N.am      2 SEC2        0.0000 
      8 N          -8.6510   63.7990   35.4410 N.am      6 SEP2        0.0000 
      9 N         -13.5895   64.9510   35.2875 N.am      2 SEC2        0.0000 
     10 N         -13.0500   63.5520   34.9420 N.am     10 SEL2        0.0000 
     11 N         -14.1290   66.3500   35.6330 N.am      6 SEP2        0.0000 
     12 N         -14.3775   63.8630   34.7875 N.am      2 SEC2        0.0000 
     13 N         -15.7050   64.1740   34.6330 N.am      6 SEP2        0.0000 
     14 O         -15.2100   59.0565   29.7970 O.2       1 ALC1        0.0000 
     15 O         -15.6970   59.1810   30.9670 O.2       9 ALL1        0.0000 
     16 O         -14.7230   58.9320   28.6270 O.2       5 ALP1        0.0000 
     17 N         -18.0835   61.7210   32.4085 N.am      2 SEC2        0.0000 
     18 N         -17.3910   60.4670   32.5600 N.am     10 SEL2        0.0000 
     19 N         -18.7760   62.9750   32.2570 N.am      6 SEP2        0.0000 
     20 O         -18.2125   60.2130   31.5505 O.2       1 ALC1        0.0000 
     21 O         -17.3910   60.4670   32.5600 O.2       9 ALL1        0.0000 
     22 O         -19.0340   59.9590   30.5410 O.2       5 ALP1        0.0000 
     23 CA        -14.7870   57.5245   34.7875 C.3       4 GLC5        0.0000 
     24 CA        -15.8530   59.0750   33.9050 C.3      12 GLL5        0.0000 
     25 CA        -13.7210   55.9740   35.6700 C.3       8 GLP5        0.0000 
     26 CA        -18.5235   56.8280   38.5100 C.3       4 GLC5        0.0000 
     27 CA        -18.6420   58.8490   37.9020 C.3      12 GLL5        0.0000 
     28 CA        -18.4050   54.8070   39.1180 C.3       8 GLP5        0.0000 
     29 CA        -19.9920   58.5830   34.5450 C.3       4 GLC5        0.0000 
     30 CA        -19.3860   57.4030   36.1310 C.3      12 GLL5        0.0000 
     31 CA        -20.5980   59.7630   32.9590 C.3       8 GLP5        0.0000 
     32 CA        -18.8955   56.1050   37.6245 C.3       4 GLC5        0.0000 
     33 CA        -18.2915   55.7945   35.6095 C.3       4 GLC5        0.0000 
     34 CA        -17.1970   54.1860   35.0880 C.3       8 GLP5        0.0000 
     35 CA        -19.0235   59.2555   34.3900 C.3       4 GLC5        0.0000 
     36 CA        -17.4490   58.7480   35.8210 C.3      12 GLL5        0.0000 
     37 N         -11.8075   71.7490   31.3225 N.am      2 SEC2        0.0000 
     38 N         -11.9210   72.4650   30.1520 N.am     10 SEL2        0.0000 
     39 N         -11.6940   71.0330   32.4930 N.am      6 SEP2        0.0000 
     40 N         -11.4945   74.9520   32.7665 N.am      2 SEC2        0.0000 
     41 N         -12.0460   74.0910   31.7210 N.am     10 SEL2        0.0000 
     42 N         -10.9430   75.8130   33.8120 N.am      6 SEP2        0.0000 
     43 N         -11.3140   73.5500   32.9045 N.am      2 SEC2        0.0000 
     44 N         -10.5820   73.0090   34.0880 N.am      6 SEP2        0.0000 
     45 N         -11.8700   72.5620   32.1070 N.am      2 SEC2        0.0000 
     46 O         -11.6320   76.1840   29.8510 O.2       1 ALC1        0.0000 
     47 O         -11.9720   74.7920   29.5580 O.2       9 ALL1        0.0000 
     48 O         -11.2920   77.5760   30.1440 O.2       5 ALP1        0.0000 
     49 N         -10.7295   75.4995   26.4365 N.am      2 SEC2        0.0000 
     50 N         -11.8630   75.3500   27.3700 N.am     10 SEL2        0.0000 
     51 N          -9.5960   75.6490   25.5030 N.am      6 SEP2        0.0000 
     52 N         -11.8850   74.9700   25.7620 N.am      2 SEC2        0.0000 
     53 N         -11.9070   74.5900   24.1540 N.am      6 SEP2        0.0000 
     54 N         -11.6780   76.7710   27.2150 N.am      2 SEC2        0.0000 
     55 N         -11.4930   78.1920   27.0600 N.am      6 SEP2        0.0000 
     56 N         -11.8320   73.6760   25.3290 N.am      2 SEC2        0.0000 
     57 N         -11.7570   72.7620   26.5040 N.am     10 SEL2        0.0000 
     58 CA         -9.5210   71.6465   24.3485 C.3       4 GLC5        0.0000 
     59 CA        -11.5700   71.1220   24.7740 C.3      12 GLL5        0.0000 
     60 CA         -7.4720   72.1710   23.9230 C.3       8 GLP5        0.0000 
     61 CA         -9.4470   69.2895   21.8390 C.3       4 GLC5        0.0000 
     62 CA        -11.3950   69.5020   22.9060 C.3      12 GLL5        0.0000 
     63 CA         -7.4990   69.0770   20.7720 C.3       8 GLP5        0.0000 
     64 CA        -12.1915   70.1265   21.0670 C.3       4 GLC5        0.0000 
     65 CA        -12.9880   70.7510   19.2280 C.3       8 GLP5        0.0000 
     66 CA        -13.1705   69.5560   23.3640 C.3       4 GLC5        0.0000 
     67 CA        -14.9460   69.6100   23.8220 C.3       8 GLP5        0.0000 
     68 CA        -13.1890   68.4595   24.4080 C.3       4 GLC5        0.0000 
     69 CA        -11.4320   67.3090   24.9940 C.3      12 GLL5        0.0000 
     70 CA        -10.8700   65.8420   26.2285 C.3       4 GLC5        0.0000 
     71 CA        -10.3080   64.3750   27.4630 C.3       8 GLP5        0.0000 
     72 CA        -11.0980   70.3355   31.1380 C.3       4 GLC5        0.0000 
     73 CA        -11.9110   69.7130   29.5280 C.3      12 GLL5        0.0000 
     74 CA        -10.2850   70.9580   32.7480 C.3       8 GLP5        0.0000 
     75 CA        -10.1965   68.9790   29.3880 C.3       4 GLC5        0.0000 
     76 CA         -8.4820   68.2450   29.2480 C.3       8 GLP5        0.0000 
     77 CA        -14.8110   68.7000   28.3395 C.3       4 GLC5        0.0000 
     78 CA        -13.2000   68.8730   29.5420 C.3      12 GLL5        0.0000 
     79 CA        -16.4220   68.5270   27.1370 C.3       8 GLP5        0.0000 
     80 CA        -11.3860   68.5645   31.5830 C.3       4 GLC5        0.0000 
     81 CA        -12.9150   67.6380   30.3910 C.3      12 GLL5        0.0000 
     82 CA         -9.8570   69.4910   32.7750 C.3       8 GLP5        0.0000 
     83 N         -10.9895   64.1810   29.7105 N.am      2 SEC2        0.0000 
     84 N         -10.9130   64.7930   30.9970 N.am     10 SEL2        0.0000 
     85 N         -11.0660   63.5690   28.4240 N.am      6 SEP2        0.0000 
     86 CA        -14.1990   58.0468   30.9000 C.3       4 GLC5        0.0000 
     87 CA        -13.9370   59.2940   32.6220 C.3      12 GLL5        0.0000 
     88 CA        -13.8920   56.4340   29.5330 C.3       8 GLP5        0.0000 
     89 CA        -16.1797   61.8453   31.7235 C.3       4 GLC5        0.0000 
     90 CA        -15.0750   60.0250   31.9120 C.3      12 GLL5        0.0000 
     91 CA        -16.7910   63.5260   30.9810 C.3       8 GLP5        0.0000 
     92 CA        -13.2415   60.7492   30.7726 C.3       4 GLC5        0.0000 
     93 CA        -12.2680   61.6020   29.2050 C.3       8 GLP5        0.0000 
     94 CA        -18.7865   60.5785   36.6532 C.3       4 GLC5        0.0000 
     95 CA        -17.5880   59.2750   37.1020 C.3      12 GLL5        0.0000 
     96 CA        -19.7910   62.2520   36.6450 C.3       8 GLP5        0.0000 
     97 CA        -10.0892   70.7647   26.5995 C.3       4 GLC5        0.0000 
     98 CA        -11.6730   71.4350   26.1240 C.3      12 GLL5        0.0000 
     99 CA         -8.5570   70.2510   27.7500 C.3       8 GLP5        0.0000 
    100 CA        -10.0297   69.7648   26.3062 C.3       4 GLC5        0.0000 
    101 CA        -11.5130   68.7680   25.3470 C.3      12 GLL5        0.0000 
    102 CA        -12.4802   68.0687   23.2525 C.3       4 GLC5        0.0000 
    103 CA        -11.4920   69.7890   24.3780 C.3      12 GLL5        0.0000 
    104 CA        -13.5170   66.4920   22.8630 C.3       8 GLP5        0.0000 
    105 CA        -12.4947   67.2652   24.0168 C.3       4 GLC5        0.0000 
    106 CA        -10.1038   70.0037   27.3230 C.3       4 GLC5        0.0000 
    107 CA        -11.6070   69.0880   26.6950 C.3      12 GLL5        0.0000 
    108 CA        -15.3927   64.8758   31.0935 C.3       4 GLC5        0.0000 
    109 CA        -14.1660   66.9040   30.8980 C.3      12 GLL5        0.0000 
    110 CA        -13.9559   65.4930   29.2656 C.3       4 GLC5        0.0000 
    111 CA        -13.8230   65.5470   31.5140 C.3      12 GLL5        0.0000 
    112 CA        -14.2300   64.5770   27.4520 C.3       8 GLP5        0.0000 
    113 CA        -13.5499   69.5379   26.0153 C.3       4 GLC5        0.0000 
    114 CA        -11.6940   70.4250   27.0970 C.3      12 GLL5        0.0000 
    115 CA        -15.5260   69.4320   26.2730 C.3       8 GLP5        0.0000 
@<TRIPOS>BOND
@<TRIPOS>SUBSTRUCTURE
     1 ALC1       14 GROUP        1 X    ALC  0     ROOT ALC X 1
     2 SEC2        4 GROUP        1 X    SEC  0     **** SEC X 2
     3 LYC4        1 GROUP        1 X    LYC  0     **** LYC X 4
     4 GLC5       23 GROUP        1 X    GLC  0     **** GLC X 6
     5 ALP1       16 GROUP        1 Y    ALP  0     ROOT ALP Y 8
     6 SEP2        6 GROUP        1 Y    SEP  0     **** SEP Y 9
     7 LYP4        3 GROUP        1 Y    LYP  0     **** LYP Y 11
     8 GLP5       25 GROUP        1 Y    GLP  0     **** GLP Y 13
     9 ALL1       15 GROUP        1 Z    ALL  0     ROOT ALL Z 15
    10 SEL2        5 GROUP        1 Z    SEL  0     **** SEL Z 16
    11 LYL4        2 GROUP        1 Z    LYL  0     **** LYL Z 18
    12 GLL5       24 GROUP        1 Z    GLL  0     **** GLL Z 20
@<TRIPOS>SET

