#    Name: 2pg0_FAD_1_ligand
#    Modification time : Mon Mar 24 18:56:04 2014

@<TRIPOS>MOLECULE
2pg0_FAD_1_ligand
   84    89     1     0     0
SMALL
NO_CHARGES


@<TRIPOS>ATOM
      1 PA        -12.3240   62.5830   34.0430 P.3       1 FAD401      0.0000 
      2 O1A       -11.0200   62.1040   34.6070 O.co2     1 FAD401      0.0000 
      3 O2A       -13.0500   63.5520   34.9420 O.co2     1 FAD401      0.0000 
      4 O5B       -13.2630   61.3090   33.7130 O.3       1 FAD401      0.0000 
      5 C5B       -12.7730   60.2420   32.9150 C.3       1 FAD401      0.0000 
      6 C4B       -13.9370   59.2940   32.6220 C.3       1 FAD401      0.0000 
      7 O4B       -14.4580   58.8160   33.8530 O.3       1 FAD401      0.0000 
      8 C3B       -15.0750   60.0250   31.9120 C.3       1 FAD401      0.0000 
      9 O3B       -15.6970   59.1810   30.9670 O.3       1 FAD401      0.0000 
     10 C2B       -16.0620   60.3040   33.0200 C.3       1 FAD401      0.0000 
     11 O2B       -17.3910   60.4670   32.5600 O.3       1 FAD401      0.0000 
     12 C1B       -15.8530   59.0750   33.9050 C.3       1 FAD401      0.0000 
     13 N9A       -16.3430   59.3370   35.2700 N.pl3     1 FAD401      0.0000 
     14 C8A       -15.8180   60.2060   36.1960 C.2       1 FAD401      0.0000 
     15 N7A       -16.5850   60.1580   37.3070 N.2       1 FAD401      0.0000 
     16 C5A       -17.5880   59.2750   37.1020 C.ar      1 FAD401      0.0000 
     17 C6A       -18.6420   58.8490   37.9020 C.ar      1 FAD401      0.0000 
     18 N6A       -18.8620   59.4330   39.0840 N.pl3     1 FAD401      0.0000 
     19 N1A       -19.5340   57.9190   37.4060 N.ar      1 FAD401      0.0000 
     20 C2A       -19.3860   57.4030   36.1310 C.ar      1 FAD401      0.0000 
     21 N3A       -18.3280   57.8190   35.3410 N.ar      1 FAD401      0.0000 
     22 C4A       -17.4490   58.7480   35.8210 C.ar      1 FAD401      0.0000 
     23 N1        -11.9210   72.4650   30.1520 N.2       1 FAD401      0.0000 
     24 C2        -11.9870   73.7960   30.5250 C.2       1 FAD401      0.0000 
     25 O2        -12.0460   74.0910   31.7210 O.2       1 FAD401      0.0000 
     26 N3        -11.9720   74.7920   29.5580 N.am      1 FAD401      0.0000 
     27 C4        -11.8890   74.4580   28.2210 C.2       1 FAD401      0.0000 
     28 O4        -11.8630   75.3500   27.3700 O.2       1 FAD401      0.0000 
     29 C4X       -11.8360   73.1120   27.8430 C.2       1 FAD401      0.0000 
     30 N5        -11.7570   72.7620   26.5040 N.2       1 FAD401      0.0000 
     31 C5X       -11.6730   71.4350   26.1240 C.ar      1 FAD401      0.0000 
     32 C6        -11.5700   71.1220   24.7740 C.ar      1 FAD401      0.0000 
     33 C7        -11.4920   69.7890   24.3780 C.ar      1 FAD401      0.0000 
     34 C7M       -11.3950   69.5020   22.9060 C.3       1 FAD401      0.0000 
     35 C8        -11.5130   68.7680   25.3470 C.ar      1 FAD401      0.0000 
     36 C8M       -11.4320   67.3090   24.9940 C.3       1 FAD401      0.0000 
     37 C9        -11.6070   69.0880   26.6950 C.ar      1 FAD401      0.0000 
     38 C9A       -11.6940   70.4250   27.0970 C.ar      1 FAD401      0.0000 
     39 N10       -11.8010   70.7670   28.4470 N.pl3     1 FAD401      0.0000 
     40 C10       -11.8500   72.1080   28.8180 C.2       1 FAD401      0.0000 
     41 C1'       -11.9110   69.7130   29.5280 C.3       1 FAD401      0.0000 
     42 C2'       -13.2000   68.8730   29.5420 C.3       1 FAD401      0.0000 
     43 O2'       -14.3160   69.5640   30.0640 O.3       1 FAD401      0.0000 
     44 C3'       -12.9150   67.6380   30.3910 C.3       1 FAD401      0.0000 
     45 O3'       -12.1330   66.7740   29.5940 O.3       1 FAD401      0.0000 
     46 C4'       -14.1660   66.9040   30.8980 C.3       1 FAD401      0.0000 
     47 O4'       -14.8780   67.6680   31.8540 O.3       1 FAD401      0.0000 
     48 C5'       -13.8230   65.5470   31.5140 C.3       1 FAD401      0.0000 
     49 O5'       -12.7980   65.6730   32.4830 O.3       1 FAD401      0.0000 
     50 P         -11.5090   64.7200   32.3800 P.3       1 FAD401      0.0000 
     51 O1P       -10.9130   64.7930   30.9970 O.co2     1 FAD401      0.0000 
     52 O2P       -10.5150   65.0940   33.4440 O.co2     1 FAD401      0.0000 
     53 O3P       -12.0700   63.2170   32.5830 O.3       1 FAD401      0.0000 
     54 H         -11.9980   59.6687   33.4247 H         1 FAD401      0.0000 
     55 H         -12.3791   60.5895   31.9594 H         1 FAD401      0.0000 
     56 H         -13.5971   58.4998   32.0013 H         1 FAD401      0.0000 
     57 H         -14.7204   60.9290   31.5295 H         1 FAD401      0.0000 
     58 H         -15.6829   61.1500   33.5734 H         1 FAD401      0.0000 
     59 H         -16.4101   58.2681   33.4512 H         1 FAD401      0.0000 
     60 H         -15.0376   60.7493   36.0629 H         1 FAD401      0.0000 
     61 H         -18.2453   60.1819   39.3263 H         1 FAD401      0.0000 
     62 H         -19.6236   59.0686   39.6199 H         1 FAD401      0.0000 
     63 H         -20.0588   56.7133   35.7712 H         1 FAD401      0.0000 
     64 H         -12.0231   75.7818   29.8423 H         1 FAD401      0.0000 
     65 H         -11.5514   71.8690   24.0706 H         1 FAD401      0.0000 
     66 H         -11.6130   68.3425   27.4040 H         1 FAD401      0.0000 
     67 H         -11.8045   70.2007   30.5245 H         1 FAD401      0.0000 
     68 H         -11.0445   69.0166   29.4473 H         1 FAD401      0.0000 
     69 H         -13.3699   68.5242   28.5276 H         1 FAD401      0.0000 
     70 H         -12.3367   67.9631   31.2600 H         1 FAD401      0.0000 
     71 H         -14.8034   66.7020   30.0242 H         1 FAD401      0.0000 
     72 H         -13.5302   64.8753   30.6897 H         1 FAD401      0.0000 
     73 H         -14.7510   65.1374   31.9470 H         1 FAD401      0.0000 
     74 H         -10.5815   69.9178   22.4994 H         1 FAD401      0.0000 
     75 H         -11.3458   68.5204   22.7214 H         1 FAD401      0.0000 
     76 H         -12.1857   69.8550   22.4059 H         1 FAD401      0.0000 
     77 H         -10.5857   67.0909   24.5079 H         1 FAD401      0.0000 
     78 H         -11.4609   66.7279   25.8074 H         1 FAD401      0.0000 
     79 H         -12.1893   67.0268   24.4051 H         1 FAD401      0.0000 
     80 H         -15.1318   59.2520   30.1451 H         1 FAD401      0.0000 
     81 H         -17.3843   60.1209   31.6218 H         1 FAD401      0.0000 
     82 H         -14.6858   68.9613   30.7711 H         1 FAD401      0.0000 
     83 H         -11.7203   66.1303   30.2385 H         1 FAD401      0.0000 
     84 H         -15.5972   67.0589   32.1883 H         1 FAD401      0.0000 
@<TRIPOS>BOND
     1    2    1 ar   
     2    3    1 ar   
     3    4    1 1    
     4   53    1 1    
     5    5    4 1    
     6    6    5 1    
     7   54    5 1    
     8   55    5 1    
     9    7    6 1    
    10    8    6 1    
    11   56    6 1    
    12   12    7 1    
    13    9    8 1    
    14   10    8 1    
    15   57    8 1    
    16   80    9 1    
    17   11   10 1    
    18   12   10 1    
    19   58   10 1    
    20   81   11 1    
    21   13   12 1    
    22   59   12 1    
    23   14   13 1    
    24   22   13 1    
    25   15   14 2    
    26   60   14 1    
    27   16   15 1    
    28   17   16 ar   
    29   22   16 ar   
    30   18   17 1    
    31   19   17 ar   
    32   61   18 1    
    33   62   18 1    
    34   20   19 ar   
    35   21   20 ar   
    36   63   20 1    
    37   22   21 ar   
    38   24   23 1    
    39   40   23 2    
    40   25   24 2    
    41   26   24 am   
    42   27   26 am   
    43   64   26 1    
    44   28   27 2    
    45   29   27 1    
    46   30   29 2    
    47   40   29 1    
    48   31   30 1    
    49   32   31 ar   
    50   38   31 ar   
    51   33   32 ar   
    52   65   32 1    
    53   34   33 1    
    54   35   33 ar   
    55   74   34 1    
    56   75   34 1    
    57   76   34 1    
    58   36   35 1    
    59   37   35 ar   
    60   77   36 1    
    61   78   36 1    
    62   79   36 1    
    63   38   37 ar   
    64   66   37 1    
    65   39   38 1    
    66   40   39 1    
    67   41   39 1    
    68   42   41 1    
    69   67   41 1    
    70   68   41 1    
    71   43   42 1    
    72   44   42 1    
    73   69   42 1    
    74   82   43 1    
    75   45   44 1    
    76   46   44 1    
    77   70   44 1    
    78   83   45 1    
    79   47   46 1    
    80   48   46 1    
    81   71   46 1    
    82   84   47 1    
    83   49   48 1    
    84   72   48 1    
    85   73   48 1    
    86   50   49 1    
    87   51   50 ar   
    88   52   50 ar   
    89   53   50 1    
@<TRIPOS>SUBSTRUCTURE
     1 FAD401      1 GROUP   
@<TRIPOS>SET

