#    Name: 3rai_X85_1_INTS_M
#    Modification time : Tue Mar 25 11:19:15 2014

@<TRIPOS>MOLECULE
3rai_X85_1_INTS_M
   55     0    12     0     0
SMALL
NO_CHARGES


@<TRIPOS>ATOM
      1 CA        -64.2430  -43.3280  -11.8170 C.3       4 GLC5        0.0000 
      2 CA        -65.2320  -44.6360  -10.6160 C.3      12 GLL5        0.0000 
      3 CA        -63.2540  -42.0200  -13.0180 C.3       8 GLP5        0.0000 
      4 CA        -66.7040  -47.3205  -11.6965 C.3       4 GLC5        0.0000 
      5 CA        -66.2750  -45.4420  -12.7250 C.3      12 GLL5        0.0000 
      6 CA        -67.1330  -49.1990  -10.6680 C.3       8 GLP5        0.0000 
      7 CA        -65.8210  -46.3455  -10.1110 C.3       4 GLC5        0.0000 
      8 CA        -65.1060  -45.2860  -11.8970 C.3      12 GLL5        0.0000 
      9 CA        -66.5360  -47.4050   -8.3250 C.3       8 GLP5        0.0000 
     10 O         -67.0545  -46.2045  -16.4625 O.2       1 ALC1        0.0000 
     11 O         -67.0620  -45.6170  -15.0210 O.2       9 ALL1        0.0000 
     12 O         -67.0470  -46.7920  -17.9040 O.2       5 ALP1        0.0000 
     13 N         -64.4020  -47.3060  -15.3590 N.am      2 SEC2        0.0000 
     14 N         -65.3850  -46.9610  -14.3480 N.am     10 SEL2        0.0000 
     15 N         -63.4190  -47.6510  -16.3700 N.am      6 SEP2        0.0000 
     16 N         -70.5275  -43.7675  -12.4370 N.am      2 SEC2        0.0000 
     17 N         -69.8780  -44.0440  -11.2870 N.am     10 SEL2        0.0000 
     18 N         -71.1770  -43.4910  -13.5870 N.am      6 SEP2        0.0000 
     19 O         -63.1005  -46.6530  -13.1645 O.2       1 ALC1        0.0000 
     20 O         -63.8620  -45.7610  -12.3360 O.2       9 ALL1        0.0000 
     21 O         -62.3390  -47.5450  -13.9930 O.2       5 ALP1        0.0000 
     22 CA        -62.9360  -43.8335  -12.2885 C.3       4 GLC5        0.0000 
     23 CA        -62.6180  -45.6470  -11.5590 C.3      12 GLL5        0.0000 
     24 CA        -59.0425  -43.2560   -5.7560 C.3       4 GLC5        0.0000 
     25 CA        -60.5810  -43.4510   -5.0370 C.3      12 GLL5        0.0000 
     26 CA        -57.5040  -43.0610   -6.4750 C.3       8 GLP5        0.0000 
     27 OD1       -62.2815  -43.1375   -6.8955 O.co2     3 ASC3        0.0000 
     28 OD1       -63.0170  -43.3550   -5.7220 O.co2    11 ASL3        0.0000 
     29 OD1       -61.5460  -42.9200   -8.0690 O.co2     7 ASP3        0.0000 
     30 O         -62.2815  -43.1375   -6.8955 O.2       1 ALC1        0.0000 
     31 O         -63.0170  -43.3550   -5.7220 O.2       9 ALL1        0.0000 
     32 O         -61.5460  -42.9200   -8.0690 O.2       5 ALP1        0.0000 
     33 CA        -61.5860  -39.7985   -4.0550 C.3       4 GLC5        0.0000 
     34 CA        -62.1040  -41.5770   -4.1480 C.3      12 GLL5        0.0000 
     35 CA        -61.0680  -38.0200   -3.9620 C.3       8 GLP5        0.0000 
     36 CA        -64.9995  -48.6365  -10.7070 C.3       4 GLC5        0.0000 
     37 CA        -62.8660  -48.0740  -10.7460 C.3      12 GLL5        0.0000 
     38 CA        -61.3140  -48.2995  -12.1465 C.3       4 GLC5        0.0000 
     39 CA        -59.7620  -48.5250  -13.5470 C.3       8 GLP5        0.0000 
     40 CA        -66.6505  -45.8805   -9.5008 C.3       4 GLC5        0.0000 
     41 CA        -69.0977  -45.9357  -10.9490 C.3       4 GLC5        0.0000 
     42 CA        -67.6680  -44.3170  -10.9680 C.3      12 GLL5        0.0000 
     43 CA        -70.5880  -47.2340  -10.2870 C.3       8 GLP5        0.0000 
     44 CA        -68.0020  -46.6910  -13.3547 C.3       4 GLC5        0.0000 
     45 CA        -67.5470  -44.9580  -12.2540 C.3      12 GLL5        0.0000 
     46 CA        -69.0930  -48.1820  -14.2200 C.3       8 GLP5        0.0000 
     47 CA        -65.3413  -44.1715  -13.5211 C.3       4 GLC5        0.0000 
     48 CA        -64.6740  -43.1000  -14.8490 C.3       8 GLP5        0.0000 
     49 CA        -66.0090  -45.5940   -7.8948 C.3       4 GLC5        0.0000 
     50 CA        -64.8590  -43.4150   -7.2390 C.3      12 GLL5        0.0000 
     51 CA        -64.4223  -47.6883   -8.2752 C.3       4 GLC5        0.0000 
     52 CA        -62.1580  -47.2930   -8.0830 C.3      12 GLL5        0.0000 
     53 CA        -60.6359  -45.8491  -10.8055 C.3       4 GLC5        0.0000 
     54 CA        -62.2110  -46.3250   -9.1310 C.3      12 GLL5        0.0000 
     55 CA        -58.8710  -45.4470  -11.5410 C.3       8 GLP5        0.0000 
@<TRIPOS>BOND
@<TRIPOS>SUBSTRUCTURE
     1 ALC1       10 GROUP        1 X    ALC  0     ROOT ALC X 1
     2 SEC2       13 GROUP        1 X    SEC  0     **** SEC X 2
     3 ASC3       27 GROUP        1 X    ASC  0     **** ASC X 3
     4 GLC5        1 GROUP        1 X    GLC  0     **** GLC X 6
     5 ALP1       12 GROUP        1 Y    ALP  0     ROOT ALP Y 8
     6 SEP2       15 GROUP        1 Y    SEP  0     **** SEP Y 9
     7 ASP3       29 GROUP        1 Y    ASP  0     **** ASP Y 10
     8 GLP5        3 GROUP        1 Y    GLP  0     **** GLP Y 13
     9 ALL1       11 GROUP        1 Z    ALL  0     ROOT ALL Z 15
    10 SEL2       14 GROUP        1 Z    SEL  0     **** SEL Z 16
    11 ASL3       28 GROUP        1 Z    ASL  0     **** ASL Z 17
    12 GLL5        2 GROUP        1 Z    GLL  0     **** GLL Z 20
@<TRIPOS>SET

