#    Name: 3rai_X85_1_ligand
#    Modification time : Tue Mar 25 11:19:15 2014

@<TRIPOS>MOLECULE
3rai_X85_1_ligand
   57    59     1     0     0
SMALL
NO_CHARGES


@<TRIPOS>ATOM
      1 C1        -65.2320  -44.6360  -10.6160 C.ar      1 X85923      0.0000 
      2 C2        -66.4920  -44.1540  -10.1540 C.ar      1 X85923      0.0000 
      3 C3        -67.6680  -44.3170  -10.9680 C.ar      1 X85923      0.0000 
      4 C4        -67.5470  -44.9580  -12.2540 C.ar      1 X85923      0.0000 
      5 C5        -66.2750  -45.4420  -12.7250 C.ar      1 X85923      0.0000 
      6 C6        -65.1060  -45.2860  -11.8970 C.ar      1 X85923      0.0000 
      7 C7        -66.1860  -46.0900  -14.0620 C.2       1 X85923      0.0000 
      8 N8        -67.0620  -45.6170  -15.0210 N.am      1 X85923      0.0000 
      9 O9        -65.3850  -46.9610  -14.3480 O.2       1 X85923      0.0000 
     10 N10       -68.9060  -43.8680  -10.5390 N.pl3     1 X85923      0.0000 
     11 O11       -69.8780  -44.0440  -11.2870 O.2       1 X85923      0.0000 
     12 O12       -68.9990  -43.3150   -9.4220 O.2       1 X85923      0.0000 
     13 N13       -63.8620  -45.7610  -12.3360 N.pl3     1 X85923      0.0000 
     14 C14       -62.6180  -45.6470  -11.5590 C.3       1 X85923      0.0000 
     15 N15       -66.5730  -43.5240   -8.9110 N.pl3     1 X85923      0.0000 
     16 C16       -66.1050  -44.1510   -7.6900 C.3       1 X85923      0.0000 
     17 C17       -64.8590  -43.4150   -7.2390 C.3       1 X85923      0.0000 
     18 C18       -64.2040  -44.1360   -6.0770 C.3       1 X85923      0.0000 
     19 C19       -60.5810  -43.4510   -5.0370 C.3       1 X85923      0.0000 
     20 C20       -61.8230  -44.2900   -5.4060 C.3       1 X85923      0.0000 
     21 N21       -63.0170  -43.3550   -5.7220 N.4       1 X85923      0.0000 
     22 C22       -63.3450  -42.4180   -4.5270 C.3       1 X85923      0.0000 
     23 C23       -62.1040  -41.5770   -4.1480 C.3       1 X85923      0.0000 
     24 O24       -60.9110  -41.9300   -5.0720 O.3       1 X85923      0.0000 
     25 C25       -62.4590  -48.6500   -8.3680 C.ar      1 X85923      0.0000 
     26 N26       -62.8120  -49.0350   -9.6990 N.ar      1 X85923      0.0000 
     27 C27       -62.8660  -48.0740  -10.7460 C.ar      1 X85923      0.0000 
     28 C28       -62.5630  -46.7080  -10.4590 C.ar      1 X85923      0.0000 
     29 C29       -62.2110  -46.3250   -9.1310 C.ar      1 X85923      0.0000 
     30 C30       -62.1580  -47.2930   -8.0830 C.ar      1 X85923      0.0000 
     31 H         -64.3994  -44.5221  -10.0340 H         1 X85923      0.0000 
     32 H         -68.3744  -45.0698  -12.8378 H         1 X85923      0.0000 
     33 H         -67.6939  -44.9008  -14.7248 H         1 X85923      0.0000 
     34 H         -66.9878  -46.0321  -15.9278 H         1 X85923      0.0000 
     35 H         -63.7850  -46.2272  -13.2650 H         1 X85923      0.0000 
     36 H         -62.5454  -44.6602  -11.0891 H         1 X85923      0.0000 
     37 H         -61.7447  -45.7778  -12.2071 H         1 X85923      0.0000 
     38 H         -66.9781  -42.5746   -8.8341 H         1 X85923      0.0000 
     39 H         -65.8503  -45.1943   -7.8555 H         1 X85923      0.0000 
     40 H         -66.8506  -44.0849   -6.9023 H         1 X85923      0.0000 
     41 H         -65.1272  -42.4035   -6.9321 H         1 X85923      0.0000 
     42 H         -64.1548  -43.3529   -8.0693 H         1 X85923      0.0000 
     43 H         -63.9327  -45.1321   -6.3911 H         1 X85923      0.0000 
     44 H         -64.9004  -44.1783   -5.2537 H         1 X85923      0.0000 
     45 H         -59.7874  -43.6530   -5.7468 H         1 X85923      0.0000 
     46 H         -60.2532  -43.7148   -4.0383 H         1 X85923      0.0000 
     47 H         -62.0841  -44.9274   -4.5730 H         1 X85923      0.0000 
     48 H         -61.6031  -44.8895   -6.2781 H         1 X85923      0.0000 
     49 H         -62.7288  -42.7220   -6.5605 H         1 X85923      0.0000 
     50 H         -63.6410  -43.0201   -3.6785 H         1 X85923      0.0000 
     51 H         -64.1522  -41.7559   -4.8101 H         1 X85923      0.0000 
     52 H         -61.8310  -41.7872   -3.1220 H         1 X85923      0.0000 
     53 H         -62.3384  -40.5262   -4.2588 H         1 X85923      0.0000 
     54 H         -62.4252  -49.3492   -7.6323 H         1 X85923      0.0000 
     55 H         -63.1164  -48.3526  -11.6862 H         1 X85923      0.0000 
     56 H         -61.9945  -45.3481   -8.9270 H         1 X85923      0.0000 
     57 H         -61.9065  -47.0087   -7.1426 H         1 X85923      0.0000 
@<TRIPOS>BOND
     1    2    1 ar   
     2    6    1 ar   
     3   31    1 1    
     4    3    2 ar   
     5   15    2 1    
     6    4    3 ar   
     7   10    3 1    
     8    5    4 ar   
     9   32    4 1    
    10    6    5 ar   
    11    7    5 1    
    12   13    6 1    
    13    8    7 am   
    14    9    7 2    
    15   33    8 1    
    16   34    8 1    
    17   11   10 2    
    18   12   10 2    
    19   14   13 1    
    20   35   13 1    
    21   28   14 1    
    22   36   14 1    
    23   37   14 1    
    24   16   15 1    
    25   38   15 1    
    26   17   16 1    
    27   39   16 1    
    28   40   16 1    
    29   18   17 1    
    30   41   17 1    
    31   42   17 1    
    32   21   18 1    
    33   43   18 1    
    34   44   18 1    
    35   20   19 1    
    36   24   19 1    
    37   45   19 1    
    38   46   19 1    
    39   21   20 1    
    40   47   20 1    
    41   48   20 1    
    42   22   21 1    
    43   49   21 1    
    44   23   22 1    
    45   50   22 1    
    46   51   22 1    
    47   24   23 1    
    48   52   23 1    
    49   53   23 1    
    50   26   25 ar   
    51   30   25 ar   
    52   54   25 1    
    53   27   26 ar   
    54   28   27 ar   
    55   55   27 1    
    56   29   28 ar   
    57   30   29 ar   
    58   56   29 1    
    59   57   30 1    
@<TRIPOS>SUBSTRUCTURE
     1 X85923      1 GROUP   
@<TRIPOS>SET

