#    Name: 3n9y_CLR_2_INTS_M
#    Modification time : Tue Mar 25 01:05:58 2014

@<TRIPOS>MOLECULE
3n9y_CLR_2_INTS_M
   75     0     3     0     0
SMALL
NO_CHARGES


@<TRIPOS>ATOM
      1 CA         59.1650   10.1930  -25.6520 C.3       1 GLC5        0.0000 
      2 CA         61.0670    9.3550  -25.9280 C.3       3 GLL5        0.0000 
      3 CA         57.2630   11.0310  -25.3760 C.3       2 GLP5        0.0000 
      4 CA         60.6755    9.5080  -23.7650 C.3       1 GLC5        0.0000 
      5 CA         60.2840    9.6610  -21.6020 C.3       2 GLP5        0.0000 
      6 CA         59.5470   10.0465  -28.1545 C.3       1 GLC5        0.0000 
      7 CA         60.9390   10.5600  -26.8830 C.3       3 GLL5        0.0000 
      8 CA         58.1550    9.5330  -29.4260 C.3       2 GLP5        0.0000 
      9 CA         59.4760   11.3100  -25.8375 C.3       1 GLC5        0.0000 
     10 CA         58.0130   12.0600  -24.7920 C.3       2 GLP5        0.0000 
     11 CA         63.3715   10.6130  -25.5075 C.3       1 GLC5        0.0000 
     12 CA         62.3310   11.0570  -27.2870 C.3       3 GLL5        0.0000 
     13 CA         64.4120   10.1690  -23.7280 C.3       2 GLP5        0.0000 
     14 CA         63.9975    9.2880  -29.8620 C.3       1 GLC5        0.0000 
     15 CA         63.0130    9.9530  -28.0850 C.3       3 GLL5        0.0000 
     16 CA         64.9820    8.6230  -31.6390 C.3       2 GLP5        0.0000 
     17 CA         65.8490    9.2395  -27.9940 C.3       1 GLC5        0.0000 
     18 CA         64.2910    8.1680  -27.0280 C.3       3 GLL5        0.0000 
     19 CA         67.4070   10.3110  -28.9600 C.3       2 GLP5        0.0000 
     20 CA         65.9355    5.7005  -26.9695 C.3       1 GLC5        0.0000 
     21 CA         64.5500    6.9890  -26.1310 C.3       3 GLL5        0.0000 
     22 CA         67.3210    4.4120  -27.8080 C.3       2 GLP5        0.0000 
     23 CA         59.4425    4.9515  -22.7965 C.3       1 GLC5        0.0000 
     24 CA         61.2090    5.3120  -23.9450 C.3       3 GLL5        0.0000 
     25 CA         57.6760    4.5910  -21.6480 C.3       2 GLP5        0.0000 
     26 CA         65.9570    4.2415  -26.4165 C.3       1 GLC5        0.0000 
     27 CA         64.5930    4.0710  -25.0250 C.3       3 GLL5        0.0000 
     28 CA         60.4140    3.5715  -27.0410 C.3       1 GLC5        0.0000 
     29 CA         61.7320    3.4190  -25.6100 C.3       3 GLL5        0.0000 
     30 CA         59.0960    3.7240  -28.4720 C.3       2 GLP5        0.0000 
     31 CA         59.4035    6.0230  -27.8285 C.3       1 GLC5        0.0000 
     32 CA         60.9170    7.5370  -27.6620 C.3       3 GLL5        0.0000 
     33 CA         57.8900    4.5090  -27.9950 C.3       2 GLP5        0.0000 
     34 CA         59.5360    8.5350  -28.5440 C.3       1 GLC5        0.0000 
     35 CA         60.3985    3.2845  -20.3705 C.3       1 GLC5        0.0000 
     36 CA         60.7200    2.4310  -22.3720 C.3       3 GLL5        0.0000 
     37 CA         60.0770    4.1380  -18.3690 C.3       2 GLP5        0.0000 
     38 CA         59.3790    1.0225  -21.8460 C.3       1 GLC5        0.0000 
     39 CA         58.0380   -0.3860  -21.3200 C.3       2 GLP5        0.0000 
     40 CA         58.9195    2.1935  -23.4325 C.3       1 GLC5        0.0000 
     41 CA         57.1190    1.9560  -24.4930 C.3       2 GLP5        0.0000 
     42 CA         59.1980    3.5110  -22.0100 C.3       1 GLC5        0.0000 
     43 CA         63.4480    4.3650  -20.3045 C.3       1 GLC5        0.0000 
     44 CA         63.1690    2.2130  -20.5040 C.3       3 GLL5        0.0000 
     45 CA         63.7270    6.5170  -20.1050 C.3       2 GLP5        0.0000 
     46 CA         61.6230    3.1755  -19.4365 C.3       1 GLC5        0.0000 
     47 CA         64.9155    4.3945  -19.4100 C.3       1 GLC5        0.0000 
     48 CA         64.7470    2.5580  -18.4690 C.3       3 GLL5        0.0000 
     49 CA         65.0840    6.2310  -20.3510 C.3       2 GLP5        0.0000 
     50 CA         66.6565    0.3470  -16.8150 C.3       1 GLC5        0.0000 
     51 CA         65.8730    1.8540  -17.7130 C.3       3 GLL5        0.0000 
     52 CA         67.4400   -1.1600  -15.9170 C.3       2 GLP5        0.0000 
     53 CA         64.7730    1.3190  -15.9875 C.3       1 GLC5        0.0000 
     54 CA         63.6730    0.7840  -14.2620 C.3       2 GLP5        0.0000 
     55 CA         63.1060    4.3520  -16.6085 C.3       1 GLC5        0.0000 
     56 CA         63.5890    2.8060  -17.5020 C.3       3 GLL5        0.0000 
     57 CA         62.6230    5.8980  -15.7150 C.3       2 GLP5        0.0000 
     58 CA         61.8330    3.4720  -17.9355 C.3       1 GLC5        0.0000 
     59 CA         63.6310    1.7950  -15.8820 C.3       1 GLC5        0.0000 
     60 CA         62.8080    0.8510  -17.7455 C.3       1 GLC5        0.0000 
     61 CA         62.0270   -1.1040  -17.9890 C.3       2 GLP5        0.0000 
     62 CA         64.5565   11.1750  -27.4435 C.3       1 GLC5        0.0000 
     63 CA         66.4410   11.8450  -27.2010 C.3       2 GLP5        0.0000 
     64 CA         64.2641    8.9420  -25.1774 C.3       1 GLC5        0.0000 
     65 CA         63.0740    8.7140  -27.2170 C.3       3 GLL5        0.0000 
     66 CA         63.1001    9.0555  -24.8016 C.3       1 GLC5        0.0000 
     67 CA         62.1430    7.1200  -25.4950 C.3       3 GLL5        0.0000 
     68 CA         61.1792    7.1604  -23.1103 C.3       1 GLC5        0.0000 
     69 CA         60.9970    8.2920  -21.6270 C.3       2 GLP5        0.0000 
     70 CA         66.1600    3.2882  -23.6587 C.3       1 GLC5        0.0000 
     71 CA         67.8760    2.9880  -22.8660 C.3       2 GLP5        0.0000 
     72 CA         62.8912    0.4235  -19.0363 C.3       1 GLC5        0.0000 
     73 CA         66.4654    2.8074  -19.4348 C.3       1 GLC5        0.0000 
     74 CA         64.3420    1.6890  -19.6630 C.3       3 GLL5        0.0000 
     75 CA         67.7220    3.6260  -20.4800 C.3       2 GLP5        0.0000 
@<TRIPOS>BOND
@<TRIPOS>SUBSTRUCTURE
     1 GLC5        1 GROUP        1 X    GLC  0     ROOT GLC X 6
     2 GLP5        3 GROUP        1 Y    GLP  0     ROOT GLP Y 13
     3 GLL5        2 GROUP        1 Z    GLL  0     ROOT GLL Z 20
@<TRIPOS>SET

