#    Name: 3n9y_CLR_2_ligand
#    Modification time : Tue Mar 25 01:05:58 2014

@<TRIPOS>MOLECULE
3n9y_CLR_2_ligand
   74    77     1     0     0
SMALL
NO_CHARGES


@<TRIPOS>ATOM
      1 C1         61.0670    9.3550  -25.9280 C.3       1 CLR602      0.0000 
      2 C2         60.9390   10.5600  -26.8830 C.3       1 CLR602      0.0000 
      3 C3         62.3310   11.0570  -27.2870 C.3       1 CLR602      0.0000 
      4 C4         63.0130    9.9530  -28.0850 C.3       1 CLR602      0.0000 
      5 C5         63.0740    8.7140  -27.2170 C.2       1 CLR602      0.0000 
      6 C6         64.2910    8.1680  -27.0280 C.2       1 CLR602      0.0000 
      7 C7         64.5500    6.9890  -26.1310 C.3       1 CLR602      0.0000 
      8 C8         63.2740    6.1700  -25.9240 C.3       1 CLR602      0.0000 
      9 C9         62.1430    7.1200  -25.4950 C.3       1 CLR602      0.0000 
     10 C10        61.8000    8.1730  -26.5830 C.3       1 CLR602      0.0000 
     11 C11        60.8850    6.3710  -24.9890 C.3       1 CLR602      0.0000 
     12 C12        61.2090    5.3120  -23.9450 C.3       1 CLR602      0.0000 
     13 C13        62.2520    4.3020  -24.4530 C.3       1 CLR602      0.0000 
     14 C14        63.4860    5.1020  -24.8460 C.3       1 CLR602      0.0000 
     15 C15        64.5930    4.0710  -25.0250 C.3       1 CLR602      0.0000 
     16 C16        64.2950    3.1060  -23.8780 C.3       1 CLR602      0.0000 
     17 C17        62.8820    3.4430  -23.3510 C.3       1 CLR602      0.0000 
     18 C18        61.7320    3.4190  -25.6100 C.3       1 CLR602      0.0000 
     19 C19        60.9170    7.5370  -27.6620 C.3       1 CLR602      0.0000 
     20 C20        62.1500    2.1690  -22.8670 C.3       1 CLR602      0.0000 
     21 C21        60.7200    2.4310  -22.3720 C.3       1 CLR602      0.0000 
     22 C22        62.9660    1.4120  -21.8030 C.3       1 CLR602      0.0000 
     23 C23        63.1690    2.2130  -20.5040 C.3       1 CLR602      0.0000 
     24 C24        64.3420    1.6890  -19.6630 C.3       1 CLR602      0.0000 
     25 C25        64.7470    2.5580  -18.4690 C.3       1 CLR602      0.0000 
     26 C26        65.8730    1.8540  -17.7130 C.3       1 CLR602      0.0000 
     27 C27        63.5890    2.8060  -17.5020 C.3       1 CLR602      0.0000 
     28 O1         62.2690   12.2420  -28.0830 O.3       1 CLR602      0.0000 
     29 H          60.0681    9.0342  -25.6268 H         1 CLR602      0.0000 
     30 H          61.6147    9.6663  -25.0366 H         1 CLR602      0.0000 
     31 H          60.4038   11.3552  -26.3791 H         1 CLR602      0.0000 
     32 H          60.3941   10.2540  -27.7673 H         1 CLR602      0.0000 
     33 H          62.9058   11.2102  -26.3860 H         1 CLR602      0.0000 
     34 H          64.0126   10.2650  -28.3470 H         1 CLR602      0.0000 
     35 H          62.4388    9.7472  -28.9756 H         1 CLR602      0.0000 
     36 H          65.1457    8.5399  -27.5042 H         1 CLR602      0.0000 
     37 H          64.9084    7.3338  -25.1594 H         1 CLR602      0.0000 
     38 H          65.3127    6.3463  -26.5741 H         1 CLR602      0.0000 
     39 H          63.0009    5.7018  -26.8427 H         1 CLR602      0.0000 
     40 H          62.5322    7.7023  -24.6155 H         1 CLR602      0.0000 
     41 H          60.3926    5.9006  -25.8473 H         1 CLR602      0.0000 
     42 H          60.1920    7.1051  -24.5633 H         1 CLR602      0.0000 
     43 H          60.2963    4.7722  -23.6787 H         1 CLR602      0.0000 
     44 H          61.5963    5.7955  -23.0441 H         1 CLR602      0.0000 
     45 H          63.7670    5.6567  -23.8777 H         1 CLR602      0.0000 
     46 H          65.5321    4.5210  -24.8782 H         1 CLR602      0.0000 
     47 H          64.4798    3.5765  -25.9462 H         1 CLR602      0.0000 
     48 H          65.0073    3.2470  -23.0895 H         1 CLR602      0.0000 
     49 H          64.3041    2.0970  -24.2397 H         1 CLR602      0.0000 
     50 H          63.0569    4.1047  -22.4780 H         1 CLR602      0.0000 
     51 H          62.0707    1.4880  -23.7443 H         1 CLR602      0.0000 
     52 H          63.9482    1.1591  -22.2219 H         1 CLR602      0.0000 
     53 H          62.4531    0.4717  -21.5644 H         1 CLR602      0.0000 
     54 H          62.2517    2.1626  -19.9090 H         1 CLR602      0.0000 
     55 H          63.3518    3.2617  -20.7587 H         1 CLR602      0.0000 
     56 H          65.2226    1.5613  -20.3257 H         1 CLR602      0.0000 
     57 H          64.0870    0.6740  -19.2947 H         1 CLR602      0.0000 
     58 H          65.1196    3.4995  -18.8266 H         1 CLR602      0.0000 
     59 H          62.4256    2.7699  -25.9225 H         1 CLR602      0.0000 
     60 H          60.9316    2.8846  -25.3385 H         1 CLR602      0.0000 
     61 H          61.4640    3.9660  -26.4031 H         1 CLR602      0.0000 
     62 H          61.3693    6.7614  -28.1024 H         1 CLR602      0.0000 
     63 H          60.0553    7.1980  -27.2845 H         1 CLR602      0.0000 
     64 H          60.6845    8.1891  -28.3836 H         1 CLR602      0.0000 
     65 H          60.7047    3.0676  -21.6009 H         1 CLR602      0.0000 
     66 H          60.1452    2.8253  -23.0890 H         1 CLR602      0.0000 
     67 H          60.2727    1.5903  -22.0669 H         1 CLR602      0.0000 
     68 H          66.6748    1.7081  -18.2925 H         1 CLR602      0.0000 
     69 H          66.1763    2.3836  -16.9208 H         1 CLR602      0.0000 
     70 H          65.5889    0.9570  -17.3745 H         1 CLR602      0.0000 
     71 H          63.8663    3.3768  -16.7291 H         1 CLR602      0.0000 
     72 H          62.8243    3.2698  -17.9494 H         1 CLR602      0.0000 
     73 H          63.2325    1.9521  -17.1227 H         1 CLR602      0.0000 
     74 H          61.7465   11.9813  -28.8948 H         1 CLR602      0.0000 
@<TRIPOS>BOND
     1    2    1 1    
     2   10    1 1    
     3   29    1 1    
     4   30    1 1    
     5    3    2 1    
     6   31    2 1    
     7   32    2 1    
     8    4    3 1    
     9   28    3 1    
    10   33    3 1    
    11    5    4 1    
    12   34    4 1    
    13   35    4 1    
    14    6    5 2    
    15   10    5 1    
    16    7    6 1    
    17   36    6 1    
    18    8    7 1    
    19   37    7 1    
    20   38    7 1    
    21    9    8 1    
    22   14    8 1    
    23   39    8 1    
    24   10    9 1    
    25   11    9 1    
    26   40    9 1    
    27   19   10 1    
    28   12   11 1    
    29   41   11 1    
    30   42   11 1    
    31   13   12 1    
    32   43   12 1    
    33   44   12 1    
    34   14   13 1    
    35   17   13 1    
    36   18   13 1    
    37   15   14 1    
    38   45   14 1    
    39   16   15 1    
    40   46   15 1    
    41   47   15 1    
    42   17   16 1    
    43   48   16 1    
    44   49   16 1    
    45   20   17 1    
    46   50   17 1    
    47   59   18 1    
    48   60   18 1    
    49   61   18 1    
    50   62   19 1    
    51   63   19 1    
    52   64   19 1    
    53   21   20 1    
    54   22   20 1    
    55   51   20 1    
    56   65   21 1    
    57   66   21 1    
    58   67   21 1    
    59   23   22 1    
    60   52   22 1    
    61   53   22 1    
    62   24   23 1    
    63   54   23 1    
    64   55   23 1    
    65   25   24 1    
    66   56   24 1    
    67   57   24 1    
    68   26   25 1    
    69   27   25 1    
    70   58   25 1    
    71   68   26 1    
    72   69   26 1    
    73   70   26 1    
    74   71   27 1    
    75   72   27 1    
    76   73   27 1    
    77   74   28 1    
@<TRIPOS>SUBSTRUCTURE
     1 CLR602      1 GROUP   
@<TRIPOS>SET

