#    Name: 3eel_53T_1_INTS_M
#    Modification time : Tue Mar 25 01:37:51 2014

@<TRIPOS>MOLECULE
3eel_53T_1_INTS_M
  100     0     9     0     0
SMALL
NO_CHARGES


@<TRIPOS>ATOM
      1 CA         14.8100   -6.9745   -6.3280 C.3       3 GLC5        0.0000 
      2 CA         14.5480   -8.7460   -5.4170 C.3       9 GLL5        0.0000 
      3 CA         15.0720   -5.2030   -7.2390 C.3       6 GLP5        0.0000 
      4 CA         12.9835   -8.2400   -6.3145 C.3       3 GLC5        0.0000 
      5 CA         11.4190   -7.7340   -7.2120 C.3       6 GLP5        0.0000 
      6 CA         13.4530   -8.6360   -1.6160 C.3       3 GLC5        0.0000 
      7 CA         14.3600   -7.2690   -2.7130 C.3       9 GLL5        0.0000 
      8 CA         12.5460  -10.0030   -0.5190 C.3       6 GLP5        0.0000 
      9 CA         12.5605   -7.7340   -1.6930 C.3       3 GLC5        0.0000 
     10 CA         13.7290   -6.2620   -2.5490 C.3       9 GLL5        0.0000 
     11 CA         11.3920   -9.2060   -0.8370 C.3       6 GLP5        0.0000 
     12 CA         14.7790   -4.3615   -1.6370 C.3       3 GLC5        0.0000 
     13 CA         13.0720   -4.9760   -2.2460 C.3       9 GLL5        0.0000 
     14 CA         16.4860   -3.7470   -1.0280 C.3       6 GLP5        0.0000 
     15 CA         11.7005   -7.0905   -0.9810 C.3       3 GLC5        0.0000 
     16 CA         12.0090   -4.9750   -1.1250 C.3       9 GLL5        0.0000 
     17 CA         10.2985   -3.9555   -1.1140 C.3       3 GLC5        0.0000 
     18 CA          8.5880   -2.9360   -1.1030 C.3       6 GLP5        0.0000 
     19 CA         11.5025   -5.6145    0.3980 C.3       3 GLC5        0.0000 
     20 CA         10.9960   -6.2540    1.9210 C.3       6 GLP5        0.0000 
     21 CA         17.6675   -9.3845   -1.0720 C.3       3 GLC5        0.0000 
     22 CA         15.7610   -9.0030   -1.6940 C.3       9 GLL5        0.0000 
     23 CA         19.5740   -9.7660   -0.4500 C.3       6 GLP5        0.0000 
     24 CA         15.7465    0.1805   -6.1450 C.3       3 GLC5        0.0000 
     25 CA         14.7180   -0.8130   -4.7140 C.3       9 GLL5        0.0000 
     26 CA         16.7750    1.1740   -7.5760 C.3       6 GLP5        0.0000 
     27 CA         15.7330   -2.4915   -5.1990 C.3       3 GLC5        0.0000 
     28 CA         16.7480   -4.1700   -5.6840 C.3       6 GLP5        0.0000 
     29 CA         13.6185    0.5235   -4.5410 C.3       3 GLC5        0.0000 
     30 CA         12.5190    1.8600   -4.3680 C.3       6 GLP5        0.0000 
     31 CA         16.3100   -0.5090   -3.9925 C.3       3 GLC5        0.0000 
     32 CA         17.9020   -0.2050   -3.2710 C.3       6 GLP5        0.0000 
     33 CA         16.4365  -11.9280   -1.1845 C.3       3 GLC5        0.0000 
     34 CA         16.5330  -10.7770   -2.9890 C.3       9 GLL5        0.0000 
     35 CA         16.3400  -13.0790    0.6200 C.3       6 GLP5        0.0000 
     36 CA         18.0535  -10.2715   -1.7195 C.3       3 GLC5        0.0000 
     37 CA         18.0610  -10.2445   -4.1055 C.3       3 GLC5        0.0000 
     38 CA         19.5890   -9.7120   -5.2220 C.3       6 GLP5        0.0000 
     39 CA         14.7185  -11.4625   -3.3335 C.3       3 GLC5        0.0000 
     40 CA         12.9040  -12.1480   -3.6780 C.3       6 GLP5        0.0000 
     41 CA          6.6675   -6.5315   -4.0580 C.3       3 GLC5        0.0000 
     42 CA          6.9540   -6.5740   -6.0030 C.3       9 GLL5        0.0000 
     43 CA          6.3810   -6.4890   -2.1130 C.3       6 GLP5        0.0000 
     44 CA          8.3220   -3.0355   -9.3780 C.3       3 GLC5        0.0000 
     45 CA          9.3210   -4.5560  -10.1140 C.3       9 GLL5        0.0000 
     46 CA          7.3230   -1.5150   -8.6420 C.3       6 GLP5        0.0000 
     47 CA          7.0785   -4.5495  -10.1225 C.3       3 GLC5        0.0000 
     48 CA          4.8360   -4.5430  -10.1310 C.3       6 GLP5        0.0000 
     49 CA         10.2325   -1.7925   -5.0955 C.3       3 GLC5        0.0000 
     50 CA         11.8320   -2.8520   -5.7770 C.3       9 GLL5        0.0000 
     51 CA          8.6330   -0.7330   -4.4140 C.3       6 GLP5        0.0000 
     52 CA         14.4000   -3.1480   -5.9620 C.3       3 GLC5        0.0000 
     53 CA         12.8500   -2.3460   -4.9730 C.3       9 GLL5        0.0000 
     54 CA         15.9500   -3.9500   -6.9510 C.3       6 GLP5        0.0000 
     55 CA         12.6845   -0.2430   -4.6705 C.3       3 GLC5        0.0000 
     56 CA         14.9920   -3.6140   -4.7500 C.3       3 GLC5        0.0000 
     57 CA         13.2360   -3.0580   -3.8160 C.3       9 GLL5        0.0000 
     58 N          16.1680  -10.8170   -5.3065 N.am      2 SEC2        0.0000 
     59 N          15.9250  -10.3070   -4.0950 N.am      8 SEL2        0.0000 
     60 N          16.4110  -11.3270   -6.5180 N.am      5 SEP2        0.0000 
     61 O          17.2835  -12.4830   -4.2960 O.2       1 ALC1        0.0000 
     62 O          17.2010  -11.9180   -3.0710 O.2       7 ALL1        0.0000 
     63 O          17.3660  -13.0480   -5.5210 O.2       4 ALP1        0.0000 
     64 O          16.5500   -8.9215    0.4530 O.2       1 ALC1        0.0000 
     65 O          15.6990   -8.4020   -0.4980 O.2       7 ALL1        0.0000 
     66 O          17.4010   -9.4410    1.4040 O.2       4 ALP1        0.0000 
     67 O          16.9105   -7.6605    0.2840 O.2       1 ALC1        0.0000 
     68 O          18.1220   -6.9190    1.0660 O.2       4 ALP1        0.0000 
     69 CA         15.5232   -5.8578   -2.1090 C.3       3 GLC5        0.0000 
     70 CA         17.0020   -4.9500   -1.5870 C.3       6 GLP5        0.0000 
     71 CA         12.9623   -3.4002   -0.7883 C.3       3 GLC5        0.0000 
     72 CA         13.3840   -1.8250    0.1090 C.3       6 GLP5        0.0000 
     73 CA         13.9469  -10.4355   -3.7349 C.3       3 GLC5        0.0000 
     74 CA         15.1060   -8.4850   -2.8410 C.3       9 GLL5        0.0000 
     75 CA          7.3022   -4.4050   -5.1058 C.3       3 GLC5        0.0000 
     76 CA          8.1010   -5.7760   -6.6620 C.3       9 GLL5        0.0000 
     77 CA          7.0770   -2.6350   -3.8790 C.3       6 GLP5        0.0000 
     78 CA          5.8133   -5.2890   -6.3558 C.3       3 GLC5        0.0000 
     79 CA          4.0990   -4.4030   -6.3790 C.3       6 GLP5        0.0000 
     80 CA         10.0090   -6.6282   -6.7277 C.3       3 GLC5        0.0000 
     81 CA          8.2775   -3.5757   -6.7527 C.3       3 GLC5        0.0000 
     82 CA          9.0970   -5.2690   -5.8250 C.3       9 GLL5        0.0000 
     83 CA          7.9560   -1.6290   -7.2620 C.3       6 GLP5        0.0000 
     84 CA          8.3570   -3.7713   -4.9835 C.3       3 GLC5        0.0000 
     85 CA         10.0520   -6.4590   -7.7683 C.3       3 GLC5        0.0000 
     86 CA          8.1460   -5.5540   -8.0530 C.3       9 GLL5        0.0000 
     87 CA          8.3205   -3.4065   -7.7933 C.3       3 GLC5        0.0000 
     88 CA          9.2240   -4.8140   -8.5960 C.3       9 GLL5        0.0000 
     89 CA         10.8115   -6.0823   -7.1315 C.3       3 GLC5        0.0000 
     90 CA         10.2310   -4.3150   -7.7510 C.3       9 GLL5        0.0000 
     91 CA          9.0800   -3.0298   -7.1565 C.3       3 GLC5        0.0000 
     92 CA         10.1770   -4.5460   -6.3510 C.3       9 GLL5        0.0000 
     93 CA         13.2907   -4.3312   -6.4370 C.3       3 GLC5        0.0000 
     94 CA         11.1870   -4.0670   -5.4930 C.3       9 GLL5        0.0000 
     95 CA         11.4047   -6.0808   -6.0672 C.3       3 GLC5        0.0000 
     96 CA         10.2443   -3.3567   -3.6938 C.3       3 GLC5        0.0000 
     97 CA          9.0980   -2.2860   -2.4650 C.3       6 GLP5        0.0000 
     98 CA          9.7327   -2.5442   -6.4485 C.3       3 GLC5        0.0000 
     99 CA         13.1525   -2.7435   -1.7775 C.3       3 GLC5        0.0000 
    100 CA         11.0095   -2.9740   -3.0645 C.3       3 GLC5        0.0000 
@<TRIPOS>BOND
@<TRIPOS>SUBSTRUCTURE
     1 ALC1       61 GROUP        1 X    ALC  0     ROOT ALC X 1
     2 SEC2       58 GROUP        1 X    SEC  0     **** SEC X 2
     3 GLC5        1 GROUP        1 X    GLC  0     **** GLC X 6
     4 ALP1       63 GROUP        1 Y    ALP  0     ROOT ALP Y 8
     5 SEP2       60 GROUP        1 Y    SEP  0     **** SEP Y 9
     6 GLP5        3 GROUP        1 Y    GLP  0     **** GLP Y 13
     7 ALL1       62 GROUP        1 Z    ALL  0     ROOT ALL Z 15
     8 SEL2       59 GROUP        1 Z    SEL  0     **** SEL Z 16
     9 GLL5        2 GROUP        1 Z    GLL  0     **** GLL Z 20
@<TRIPOS>SET

