#    Name: 3eel_53T_1_ligand
#    Modification time : Tue Mar 25 01:37:51 2014

@<TRIPOS>MOLECULE
3eel_53T_1_ligand
   55    57     1     0     0
SMALL
NO_CHARGES


@<TRIPOS>ATOM
      1 N2         16.4370  -10.1510   -1.8190 N.ar      1 53T229      0.0000 
      2 C8         14.5480   -8.7460   -5.4170 C.3       1 53T229      0.0000 
      3 C10        14.3600   -7.2690   -2.7130 C.1       1 53T229      0.0000 
      4 C11        13.7290   -6.2620   -2.5490 C.1       1 53T229      0.0000 
      5 C12        13.0720   -4.9760   -2.2460 C.3       1 53T229      0.0000 
      6 C13        12.0090   -4.9750   -1.1250 C.3       1 53T229      0.0000 
      7 C1         15.7610   -9.0030   -1.6940 C.ar      1 53T229      0.0000 
      8 C2         14.7180   -0.8130   -4.7140 C.3       1 53T229      0.0000 
      9 C3         16.5330  -10.7770   -2.9890 C.ar      1 53T229      0.0000 
     10 C5         15.1990   -9.1760   -4.0680 C.ar      1 53T229      0.0000 
     11 C6         15.1060   -8.4850   -2.8410 C.ar      1 53T229      0.0000 
     12 C26         6.9540   -6.5740   -6.0030 C.3       1 53T229      0.0000 
     13 C21         8.1010   -5.7760   -6.6620 C.ar      1 53T229      0.0000 
     14 C20         9.0970   -5.2690   -5.8250 C.ar      1 53T229      0.0000 
     15 C22         8.1460   -5.5540   -8.0530 C.ar      1 53T229      0.0000 
     16 C23         9.2240   -4.8140   -8.5960 C.ar      1 53T229      0.0000 
     17 C27         9.3210   -4.5560  -10.1140 C.3       1 53T229      0.0000 
     18 C24        10.2310   -4.3150   -7.7510 C.ar      1 53T229      0.0000 
     19 C25        10.1770   -4.5460   -6.3510 C.ar      1 53T229      0.0000 
     20 C18        11.1870   -4.0670   -5.4930 C.ar      1 53T229      0.0000 
     21 C19        11.5940   -4.7880   -4.3520 C.ar      1 53T229      0.0000 
     22 C17        11.8320   -2.8520   -5.7770 C.ar      1 53T229      0.0000 
     23 C16        12.8500   -2.3460   -4.9730 C.ar      1 53T229      0.0000 
     24 O17        13.4340   -1.1430   -5.3490 O.3       1 53T229      0.0000 
     25 C15        13.2360   -3.0580   -3.8160 C.ar      1 53T229      0.0000 
     26 C14        12.6060   -4.2660   -3.5120 C.ar      1 53T229      0.0000 
     27 N4         15.9250  -10.3070   -4.0950 N.ar      1 53T229      0.0000 
     28 N7         17.2010  -11.9180   -3.0710 N.pl3     1 53T229      0.0000 
     29 N9         15.6990   -8.4020   -0.4980 N.pl3     1 53T229      0.0000 
     30 H          13.9131   -4.2812   -1.8410 H         1 53T229      0.0000 
     31 H           9.0399   -5.4268   -4.8078 H         1 53T229      0.0000 
     32 H           7.4185   -5.9177   -8.6585 H         1 53T229      0.0000 
     33 H          11.0120   -3.7801   -8.1424 H         1 53T229      0.0000 
     34 H          11.1611   -5.6848   -4.1303 H         1 53T229      0.0000 
     35 H          11.5350   -2.3152   -6.6186 H         1 53T229      0.0000 
     36 H          13.9694   -2.6866   -3.2126 H         1 53T229      0.0000 
     37 H          17.2062  -12.3614   -3.9673 H         1 53T229      0.0000 
     38 H          17.6396  -12.2326   -2.2292 H         1 53T229      0.0000 
     39 H          16.4907   -8.5286    0.0997 H         1 53T229      0.0000 
     40 H          14.8666   -7.8806   -0.3102 H         1 53T229      0.0000 
     41 H          14.8761   -7.8510   -5.7191 H         1 53T229      0.0000 
     42 H          14.7500   -9.3951   -6.1504 H         1 53T229      0.0000 
     43 H          13.5524   -8.6845   -5.3460 H         1 53T229      0.0000 
     44 H          12.3928   -5.2670   -0.2490 H         1 53T229      0.0000 
     45 H          11.6178   -4.0654   -0.9850 H         1 53T229      0.0000 
     46 H          11.2498   -5.5919   -1.3326 H         1 53T229      0.0000 
     47 H          15.4153   -1.5039   -4.9052 H         1 53T229      0.0000 
     48 H          15.0773    0.0629   -5.0359 H         1 53T229      0.0000 
     49 H          14.6347   -0.7480   -3.7196 H         1 53T229      0.0000 
     50 H           7.2932   -7.3802   -5.5182 H         1 53T229      0.0000 
     51 H           6.4517   -6.0216   -5.3377 H         1 53T229      0.0000 
     52 H           6.2899   -6.8957   -6.6779 H         1 53T229      0.0000 
     53 H          10.1339   -4.0232  -10.3490 H         1 53T229      0.0000 
     54 H           9.3695   -5.4092  -10.6334 H         1 53T229      0.0000 
     55 H           8.5296   -4.0493  -10.4559 H         1 53T229      0.0000 
@<TRIPOS>BOND
     1    7    1 ar   
     2    9    1 ar   
     3   10    2 1    
     4   41    2 1    
     5   42    2 1    
     6   43    2 1    
     7    4    3 3    
     8   11    3 1    
     9    5    4 1    
    10    6    5 1    
    11   26    5 1    
    12   30    5 1    
    13   44    6 1    
    14   45    6 1    
    15   46    6 1    
    16   11    7 ar   
    17   29    7 1    
    18   24    8 1    
    19   47    8 1    
    20   48    8 1    
    21   49    8 1    
    22   27    9 ar   
    23   28    9 1    
    24   11   10 ar   
    25   27   10 ar   
    26   13   12 1    
    27   50   12 1    
    28   51   12 1    
    29   52   12 1    
    30   14   13 ar   
    31   15   13 ar   
    32   19   14 ar   
    33   31   14 1    
    34   16   15 ar   
    35   32   15 1    
    36   17   16 1    
    37   18   16 ar   
    38   53   17 1    
    39   54   17 1    
    40   55   17 1    
    41   19   18 ar   
    42   33   18 1    
    43   20   19 1    
    44   21   20 ar   
    45   22   20 ar   
    46   26   21 ar   
    47   34   21 1    
    48   23   22 ar   
    49   35   22 1    
    50   24   23 1    
    51   25   23 ar   
    52   26   25 ar   
    53   36   25 1    
    54   37   28 1    
    55   38   28 1    
    56   39   29 1    
    57   40   29 1    
@<TRIPOS>SUBSTRUCTURE
     1 53T229      1 GROUP   
@<TRIPOS>SET

