#    Name: 3dm5_GDP_1_INTS_M
#    Modification time : Mon Mar 24 23:44:13 2014

@<TRIPOS>MOLECULE
3dm5_GDP_1_INTS_M
   58     0    12     0     0
SMALL
NO_CHARGES


@<TRIPOS>ATOM
      1 N          21.0985  -43.0480   45.9905 N.am      2 SEC2        0.0000 
      2 N          22.0710  -42.8540   46.8440 N.am     10 SEL2        0.0000 
      3 N          20.1260  -43.2420   45.1370 N.am      6 SEP2        0.0000 
      4 N          21.9690  -42.2460   45.3165 N.am      2 SEC2        0.0000 
      5 N          21.8670  -41.6380   43.7890 N.am      6 SEP2        0.0000 
      6 N          22.2915  -42.7135   49.1045 N.am      2 SEC2        0.0000 
      7 N          23.7360  -42.6800   48.6090 N.am     10 SEL2        0.0000 
      8 N          20.8470  -42.7470   49.6000 N.am      6 SEP2        0.0000 
      9 N          25.2180  -43.0255   48.5005 N.am      2 SEC2        0.0000 
     10 N          26.7000  -43.3710   48.3920 N.am      6 SEP2        0.0000 
     11 NZ         24.4840  -40.0555   46.2480 N.4       3 LYC4        0.0000 
     12 NZ         24.2710  -41.9250   46.2950 N.4      11 LYL4        0.0000 
     13 NZ         24.6970  -38.1860   46.2010 N.4       7 LYP4        0.0000 
     14 N          24.5565  -41.6550   44.9065 N.am      2 SEC2        0.0000 
     15 N          24.2710  -41.9250   46.2950 N.am     10 SEL2        0.0000 
     16 N          24.8420  -41.3850   43.5180 N.am      6 SEP2        0.0000 
     17 N          25.5270  -41.9380   45.8870 N.am      2 SEC2        0.0000 
     18 N          26.7830  -41.9510   45.4790 N.am      6 SEP2        0.0000 
     19 N          26.2525  -46.3815   45.1065 N.am      2 SEC2        0.0000 
     20 N          24.8980  -46.5570   45.7690 N.am     10 SEL2        0.0000 
     21 N          27.6070  -46.2060   44.4440 N.am      6 SEP2        0.0000 
     22 N          24.7850  -44.1910   43.1445 N.am      2 SEC2        0.0000 
     23 N          24.2320  -44.6410   44.3760 N.am     10 SEL2        0.0000 
     24 N          25.3380  -43.7410   41.9130 N.am      6 SEP2        0.0000 
     25 N          24.4255  -45.5370   43.3745 N.am      2 SEC2        0.0000 
     26 N          24.6190  -46.4330   42.3730 N.am      6 SEP2        0.0000 
     27 CA         21.0865  -45.2825   48.0175 C.3       4 GLC5        0.0000 
     28 CA         22.1750  -46.7340   46.9150 C.3      12 GLL5        0.0000 
     29 CA         19.9980  -43.8310   49.1200 C.3       8 GLP5        0.0000 
     30 CA         21.4930  -45.2815   45.4615 C.3       4 GLC5        0.0000 
     31 CA         20.8110  -43.8290   44.0080 C.3       8 GLP5        0.0000 
     32 CA         19.6665  -47.6230   45.8150 C.3       4 GLC5        0.0000 
     33 CA         21.6300  -48.0980   46.4820 C.3      12 GLL5        0.0000 
     34 CA         17.7030  -47.1480   45.1480 C.3       8 GLP5        0.0000 
     35 N          19.1750  -47.4440   46.0595 N.am      2 SEC2        0.0000 
     36 N          20.5820  -48.0170   45.4880 N.am     10 SEL2        0.0000 
     37 N          17.7680  -46.8710   46.6310 N.am      6 SEP2        0.0000 
     38 CA         19.3195  -48.0005   44.7600 C.3       4 GLC5        0.0000 
     39 CA         20.9360  -48.8530   44.3720 C.3      12 GLL5        0.0000 
     40 CA         18.0175  -46.1145   41.1375 C.3       4 GLC5        0.0000 
     41 CA         19.1750  -48.0070   41.2820 C.3      12 GLL5        0.0000 
     42 CA         16.8600  -44.2220   40.9930 C.3       8 GLP5        0.0000 
     43 N          17.8980  -49.0820   38.3100 N.am      2 SEC2        0.0000 
     44 N          17.7980  -47.8480   39.3200 N.am     10 SEL2        0.0000 
     45 N          17.9980  -50.3160   37.3000 N.am      6 SEP2        0.0000 
     46 N          16.5500  -47.2585   39.9005 N.am      2 SEC2        0.0000 
     47 N          15.3020  -46.6690   40.4810 N.am      6 SEP2        0.0000 
     48 O          16.3985  -50.1695   39.8960 O.2       1 ALC1        0.0000 
     49 O          17.6660  -49.7390   40.5290 O.2       9 ALL1        0.0000 
     50 O          15.1310  -50.6000   39.2630 O.2       5 ALP1        0.0000 
     51 O          16.6860  -52.1830   40.5665 O.2       1 ALC1        0.0000 
     52 O          17.4510  -51.7120   41.7310 O.2       9 ALL1        0.0000 
     53 O          15.9210  -52.6540   39.4020 O.2       5 ALP1        0.0000 
     54 CA         20.3225  -50.8035   42.1315 C.3       4 GLC5        0.0000 
     55 CA         19.5040  -48.8960   42.4010 C.3      12 GLL5        0.0000 
     56 CA         21.1410  -52.7110   41.8620 C.3       8 GLP5        0.0000 
     57 CA         17.7788  -47.9587   42.4868 C.3       4 GLC5        0.0000 
     58 CA         16.2180  -47.4660   43.1320 C.3       8 GLP5        0.0000 
@<TRIPOS>BOND
@<TRIPOS>SUBSTRUCTURE
     1 ALC1       48 GROUP        1 X    ALC  0     ROOT ALC X 1
     2 SEC2        1 GROUP        1 X    SEC  0     **** SEC X 2
     3 LYC4       11 GROUP        1 X    LYC  0     **** LYC X 4
     4 GLC5       27 GROUP        1 X    GLC  0     **** GLC X 6
     5 ALP1       50 GROUP        1 Y    ALP  0     ROOT ALP Y 8
     6 SEP2        3 GROUP        1 Y    SEP  0     **** SEP Y 9
     7 LYP4       13 GROUP        1 Y    LYP  0     **** LYP Y 11
     8 GLP5       29 GROUP        1 Y    GLP  0     **** GLP Y 13
     9 ALL1       49 GROUP        1 Z    ALL  0     ROOT ALL Z 15
    10 SEL2        2 GROUP        1 Z    SEL  0     **** SEL Z 16
    11 LYL4       12 GROUP        1 Z    LYL  0     **** LYL Z 18
    12 GLL5       28 GROUP        1 Z    GLL  0     **** GLL Z 20
@<TRIPOS>SET

