#    Name: 3dm5_GDP_1_ligand
#    Modification time : Mon Mar 24 23:44:13 2014

@<TRIPOS>MOLECULE
3dm5_GDP_1_ligand
   40    42     1     0     0
SMALL
NO_CHARGES


@<TRIPOS>ATOM
      1 PB         23.5300  -42.9350   47.1360 P.3       1 GDP501      0.0000 
      2 O1B        22.0710  -42.8540   46.8440 O.co2     1 GDP501      0.0000 
      3 O2B        23.7360  -42.6800   48.6090 O.co2     1 GDP501      0.0000 
      4 O3B        24.2710  -41.9250   46.2950 O.co2     1 GDP501      0.0000 
      5 O3A        24.0970  -44.4340   46.9500 O.3       1 GDP501      0.0000 
      6 PA         23.9750  -45.3800   45.6580 P.3       1 GDP501      0.0000 
      7 O1A        24.8980  -46.5570   45.7690 O.co2     1 GDP501      0.0000 
      8 O2A        24.2320  -44.6410   44.3760 O.co2     1 GDP501      0.0000 
      9 O5'        22.4660  -45.9190   45.7860 O.3       1 GDP501      0.0000 
     10 C5'        22.1750  -46.7340   46.9150 C.3       1 GDP501      0.0000 
     11 C4'        21.6300  -48.0980   46.4820 C.3       1 GDP501      0.0000 
     12 O4'        20.5820  -48.0170   45.4880 O.3       1 GDP501      0.0000 
     13 C3'        22.7290  -48.9670   45.8960 C.3       1 GDP501      0.0000 
     14 O3'        22.5450  -50.2570   46.4870 O.3       1 GDP501      0.0000 
     15 C2'        22.4390  -48.9780   44.4060 C.3       1 GDP501      0.0000 
     16 O2'        22.7730  -50.2030   43.7950 O.3       1 GDP501      0.0000 
     17 C1'        20.9360  -48.8530   44.3720 C.3       1 GDP501      0.0000 
     18 N9         20.4060  -48.2710   43.1290 N.pl3     1 GDP501      0.0000 
     19 C8         20.6610  -47.0720   42.5790 C.2       1 GDP501      0.0000 
     20 N7         19.9260  -46.9010   41.4460 N.2       1 GDP501      0.0000 
     21 C5         19.1750  -48.0070   41.2820 C.2       1 GDP501      0.0000 
     22 C6         18.1720  -48.5190   40.3110 C.2       1 GDP501      0.0000 
     23 O6         17.7980  -47.8480   39.3200 O.2       1 GDP501      0.0000 
     24 N1         17.6660  -49.7390   40.5290 N.am      1 GDP501      0.0000 
     25 C2         18.0160  -50.4950   41.5840 C.2       1 GDP501      0.0000 
     26 N2         17.4510  -51.7120   41.7310 N.pl3     1 GDP501      0.0000 
     27 N3         18.9100  -50.0970   42.5090 N.2       1 GDP501      0.0000 
     28 C4         19.5040  -48.8960   42.4010 C.2       1 GDP501      0.0000 
     29 H          21.4212  -46.2703   47.5713 H         1 GDP501      0.0000 
     30 H          23.0707  -46.9163   47.5302 H         1 GDP501      0.0000 
     31 H          21.2566  -48.6152   47.3708 H         1 GDP501      0.0000 
     32 H          23.6475  -48.5309   46.0920 H         1 GDP501      0.0000 
     33 H          22.8545  -48.1294   43.9598 H         1 GDP501      0.0000 
     34 H          20.5151  -49.8444   44.5285 H         1 GDP501      0.0000 
     35 H          21.2851  -46.4084   42.9349 H         1 GDP501      0.0000 
     36 H          16.9563  -50.1291   39.8392 H         1 GDP501      0.0000 
     37 H          17.7549  -52.2458   42.5201 H         1 GDP501      0.0000 
     38 H          16.7787  -51.9717   41.0377 H         1 GDP501      0.0000 
     39 H          23.4393  -50.4990   46.8636 H         1 GDP501      0.0000 
     40 H          22.9175  -50.8392   44.5529 H         1 GDP501      0.0000 
@<TRIPOS>BOND
     1    2    1 ar   
     2    3    1 ar   
     3    4    1 ar   
     4    5    1 1    
     5    6    5 1    
     6    7    6 ar   
     7    8    6 ar   
     8    9    6 1    
     9   10    9 1    
    10   11   10 1    
    11   29   10 1    
    12   30   10 1    
    13   12   11 1    
    14   13   11 1    
    15   31   11 1    
    16   17   12 1    
    17   14   13 1    
    18   15   13 1    
    19   32   13 1    
    20   39   14 1    
    21   16   15 1    
    22   17   15 1    
    23   33   15 1    
    24   40   16 1    
    25   18   17 1    
    26   34   17 1    
    27   19   18 1    
    28   28   18 1    
    29   20   19 2    
    30   35   19 1    
    31   21   20 1    
    32   22   21 1    
    33   28   21 2    
    34   23   22 2    
    35   24   22 am   
    36   25   24 1    
    37   36   24 1    
    38   26   25 1    
    39   27   25 2    
    40   37   26 1    
    41   38   26 1    
    42   28   27 1    
@<TRIPOS>SUBSTRUCTURE
     1 GDP501      1 GROUP   
@<TRIPOS>SET

