#    Name: 1tfz_869_1_INTS_M
#    Modification time : Tue Mar 25 05:00:15 2014

@<TRIPOS>MOLECULE
1tfz_869_1_INTS_M
   56     0     6     0     0
SMALL
NO_CHARGES


@<TRIPOS>ATOM
      1 CA         36.2435   37.9010   51.1370 C.3       2 GLC5        0.0000 
      2 CA         37.3490   36.1570   51.7690 C.3       6 GLL5        0.0000 
      3 CA         35.1380   39.6450   50.5050 C.3       4 GLP5        0.0000 
      4 CA         46.6810   41.4310   54.6150 C.3       2 GLC5        0.0000 
      5 CA         45.0640   40.2680   53.9310 C.3       6 GLL5        0.0000 
      6 CA         48.2980   42.5940   55.2990 C.3       4 GLP5        0.0000 
      7 CA         44.2040   42.4030   56.0350 C.3       2 GLC5        0.0000 
      8 CA         44.0120   40.7300   54.7330 C.3       6 GLL5        0.0000 
      9 CA         44.3960   44.0760   57.3370 C.3       4 GLP5        0.0000 
     10 CA         43.3590   39.3745   50.7535 C.3       2 GLC5        0.0000 
     11 CA         43.3390   37.8200   51.7150 C.3       6 GLL5        0.0000 
     12 CA         43.3790   40.9290   49.7920 C.3       4 GLP5        0.0000 
     13 CA         42.1310   37.1430   50.2450 C.3       2 GLC5        0.0000 
     14 CA         40.9230   36.4660   48.7750 C.3       4 GLP5        0.0000 
     15 CA         48.8885   38.6310   52.6055 C.3       2 GLC5        0.0000 
     16 CA         46.9410   37.7970   52.5700 C.3       6 GLL5        0.0000 
     17 CA         50.8360   39.4650   52.6410 C.3       4 GLP5        0.0000 
     18 Zn         47.8155   38.2255   49.7585 Zn        1 ZIC7        0.0000 
     19 Zn         48.2040   37.4520   50.4770 Zn        5 ZIL7        0.0000 
     20 Zn         47.4270   38.9990   49.0400 Zn        3 ZIP7        0.0000 
     21 Zn         46.6375   39.0590   49.9510 Zn        1 ZIC7        0.0000 
     22 Zn         45.8480   39.1190   50.8620 Zn        5 ZIL7        0.0000 
     23 CA         41.7775   38.7445   57.2420 C.3       2 GLC5        0.0000 
     24 CA         40.6990   39.9780   56.4900 C.3       6 GLL5        0.0000 
     25 CA         42.8560   37.5110   57.9940 C.3       4 GLP5        0.0000 
     26 CA         39.7415   41.8050   56.8865 C.3       2 GLC5        0.0000 
     27 CA         38.7840   43.6320   57.2830 C.3       4 GLP5        0.0000 
     28 CA         50.2265   37.4835   52.5150 C.3       2 GLC5        0.0000 
     29 CA         49.6170   35.5020   52.3890 C.3       6 GLL5        0.0000 
     30 CA         48.0450   33.4520   50.2915 C.3       2 GLC5        0.0000 
     31 CA         48.8050   34.3050   51.9020 C.3       6 GLL5        0.0000 
     32 CA         47.2850   32.5990   48.6810 C.3       4 GLP5        0.0000 
     33 CA         49.2050   33.0085   53.4655 C.3       2 GLC5        0.0000 
     34 CA         49.6050   31.7120   55.0290 C.3       4 GLP5        0.0000 
     35 CA         50.1905   36.8625   49.2810 C.3       2 GLC5        0.0000 
     36 CA         50.5580   35.9400   51.2870 C.3       6 GLL5        0.0000 
     37 CA         49.8230   37.7850   47.2750 C.3       4 GLP5        0.0000 
     38 CA         49.4490   35.2970   49.4960 C.3       2 GLC5        0.0000 
     39 CA         48.3400   34.6540   47.7050 C.3       4 GLP5        0.0000 
     40 CA         52.3220   35.2445   51.6150 C.3       2 GLC5        0.0000 
     41 CA         54.0860   34.5490   51.9430 C.3       4 GLP5        0.0000 
     42 CA         51.3130   37.5155   51.5715 C.3       2 GLC5        0.0000 
     43 CA         52.0680   39.0910   51.8560 C.3       4 GLP5        0.0000 
     44 CA         50.0570   33.3920   54.3035 C.3       2 GLC5        0.0000 
     45 CA         50.5090   35.0720   53.5780 C.3       6 GLL5        0.0000 
     46 CA         52.2975   34.8105   52.7605 C.3       2 GLC5        0.0000 
     47 CA         51.1610   35.9150   54.8985 C.3       2 GLC5        0.0000 
     48 CA         51.8130   36.7580   56.2190 C.3       4 GLP5        0.0000 
     49 CA         39.8573   40.4610   50.3280 C.3       2 GLC5        0.0000 
     50 CA         39.2230   38.8020   51.7340 C.3       6 GLL5        0.0000 
     51 CA         39.8470   41.8860   48.7830 C.3       4 GLP5        0.0000 
     52 CA         37.9311   39.6010   51.4655 C.3       2 GLC5        0.0000 
     53 CA         40.5120   39.2700   52.0120 C.3       6 GLL5        0.0000 
     54 CA         36.6260   40.7220   50.6900 C.3       4 GLP5        0.0000 
     55 CA         50.6078   34.3459   50.5161 C.3       2 GLC5        0.0000 
     56 CA         51.3310   33.2700   49.3160 C.3       4 GLP5        0.0000 
@<TRIPOS>BOND
@<TRIPOS>SUBSTRUCTURE
     1 ZIC7       18 GROUP        1 X    ZIC  0     ROOT ZIC X 5
     2 GLC5        1 GROUP        1 X    GLC  0     **** GLC X 6
     3 ZIP7       20 GROUP        1 Y    ZIP  0     ROOT ZIP Y 12
     4 GLP5        3 GROUP        1 Y    GLP  0     **** GLP Y 13
     5 ZIL7       19 GROUP        1 Z    ZIL  0     ROOT ZIL Z 19
     6 GLL5        2 GROUP        1 Z    GLL  0     **** GLL Z 20
@<TRIPOS>SET

