#    Name: 1tfz_869_1_ligand
#    Modification time : Tue Mar 25 05:00:15 2014

@<TRIPOS>MOLECULE
1tfz_869_1_ligand
   56    58     1     0     0
SMALL
NO_CHARGES


@<TRIPOS>ATOM
      1 O30        37.2990   37.4720   52.3400 O.3       1 869551      0.0000 
      2 C31        37.3490   36.1570   51.7690 C.3       1 869551      0.0000 
      3 C24        39.2230   38.8020   51.7340 C.ar      1 869551      0.0000 
      4 C25        40.5120   39.2700   52.0120 C.ar      1 869551      0.0000 
      5 C26        41.1830   38.8450   53.1830 C.ar      1 869551      0.0000 
      6 C27        40.5610   37.9640   54.0510 C.ar      1 869551      0.0000 
      7 C28        39.2720   37.5030   53.7710 C.ar      1 869551      0.0000 
      8 C29        38.6050   37.9240   52.6090 C.ar      1 869551      0.0000 
      9 C1         43.5410   38.8610   52.6570 C.ar      1 869551      0.0000 
     10 C2         44.8480   39.3390   52.9030 C.ar      1 869551      0.0000 
     11 C3         45.0640   40.2680   53.9310 C.ar      1 869551      0.0000 
     12 C4         44.0120   40.7300   54.7330 C.ar      1 869551      0.0000 
     13 C5         42.6860   40.2750   54.5290 C.ar      1 869551      0.0000 
     14 C6         42.4480   39.3100   53.4540 C.ar      1 869551      0.0000 
     15 C7         43.3390   37.8200   51.7150 C.3       1 869551      0.0000 
     16 C9         46.9410   37.7970   52.5700 C.2       1 869551      0.0000 
     17 C15        47.9950   37.3700   51.8590 C.2       1 869551      0.0000 
     18 C18        46.8590   37.4050   53.8810 C.2       1 869551      0.0000 
     19 N16        48.6900   36.6260   52.7610 N.pl3     1 869551      0.0000 
     20 N17        47.9750   36.6540   54.0260 N.2       1 869551      0.0000 
     21 O19        48.2040   37.4520   50.4770 O.co2     1 869551      0.0000 
     22 C8         45.9790   38.9070   52.0840 C.2       1 869551      0.0000 
     23 O10        45.8480   39.1190   50.8620 O.2       1 869551      0.0000 
     24 S11        41.5240   41.0020   55.3790 S.o2      1 869551      0.0000 
     25 O13        40.6190   41.5870   54.5200 O.2       1 869551      0.0000 
     26 O12        42.0670   42.0320   56.1110 O.2       1 869551      0.0000 
     27 C14        40.6990   39.9780   56.4900 C.3       1 869551      0.0000 
     28 C20        49.6170   35.5020   52.3890 C.3       1 869551      0.0000 
     29 C21        48.8050   34.3050   51.9020 C.3       1 869551      0.0000 
     30 C22        50.5580   35.9400   51.2870 C.3       1 869551      0.0000 
     31 C23        50.5090   35.0720   53.5780 C.3       1 869551      0.0000 
     32 H          38.7418   39.1124   50.8819 H         1 869551      0.0000 
     33 H          40.9757   39.9202   51.3724 H         1 869551      0.0000 
     34 H          41.0418   37.6460   54.9017 H         1 869551      0.0000 
     35 H          38.8072   36.8529   54.4163 H         1 869551      0.0000 
     36 H          46.0225   40.6201   54.1008 H         1 869551      0.0000 
     37 H          44.1984   41.4097   55.4828 H         1 869551      0.0000 
     38 H          46.2046   37.6079   54.4978 H         1 869551      0.0000 
     39 H          37.8627   36.1439   50.9111 H         1 869551      0.0000 
     40 H          37.7881   35.5017   52.3836 H         1 869551      0.0000 
     41 H          36.4350   35.8040   51.5688 H         1 869551      0.0000 
     42 H          43.6524   38.0797   50.8016 H         1 869551      0.0000 
     43 H          43.8329   36.9884   51.9689 H         1 869551      0.0000 
     44 H          42.3730   37.5742   51.6345 H         1 869551      0.0000 
     45 H          41.3214   39.5893   57.1694 H         1 869551      0.0000 
     46 H          39.9881   40.4708   56.9918 H         1 869551      0.0000 
     47 H          40.2536   39.2112   56.0279 H         1 869551      0.0000 
     48 H          49.3922   33.5363   51.6485 H         1 869551      0.0000 
     49 H          48.1747   33.9734   52.6040 H         1 869551      0.0000 
     50 H          48.2553   34.5315   51.0979 H         1 869551      0.0000 
     51 H          51.1182   36.7202   51.5653 H         1 869551      0.0000 
     52 H          51.1857   35.2081   51.0219 H         1 869551      0.0000 
     53 H          50.0626   36.2141   50.4627 H         1 869551      0.0000 
     54 H          51.1261   34.3257   53.3285 H         1 869551      0.0000 
     55 H          51.0783   35.8256   53.9068 H         1 869551      0.0000 
     56 H          49.9649   34.7551   54.3549 H         1 869551      0.0000 
@<TRIPOS>BOND
     1    2    1 1    
     2    8    1 1    
     3   39    2 1    
     4   40    2 1    
     5   41    2 1    
     6    4    3 ar   
     7    8    3 ar   
     8   32    3 1    
     9    5    4 ar   
    10   33    4 1    
    11    6    5 ar   
    12   14    5 1    
    13    7    6 ar   
    14   34    6 1    
    15    8    7 ar   
    16   35    7 1    
    17   10    9 ar   
    18   14    9 ar   
    19   15    9 1    
    20   11   10 ar   
    21   22   10 1    
    22   12   11 ar   
    23   36   11 1    
    24   13   12 ar   
    25   37   12 1    
    26   14   13 ar   
    27   24   13 1    
    28   42   15 1    
    29   43   15 1    
    30   44   15 1    
    31   17   16 2    
    32   18   16 1    
    33   22   16 1    
    34   19   17 1    
    35   21   17 ar   
    36   20   18 2    
    37   38   18 1    
    38   20   19 1    
    39   28   19 1    
    40   23   22 2    
    41   25   24 2    
    42   26   24 2    
    43   27   24 1    
    44   45   27 1    
    45   46   27 1    
    46   47   27 1    
    47   29   28 1    
    48   30   28 1    
    49   31   28 1    
    50   48   29 1    
    51   49   29 1    
    52   50   29 1    
    53   51   30 1    
    54   52   30 1    
    55   53   30 1    
    56   54   31 1    
    57   55   31 1    
    58   56   31 1    
@<TRIPOS>SUBSTRUCTURE
     1 869551      1 GROUP   
@<TRIPOS>SET

