#    Name: 2V7W_1_CAVITY_N1_ALL.mol2
#    Modification time : Mon Mar 10 15:25:56 2014

@<TRIPOS>MOLECULE
2V7W_1_CAVITY_N1_ALL.mol2
   55     0     5     0     0
SMALL
NO_CHARGES


@<TRIPOS>ATOM
      1 OG         42.2677   13.4139   72.5565 O.2       1 SER1        0.0000 
      2 CA         40.3697   12.5160   72.2541 C.3       5 GLY6        0.0000 
      3 CA         41.2453   13.4387   71.4592 C.3       5 GLY6        0.0000 
      4 CA         39.3473   12.5409   71.1568 C.3       5 GLY6        0.0000 
      5 CZ         35.5513   10.7452   70.5520 C.ar      4 PHE5        0.0000 
      6 CZ         36.4269   11.6679   69.7571 C.ar      4 PHE5        0.0000 
      7 CA         37.3025   12.5906   68.9622 C.3       5 GLY6        0.0000 
      8 OG         34.5289   10.7700   69.4547 O.2       1 SER1        0.0000 
      9 OG         35.4045   11.6928   68.6598 O.2       1 SER1        0.0000 
     10 CZ         36.2801   12.6155   67.8649 C.ar      4 PHE5        0.0000 
     11 OG         33.5065   10.7949   68.3574 O.2       1 SER1        0.0000 
     12 CZ         34.3821   11.7176   67.5625 C.ar      4 PHE5        0.0000 
     13 NZ         35.2577   12.6404   66.7675 N.2       3 LYS4        0.0000 
     14 OG         33.8670   11.9524   70.0981 O.2       1 SER1        0.0000 
     15 CZ         42.7234    9.6817   65.8959 C.ar      4 PHE5        0.0000 
     16 CZ         41.7010    9.7066   64.7986 C.ar      4 PHE5        0.0000 
     17 CA         42.2084    9.9165   68.4315 C.3       5 GLY6        0.0000 
     18 N          43.0840   10.8392   67.6366 N.2       2 ALA2        0.0000 
     19 CZ         41.1860    9.9414   67.3342 C.ar      4 PHE5        0.0000 
     20 O          42.0616   10.8641   66.5393 O.2       2 ALA2        0.0000 
     21 CZ         40.1636    9.9663   66.2369 C.ar      4 PHE5        0.0000 
     22 CZ         41.0392   10.8890   65.4420 C.ar      4 PHE5        0.0000 
     23 CZ         37.3900    8.1457   66.7295 C.ar      4 PHE5        0.0000 
     24 N          42.5689   11.0740   70.1723 N.2       2 ALA2        0.0000 
     25 N          40.6709   10.1762   69.8699 N.2       2 ALA2        0.0000 
     26 N          41.5465   11.0989   69.0750 N.2       2 ALA2        0.0000 
     27 N          42.4221   12.0216   68.2801 N.2       2 ALA2        0.0000 
     28 N          40.5241   11.1237   67.9777 N.2       2 ALA2        0.0000 
     29 CZ         41.3998   12.0465   67.1828 C.ar      4 PHE5        0.0000 
     30 N          38.6261   10.2259   67.6753 N.2       2 ALA2        0.0000 
     31 CZ         39.5017   11.1486   66.8804 C.ar      4 PHE5        0.0000 
     32 CZ         40.3774   12.0713   66.0854 C.ar      4 PHE5        0.0000 
     33 OG         35.8525    8.4053   68.1678 O.2       1 SER1        0.0000 
     34 N          36.7281    9.3280   67.3729 N.2       2 ALA2        0.0000 
     35 CZ         37.6037   10.2508   66.5780 C.ar      4 PHE5        0.0000 
     36 CZ         38.4794   11.1735   65.7831 C.ar      4 PHE5        0.0000 
     37 OG         34.8301    8.4302   67.0705 O.2       1 SER1        0.0000 
     38 NZ         35.7057    9.3529   66.2756 N.2       3 LYS4        0.0000 
     39 O          41.0315   11.3336   71.6107 O.2       2 ALA2        0.0000 
     40 CA         41.9071   12.2564   70.8157 C.3       5 GLY6        0.0000 
     41 O          42.7827   13.1791   70.0208 O.2       2 ALA2        0.0000 
     42 CZ         40.0091   11.3585   70.5133 C.ar      4 PHE5        0.0000 
     43 CA         40.8847   12.2812   69.7184 C.3       5 GLY6        0.0000 
     44 NZ         41.7603   13.2040   68.9235 N.2       3 LYS4        0.0000 
     45 N          38.9867   11.3834   69.4160 N.2       2 ALA2        0.0000 
     46 CZ         39.8623   12.3061   68.6211 C.ar      4 PHE5        0.0000 
     47 N          36.2131    9.5628   69.9086 N.2       2 ALA2        0.0000 
     48 N          37.0887   10.4855   69.1136 N.2       2 ALA2        0.0000 
     49 N          37.9643   11.4083   68.3187 N.2       2 ALA2        0.0000 
     50 CZ         38.8399   12.3310   67.5238 C.ar      4 PHE5        0.0000 
     51 OG         35.1907    9.5877   68.8113 O.2       1 SER1        0.0000 
     52 N          36.0663   10.5104   68.0163 N.2       2 ALA2        0.0000 
     53 CZ         36.9419   11.4331   67.2214 C.ar      4 PHE5        0.0000 
     54 CZ         34.1683    9.6126   67.7139 C.ar      4 PHE5        0.0000 
     55 CZ         35.0439   10.5353   66.9190 C.ar      4 PHE5        0.0000 
@<TRIPOS>BOND
@<TRIPOS>SUBSTRUCTURE
     1 SER1        1 GROUP   
     2 ALA2       18 GROUP   
     3 LYS4       13 GROUP   
     4 PHE5        5 GROUP   
     5 GLY6        2 GROUP   
@<TRIPOS>SET

