#    Name: 2v7w_5FD_1_INTS_M
#    Modification time : Tue Mar 25 01:16:32 2014

@<TRIPOS>MOLECULE
2v7w_5FD_1_INTS_M
   62     0     9     0     0
SMALL
NO_CHARGES


@<TRIPOS>ATOM
      1 N          43.7580   14.4210   67.6145 N.am      2 SEC2        0.0000 
      2 N          43.6620   13.0100   67.6940 N.am      8 SEL2        0.0000 
      3 N          43.8540   15.8320   67.5350 N.am      5 SEP2        0.0000 
      4 N          44.5290   12.9650   69.0800 N.am      2 SEC2        0.0000 
      5 N          45.3960   12.9200   70.4660 N.am      5 SEP2        0.0000 
      6 CA         41.5515   13.8315   66.5855 C.3       3 GLC5        0.0000 
      7 CA         42.2900   12.5730   67.6830 C.3       9 GLL5        0.0000 
      8 CA         40.8130   15.0900   65.4880 C.3       6 GLP5        0.0000 
      9 CA         43.8350   12.7655   66.3115 C.3       3 GLC5        0.0000 
     10 CA         45.3800   12.9580   64.9400 C.3       6 GLP5        0.0000 
     11 CA         40.6905   13.8575   67.7065 C.3       3 GLC5        0.0000 
     12 CA         41.6230   12.8070   69.0450 C.3       9 GLL5        0.0000 
     13 CA         39.7580   14.9080   66.3680 C.3       6 GLP5        0.0000 
     14 CA         40.0905   13.8875   69.7630 C.3       3 GLC5        0.0000 
     15 CA         38.5580   14.9680   70.4810 C.3       6 GLP5        0.0000 
     16 N          43.9255   13.2550   70.1815 N.am      2 SEC2        0.0000 
     17 N          42.4550   13.5900   69.8970 N.am      8 SEL2        0.0000 
     18 O          42.3850   14.8320   69.4965 O.2       1 ALC1        0.0000 
     19 O          42.4550   13.5900   69.8970 O.2       7 ALL1        0.0000 
     20 O          42.3150   16.0740   69.0960 O.2       4 ALP1        0.0000 
     21 CA         43.1190   11.2790   70.7870 C.3       3 GLC5        0.0000 
     22 CA         41.5750   11.3870   69.5800 C.3       9 GLL5        0.0000 
     23 CA         44.6630   11.1710   71.9940 C.3       6 GLP5        0.0000 
     24 CA         42.0005    9.3280   69.3405 C.3       3 GLC5        0.0000 
     25 CA         42.4260    7.2690   69.1010 C.3       6 GLP5        0.0000 
     26 CA         39.4265   13.1085   70.4135 C.3       3 GLC5        0.0000 
     27 CA         40.2950   11.2490   70.3460 C.3       9 GLL5        0.0000 
     28 CA         42.6635   11.1460   71.8090 C.3       3 GLC5        0.0000 
     29 CA         40.6640   11.1210   71.6240 C.3       9 GLL5        0.0000 
     30 CA         41.7385    9.2110   71.1215 C.3       3 GLC5        0.0000 
     31 CA         42.8130    7.3010   70.6190 C.3       6 GLP5        0.0000 
     32 CA         41.0205    9.7440   73.1760 C.3       3 GLC5        0.0000 
     33 CA         41.3770    8.3670   74.7280 C.3       6 GLP5        0.0000 
     34 CA         40.9365   11.6530   73.2755 C.3       3 GLC5        0.0000 
     35 CA         41.2090   12.1850   74.9270 C.3       6 GLP5        0.0000 
     36 CA         41.2410    9.1905   66.6830 C.3       3 GLC5        0.0000 
     37 CA         42.2060   11.0400   67.5000 C.3       9 GLL5        0.0000 
     38 CA         40.2760    7.3410   65.8660 C.3       6 GLP5        0.0000 
     39 CA         44.2895   10.4430   67.4825 C.3       3 GLC5        0.0000 
     40 CA         46.3730    9.8460   67.4650 C.3       6 GLP5        0.0000 
     41 CA         42.3160    9.1545   68.3005 C.3       3 GLC5        0.0000 
     42 N          39.2800   10.5760   63.5595 N.am      2 SEC2        0.0000 
     43 N          40.6210   10.6810   64.2440 N.am      8 SEL2        0.0000 
     44 N          37.9390   10.4710   62.8750 N.am      5 SEP2        0.0000 
     45 CA         44.4465    9.9830   66.3405 C.3       3 GLC5        0.0000 
     46 CA         42.5200   10.1200   65.2160 C.3       9 GLL5        0.0000 
     47 CA         43.7010    7.2935   64.0915 C.3       3 GLC5        0.0000 
     48 CA         44.3440    8.9800   64.2900 C.3       9 GLL5        0.0000 
     49 CA         43.0580    5.6070   63.8930 C.3       6 GLP5        0.0000 
     50 CA         45.3305    9.5490   62.8595 C.3       3 GLC5        0.0000 
     51 CA         46.3170   10.1180   61.4290 C.3       6 GLP5        0.0000 
     52 CA         45.3585    9.4130   65.8775 C.3       3 GLC5        0.0000 
     53 CA         42.7205    7.5260   63.4015 C.3       3 GLC5        0.0000 
     54 CA         42.3830    9.4450   62.9100 C.3       9 GLL5        0.0000 
     55 CA         44.3500    9.7815   62.1695 C.3       3 GLC5        0.0000 
     56 O          42.4240    8.7545   60.6430 O.2       1 ALC1        0.0000 
     57 O          41.7450    9.3490   61.7240 O.2       7 ALL1        0.0000 
     58 O          43.1030    8.1600   59.5620 O.2       4 ALP1        0.0000 
     59 O          40.3600    9.7560   61.3115 O.2       1 ALC1        0.0000 
     60 O          38.9750   10.1630   60.8990 O.2       4 ALP1        0.0000 
     61 CA         38.9612   11.2025   71.9295 C.3       3 GLC5        0.0000 
     62 CA         37.4430   11.2200   72.8740 C.3       6 GLP5        0.0000 
@<TRIPOS>BOND
@<TRIPOS>SUBSTRUCTURE
     1 ALC1       18 GROUP        1 X    ALC  0     ROOT ALC X 1
     2 SEC2        1 GROUP        1 X    SEC  0     **** SEC X 2
     3 GLC5        6 GROUP        1 X    GLC  0     **** GLC X 6
     4 ALP1       20 GROUP        1 Y    ALP  0     ROOT ALP Y 8
     5 SEP2        3 GROUP        1 Y    SEP  0     **** SEP Y 9
     6 GLP5        8 GROUP        1 Y    GLP  0     **** GLP Y 13
     7 ALL1       19 GROUP        1 Z    ALL  0     ROOT ALL Z 15
     8 SEL2        2 GROUP        1 Z    SEL  0     **** SEL Z 16
     9 GLL5        7 GROUP        1 Z    GLL  0     **** GLL Z 20
@<TRIPOS>SET

