#    Name: 2v7w_5FD_1_ligand
#    Modification time : Tue Mar 25 01:16:32 2014

@<TRIPOS>MOLECULE
2v7w_5FD_1_ligand
   35    37     1     0     0
SMALL
NO_CHARGES


@<TRIPOS>ATOM
      1 O2'        43.6620   13.0100   67.6940 O.3       1 5FD1299     0.0000 
      2 C2'        42.2900   12.5730   67.6830 C.3       1 5FD1299     0.0000 
      3 C3'        41.6230   12.8070   69.0450 C.3       1 5FD1299     0.0000 
      4 O3'        42.4550   13.5900   69.8970 O.3       1 5FD1299     0.0000 
      5 C4'        41.5750   11.3870   69.5800 C.3       1 5FD1299     0.0000 
      6 C5'        40.2950   11.2490   70.3460 C.3       1 5FD1299     0.0000 
      7 F19        40.6640   11.1210   71.6240 F         1 5FD1299     0.0000 
      8 O4'        41.2320   10.6450   68.4470 O.3       1 5FD1299     0.0000 
      9 C1'        42.2060   11.0400   67.5000 C.3       1 5FD1299     0.0000 
     10 N9         41.7610   10.7570   66.1180 N.pl3     1 5FD1299     0.0000 
     11 C8         40.5990   11.1090   65.5220 C.2       1 5FD1299     0.0000 
     12 N7         40.6210   10.6810   64.2440 N.2       1 5FD1299     0.0000 
     13 C5         41.8010   10.0790   64.0260 C.3       1 5FD1299     0.0000 
     14 C4         42.5200   10.1200   65.2160 C.3       1 5FD1299     0.0000 
     15 N3         43.7510    9.5700   65.3240 N.pl3     1 5FD1299     0.0000 
     16 C2         44.3440    8.9800   64.2900 C.2       1 5FD1299     0.0000 
     17 N1         43.6430    8.9060   63.0570 N.pl3     1 5FD1299     0.0000 
     18 C6         42.3830    9.4450   62.9100 C.2       1 5FD1299     0.0000 
     19 N6         41.7450    9.3490   61.7240 N.pl3     1 5FD1299     0.0000 
     20 H          41.6998   13.0257   66.9365 H         1 5FD1299     0.0000 
     21 H          40.6623   13.1539   68.9040 H         1 5FD1299     0.0000 
     22 H          42.3690   11.1091   70.0693 H         1 5FD1299     0.0000 
     23 H          39.7659   10.3800   69.9452 H         1 5FD1299     0.0000 
     24 H          39.6941   12.1396   70.1421 H         1 5FD1299     0.0000 
     25 H          43.1561   10.6413   67.6990 H         1 5FD1299     0.0000 
     26 H          39.8735   11.5887   65.9453 H         1 5FD1299     0.0000 
     27 H          42.4022   11.3421   63.6789 H         1 5FD1299     0.0000 
     28 H          43.0636   11.3873   64.7855 H         1 5FD1299     0.0000 
     29 H          44.2450    9.6152   66.2558 H         1 5FD1299     0.0000 
     30 H          45.2837    8.5753   64.3392 H         1 5FD1299     0.0000 
     31 H          44.1053    8.4318   62.2596 H         1 5FD1299     0.0000 
     32 H          42.2567    8.9141   60.9830 H         1 5FD1299     0.0000 
     33 H          40.8175    9.7213   61.6919 H         1 5FD1299     0.0000 
     34 H          43.8756   13.1675   68.6581 H         1 5FD1299     0.0000 
     35 H          42.0533   14.5056   69.8805 H         1 5FD1299     0.0000 
@<TRIPOS>BOND
     1    2    1 1    
     2   34    1 1    
     3    3    2 1    
     4    9    2 1    
     5   20    2 1    
     6    4    3 1    
     7    5    3 1    
     8   21    3 1    
     9   35    4 1    
    10    6    5 1    
    11    8    5 1    
    12   22    5 1    
    13    7    6 1    
    14   23    6 1    
    15   24    6 1    
    16    9    8 1    
    17   10    9 1    
    18   25    9 1    
    19   11   10 1    
    20   14   10 1    
    21   12   11 2    
    22   26   11 1    
    23   13   12 1    
    24   14   13 1    
    25   18   13 1    
    26   27   13 1    
    27   15   14 1    
    28   28   14 1    
    29   16   15 2    
    30   29   15 1    
    31   17   16 1    
    32   30   16 1    
    33   18   17 2    
    34   31   17 1    
    35   19   18 1    
    36   32   19 1    
    37   33   19 1    
@<TRIPOS>SUBSTRUCTURE
     1 5FD1299     1 GROUP   
@<TRIPOS>SET

