#    Name: 1fvt_106_1_INTS_M
#    Modification time : Tue Mar 25 02:06:52 2014

@<TRIPOS>MOLECULE
1fvt_106_1_INTS_M
   55     0     9     0     0
SMALL
NO_CHARGES


@<TRIPOS>ATOM
      1 O          40.5715   10.7240  -16.6800 O.2       1 ALC1        0.0000 
      2 O          40.5760    9.9930  -15.5280 O.2       7 ALL1        0.0000 
      3 O          40.5670   11.4550  -17.8320 O.2       4 ALP1        0.0000 
      4 N          37.7920   11.7645  -15.5570 N.am      2 SEC2        0.0000 
      5 N          38.8350   11.3520  -14.7510 N.am      8 SEL2        0.0000 
      6 N          36.7490   12.1770  -16.3630 N.am      5 SEP2        0.0000 
      7 CA         45.7110    6.2200  -11.7385 C.3       3 GLC5        0.0000 
      8 CA         43.8710    6.1500  -12.0940 C.3       9 GLL5        0.0000 
      9 CA         47.5510    6.2900  -11.3830 C.3       6 GLP5        0.0000 
     10 CA         44.0940    4.1210  -12.8330 C.3       3 GLC5        0.0000 
     11 CA         44.3170    2.0920  -13.5720 C.3       6 GLP5        0.0000 
     12 CA         34.6525   12.2040  -12.2030 C.3       3 GLC5        0.0000 
     13 CA         36.1770   11.3750  -10.8960 C.3       9 GLL5        0.0000 
     14 CA         33.1280   13.0330  -13.5100 C.3       6 GLP5        0.0000 
     15 N          32.8495    8.7495   -9.6700 N.am      2 SEC2        0.0000 
     16 N          32.7720    9.8000   -8.5350 N.am      8 SEL2        0.0000 
     17 N          32.9270    7.6990  -10.8050 N.am      5 SEP2        0.0000 
     18 O          34.5325    7.9460   -7.1365 O.2       1 ALC1        0.0000 
     19 O          34.0410    9.1420   -6.4690 O.2       7 ALL1        0.0000 
     20 O          35.0240    6.7500   -7.8040 O.2       4 ALP1        0.0000 
     21 CA         41.4483   11.0365  -14.0040 C.3       3 GLC5        0.0000 
     22 CA         39.9520    9.8500  -13.2980 C.3       9 GLL5        0.0000 
     23 CA         42.3890   12.6500  -14.5970 C.3       6 GLP5        0.0000 
     24 CA         42.3832    9.9155  -11.8560 C.3       3 GLC5        0.0000 
     25 CA         41.0630    8.9960  -13.5240 C.3       9 GLL5        0.0000 
     26 CA         43.3410   11.2820  -10.6470 C.3       6 GLP5        0.0000 
     27 CA         43.9562    8.0560  -11.0872 C.3       3 GLC5        0.0000 
     28 CA         42.9280    7.3320  -13.1730 C.3       9 GLL5        0.0000 
     29 CA         44.5130    9.3710   -9.5410 C.3       6 GLP5        0.0000 
     30 CA         42.1770   10.6832  -14.9005 C.3       3 GLC5        0.0000 
     31 CA         42.5190    8.3170  -15.4840 C.3       9 GLL5        0.0000 
     32 CA         41.4475    8.2687  -16.9005 C.3       3 GLC5        0.0000 
     33 CA         41.4110    9.1160  -14.9240 C.3       9 GLL5        0.0000 
     34 CA         40.9300    7.8210  -18.5970 C.3       6 GLP5        0.0000 
     35 CA         41.6661    6.2081  -14.9055 C.3       3 GLC5        0.0000 
     36 CA         40.5130    4.5660  -15.1240 C.3       6 GLP5        0.0000 
     37 CA         43.1055    9.3340  -16.3539 C.3       3 GLC5        0.0000 
     38 CA         43.3110    7.4350  -14.6070 C.3       9 GLL5        0.0000 
     39 CA         44.0480   10.1720  -17.7230 C.3       6 GLP5        0.0000 
     40 CA         39.4601    8.4398  -14.6478 C.3       3 GLC5        0.0000 
     41 CA         37.9610    7.6100  -15.1280 C.3       6 GLP5        0.0000 
     42 CA         37.8450   11.4935   -9.7673 C.3       3 GLC5        0.0000 
     43 CA         37.2090   10.3250  -10.9450 C.3       9 GLL5        0.0000 
     44 CA         38.9970   12.1370   -8.6140 C.3       6 GLP5        0.0000 
     45 CA         36.9320    8.4015  -11.7480 C.3       3 GLC5        0.0000 
     46 CA         36.6190    6.9960  -13.0950 C.3       6 GLP5        0.0000 
     47 CA         37.1160   11.5023   -8.9395 C.3       3 GLC5        0.0000 
     48 CA         35.1980   11.3790   -9.8020 C.3       9 GLL5        0.0000 
     49 CA         33.8354   10.3613  -10.6017 C.3       3 GLC5        0.0000 
     50 CA         32.1910    9.8560  -11.6650 C.3       6 GLP5        0.0000 
     51 CA         37.8980   10.7163   -8.9612 C.3       3 GLC5        0.0000 
     52 CA         36.3170    9.3020   -8.7600 C.3       9 GLL5        0.0000 
     53 CA         35.6585    7.6357   -9.6497 C.3       3 GLC5        0.0000 
     54 CA         37.2810    9.2890   -9.8570 C.3       9 GLL5        0.0000 
     55 CA         34.5180    5.9760   -9.9910 C.3       6 GLP5        0.0000 
@<TRIPOS>BOND
@<TRIPOS>SUBSTRUCTURE
     1 ALC1        1 GROUP        1 X    ALC  0     ROOT ALC X 1
     2 SEC2        4 GROUP        1 X    SEC  0     **** SEC X 2
     3 GLC5        7 GROUP        1 X    GLC  0     **** GLC X 6
     4 ALP1        3 GROUP        1 Y    ALP  0     ROOT ALP Y 8
     5 SEP2        6 GROUP        1 Y    SEP  0     **** SEP Y 9
     6 GLP5        9 GROUP        1 Y    GLP  0     **** GLP Y 13
     7 ALL1        2 GROUP        1 Z    ALL  0     ROOT ALL Z 15
     8 SEL2        5 GROUP        1 Z    SEL  0     **** SEL Z 16
     9 GLL5        8 GROUP        1 Z    GLL  0     **** GLL Z 20
@<TRIPOS>SET

