#    Name: 1fvt_106_1_ligand
#    Modification time : Tue Mar 25 02:06:52 2014

@<TRIPOS>MOLECULE
1fvt_106_1_ligand
   34    36     1     0     0
SMALL
NO_CHARGES


@<TRIPOS>ATOM
      1 N1         40.5760    9.9930  -15.5280 N.am      1 106299      0.0000 
      2 C2         39.7040   10.4960  -14.6080 C.2       1 106299      0.0000 
      3 C3         39.9520    9.8500  -13.2980 C.2       1 106299      0.0000 
      4 C4         41.7880    8.1020  -12.6060 C.2       1 106299      0.0000 
      5 C5         42.9280    7.3320  -13.1730 C.2       1 106299      0.0000 
      6 C6         43.3110    7.4350  -14.6070 C.2       1 106299      0.0000 
      7 C7         42.5190    8.3170  -15.4840 C.2       1 106299      0.0000 
      8 C8         41.4110    9.1160  -14.9240 C.3       1 106299      0.0000 
      9 C9         41.0630    8.9960  -13.5240 C.2       1 106299      0.0000 
     10 O11        38.8350   11.3520  -14.7510 O.2       1 106299      0.0000 
     11 N12        39.2210   10.0950  -12.0670 N.2       1 106299      0.0000 
     12 BR4        43.8710    6.1500  -12.0940 Br        1 106299      0.0000 
     13 N17        38.0050   10.3380  -12.0420 N.2       1 106299      0.0000 
     14 C19        37.2090   10.3250  -10.9450 C.ar      1 106299      0.0000 
     15 C20        36.1770   11.3750  -10.8960 C.ar      1 106299      0.0000 
     16 C21        35.1980   11.3790   -9.8020 C.ar      1 106299      0.0000 
     17 C22        35.2720   10.3560   -8.7280 C.ar      1 106299      0.0000 
     18 C23        36.3170    9.3020   -8.7600 C.ar      1 106299      0.0000 
     19 C24        37.2810    9.2890   -9.8570 C.ar      1 106299      0.0000 
     20 S27        33.8490   10.2290   -7.6860 S.o2      1 106299      0.0000 
     21 O28        32.7720    9.8000   -8.5350 O.2       1 106299      0.0000 
     22 O29        33.7460   11.5170   -7.0650 O.2       1 106299      0.0000 
     23 N30        34.0410    9.1420   -6.4690 N.pl3     1 106299      0.0000 
     24 H          40.5905   10.2305  -16.4669 H         1 106299      0.0000 
     25 H          41.5378    8.0133  -11.6666 H         1 106299      0.0000 
     26 H          44.0780    6.9227  -14.9572 H         1 106299      0.0000 
     27 H          42.7321    8.3746  -16.4599 H         1 106299      0.0000 
     28 H          42.3134   10.1803  -14.5680 H         1 106299      0.0000 
     29 H          36.1453   12.0789  -11.6037 H         1 106299      0.0000 
     30 H          34.4747   12.0711   -9.7732 H         1 106299      0.0000 
     31 H          36.3511    8.6181   -8.0384 H         1 106299      0.0000 
     32 H          38.0004    8.5949   -9.9020 H         1 106299      0.0000 
     33 H          34.6848    8.3966   -6.6423 H         1 106299      0.0000 
     34 H          33.5001    9.3051   -5.6439 H         1 106299      0.0000 
@<TRIPOS>BOND
     1    2    1 am   
     2    8    1 1    
     3   24    1 1    
     4    3    2 1    
     5   10    2 2    
     6    9    3 2    
     7   11    3 1    
     8    5    4 2    
     9    9    4 1    
    10   25    4 1    
    11    6    5 1    
    12   12    5 1    
    13    7    6 2    
    14   26    6 1    
    15    8    7 1    
    16   27    7 1    
    17    9    8 1    
    18   28    8 1    
    19   13   11 2    
    20   14   13 1    
    21   15   14 ar   
    22   19   14 ar   
    23   16   15 ar   
    24   29   15 1    
    25   17   16 ar   
    26   30   16 1    
    27   18   17 ar   
    28   20   17 1    
    29   19   18 ar   
    30   31   18 1    
    31   32   19 1    
    32   21   20 2    
    33   22   20 2    
    34   23   20 1    
    35   33   23 1    
    36   34   23 1    
@<TRIPOS>SUBSTRUCTURE
     1 106299      1 GROUP   
@<TRIPOS>SET

