#    Name: 2uxo_TAC_1_INTS_M
#    Modification time : Tue Mar 25 00:25:40 2014

@<TRIPOS>MOLECULE
2uxo_TAC_1_INTS_M
   38     0     3     0     0
SMALL
NO_CHARGES


@<TRIPOS>ATOM
      1 CA          1.3555   29.4460   15.0215 C.3       1 GLC5        0.0000 
      2 CA          1.1140   31.2560   14.3220 C.3       3 GLL5        0.0000 
      3 CA          1.5970   27.6360   15.7210 C.3       2 GLP5        0.0000 
      4 CA          2.2175   29.1870   16.2575 C.3       1 GLC5        0.0000 
      5 CA          2.8380   30.7380   16.7940 C.3       3 GLL5        0.0000 
      6 CA          3.9395   30.0065   18.3285 C.3       1 GLC5        0.0000 
      7 CA          5.0410   29.2750   19.8630 C.3       2 GLP5        0.0000 
      8 CA          3.8830   34.2400   16.7475 C.3       1 GLC5        0.0000 
      9 CA          3.3520   32.9090   16.9330 C.3       3 GLL5        0.0000 
     10 CA          4.4140   35.5710   16.5620 C.3       2 GLP5        0.0000 
     11 CA          0.3200   36.5935   16.5280 C.3       1 GLC5        0.0000 
     12 CA         -1.6350   36.6150   15.4990 C.3       3 GLL5        0.0000 
     13 CA          2.2750   36.5720   17.5570 C.3       2 GLP5        0.0000 
     14 CA          2.1150   40.0085   13.1245 C.3       1 GLC5        0.0000 
     15 CA          0.3650   39.5750   11.9940 C.3       3 GLL5        0.0000 
     16 CA          3.8650   40.4420   14.2550 C.3       2 GLP5        0.0000 
     17 CA          3.0422   34.3092   15.7483 C.3       1 GLC5        0.0000 
     18 CA          1.6830   33.7500   14.5780 C.3       3 GLL5        0.0000 
     19 CA          1.3400   35.9008   16.0085 C.3       1 GLC5        0.0000 
     20 CA          0.3520   34.4970   14.7100 C.3       3 GLL5        0.0000 
     21 CA         -1.8545   36.5005   12.1790 C.3       1 GLC5        0.0000 
     22 CA         -0.9190   36.6370   14.1370 C.3       3 GLL5        0.0000 
     23 CA         -2.8810   35.6490   10.5120 C.3       2 GLP5        0.0000 
     24 CA         -0.5364   37.7556   16.0936 C.3       1 GLC5        0.0000 
     25 CA          0.4580   35.9620   14.2100 C.3       3 GLL5        0.0000 
     26 CA         -0.1400   39.0540   17.3510 C.3       2 GLP5        0.0000 
     27 CA         -2.2845   39.0102   12.2275 C.3       1 GLC5        0.0000 
     28 CA         -1.5030   39.1480   14.0030 C.3       3 GLL5        0.0000 
     29 CA         -3.4490   39.4130   10.6760 C.3       2 GLP5        0.0000 
     30 CA         -0.6918   42.5862   13.7105 C.3       1 GLC5        0.0000 
     31 CA         -1.3340   40.4280   13.4620 C.3       3 GLL5        0.0000 
     32 CA         -0.5160   44.6350   14.4650 C.3       2 GLP5        0.0000 
     33 CA         -0.6835   39.2859   15.4857 C.3       1 GLC5        0.0000 
     34 CA         -2.1582   39.9753   11.8160 C.3       1 GLC5        0.0000 
     35 CA         -1.5835   39.1728   11.4708 C.3       1 GLC5        0.0000 
     36 CA          3.1860   36.4525   12.2777 C.3       1 GLC5        0.0000 
     37 CA          1.1390   36.0650   12.8240 C.3       3 GLL5        0.0000 
     38 CA          4.8420   37.3640   11.9810 C.3       2 GLP5        0.0000 
@<TRIPOS>BOND
@<TRIPOS>SUBSTRUCTURE
     1 GLC5        1 GROUP        1 X    GLC  0     ROOT GLC X 6
     2 GLP5        3 GROUP        1 Y    GLP  0     ROOT GLP Y 13
     3 GLL5        2 GROUP        1 Z    GLL  0     ROOT GLL Z 20
@<TRIPOS>SET

