#    Name: 2uxo_TAC_1_ligand
#    Modification time : Tue Mar 25 00:25:40 2014

@<TRIPOS>MOLECULE
2uxo_TAC_1_ligand
   57    60     1     0     0
SMALL
NO_CHARGES


@<TRIPOS>ATOM
      1 C1          1.5040   32.5620   12.2810 C.2       1 TAC1211     0.0000 
      2 O1          1.4170   32.6400   10.9970 O.2       1 TAC1211     0.0000 
      3 C2          1.0470   31.3920   12.9160 C.2       1 TAC1211     0.0000 
      4 C21         0.4630   30.2280   12.0660 C.2       1 TAC1211     0.0000 
      5 O21         0.3220   29.0450   12.7980 O.2       1 TAC1211     0.0000 
      6 N21         0.2450   30.5240   10.6910 N.am      1 TAC1211     0.0000 
      7 C3          1.1140   31.2560   14.3220 C.2       1 TAC1211     0.0000 
      8 O3          0.6390   30.1130   14.8830 O.3       1 TAC1211     0.0000 
      9 C4          1.6580   32.3450   15.2910 C.3       1 TAC1211     0.0000 
     10 N4          2.9490   31.9280   15.9250 N.4       1 TAC1211     0.0000 
     11 C42         2.8380   30.7380   16.7940 C.3       1 TAC1211     0.0000 
     12 C43         3.3520   32.9090   16.9330 C.3       1 TAC1211     0.0000 
     13 C41         1.6830   33.7500   14.5780 C.3       1 TAC1211     0.0000 
     14 C5          0.3520   34.4970   14.7100 C.3       1 TAC1211     0.0000 
     15 C51         0.4580   35.9620   14.2100 C.3       1 TAC1211     0.0000 
     16 C6         -0.9190   36.6370   14.1370 C.3       1 TAC1211     0.0000 
     17 C62        -1.6350   36.6150   15.4990 C.3       1 TAC1211     0.0000 
     18 O6         -1.7320   35.9170   13.2020 O.3       1 TAC1211     0.0000 
     19 C61        -0.7370   38.0670   13.5550 C.ar      1 TAC1211     0.0000 
     20 C7         -1.5030   39.1480   14.0030 C.ar      1 TAC1211     0.0000 
     21 C8         -1.3340   40.4280   13.4620 C.ar      1 TAC1211     0.0000 
     22 C9         -0.4010   40.6470   12.4500 C.ar      1 TAC1211     0.0000 
     23 C10         0.3650   39.5750   11.9940 C.ar      1 TAC1211     0.0000 
     24 O10         1.2770   39.7850   11.0050 O.3       1 TAC1211     0.0000 
     25 C1A         0.1990   38.2900   12.5370 C.ar      1 TAC1211     0.0000 
     26 C11         0.9720   37.2260   12.0580 C.2       1 TAC1211     0.0000 
     27 O11         1.5110   37.3150   10.9490 O.2       1 TAC1211     0.0000 
     28 C1B         1.1390   36.0650   12.8240 C.2       1 TAC1211     0.0000 
     29 C12         1.9210   35.0170   12.3250 C.2       1 TAC1211     0.0000 
     30 O12         2.5210   35.0980   11.1020 O.3       1 TAC1211     0.0000 
     31 C1C         2.1320   33.7220   13.1020 C.3       1 TAC1211     0.0000 
     32 O1C         3.5660   33.4430   13.0480 O.3       1 TAC1211     0.0000 
     33 H          -0.1337   29.7833   10.1361 H         1 TAC1211     0.0000 
     34 H           0.4889   31.4478   10.3957 H         1 TAC1211     0.0000 
     35 H           0.8842   32.4322   16.0989 H         1 TAC1211     0.0000 
     36 H           3.7216   31.7994   15.2286 H         1 TAC1211     0.0000 
     37 H           2.4411   34.3658   15.1289 H         1 TAC1211     0.0000 
     38 H           0.0437   34.5069   15.7559 H         1 TAC1211     0.0000 
     39 H          -0.4118   33.9834   14.1254 H         1 TAC1211     0.0000 
     40 H           1.0666   36.5227   14.9194 H         1 TAC1211     0.0000 
     41 H          -2.2058   38.9999   14.7459 H         1 TAC1211     0.0000 
     42 H          -1.9026   41.2091   13.8150 H         1 TAC1211     0.0000 
     43 H          -0.2803   41.5770   12.0491 H         1 TAC1211     0.0000 
     44 H           3.7176   30.4921   17.2011 H         1 TAC1211     0.0000 
     45 H           2.1977   30.8868   17.5475 H         1 TAC1211     0.0000 
     46 H           2.5150   29.9379   16.2886 H         1 TAC1211     0.0000 
     47 H           4.2149   32.6578   17.3716 H         1 TAC1211     0.0000 
     48 H           3.4786   33.8183   16.5366 H         1 TAC1211     0.0000 
     49 H           2.6695   32.9979   17.6584 H         1 TAC1211     0.0000 
     50 H          -1.7831   35.6815   15.8257 H         1 TAC1211     0.0000 
     51 H          -1.1087   37.0918   16.2030 H         1 TAC1211     0.0000 
     52 H          -2.5316   37.0557   15.4544 H         1 TAC1211     0.0000 
     53 H           0.9344   29.3813   14.2688 H         1 TAC1211     0.0000 
     54 H          -1.1760   35.1331   12.9258 H         1 TAC1211     0.0000 
     55 H           1.2507   38.9547   10.4483 H         1 TAC1211     0.0000 
     56 H           2.1709   34.3138   10.5896 H         1 TAC1211     0.0000 
     57 H           3.6353   32.5139   12.6847 H         1 TAC1211     0.0000 
@<TRIPOS>BOND
     1    2    1 2    
     2    3    1 1    
     3   31    1 1    
     4    4    3 1    
     5    7    3 2    
     6    5    4 2    
     7    6    4 am   
     8   33    6 1    
     9   34    6 1    
    10    8    7 1    
    11    9    7 1    
    12   53    8 1    
    13   10    9 1    
    14   13    9 1    
    15   35    9 1    
    16   11   10 1    
    17   12   10 1    
    18   36   10 1    
    19   44   11 1    
    20   45   11 1    
    21   46   11 1    
    22   47   12 1    
    23   48   12 1    
    24   49   12 1    
    25   14   13 1    
    26   31   13 1    
    27   37   13 1    
    28   15   14 1    
    29   38   14 1    
    30   39   14 1    
    31   16   15 1    
    32   28   15 1    
    33   40   15 1    
    34   17   16 1    
    35   18   16 1    
    36   19   16 1    
    37   50   17 1    
    38   51   17 1    
    39   52   17 1    
    40   54   18 1    
    41   20   19 ar   
    42   25   19 ar   
    43   21   20 ar   
    44   41   20 1    
    45   22   21 ar   
    46   42   21 1    
    47   23   22 ar   
    48   43   22 1    
    49   24   23 1    
    50   25   23 ar   
    51   55   24 1    
    52   26   25 1    
    53   27   26 2    
    54   28   26 1    
    55   29   28 2    
    56   30   29 1    
    57   31   29 1    
    58   56   30 1    
    59   32   31 1    
    60   57   32 1    
@<TRIPOS>SUBSTRUCTURE
     1 TAC1211     1 GROUP   
@<TRIPOS>SET

