#    Name: 1Z0K_2_CAVITY_N1_6.mol2
#    Modification time : Mon Mar 10 21:46:53 2014

@<TRIPOS>MOLECULE
1Z0K_2_CAVITY_N1_6.mol2
   70     0     6     0     0
SMALL
NO_CHARGES


@<TRIPOS>ATOM
      1 N           7.1068   24.1964    9.8365 N.2       2 ALA2        0.0000 
      2 O           7.9756   24.5150    8.6560 O.2       2 ALA2        0.0000 
      3 O           8.8444   24.8337    7.4755 O.2       2 ALA2        0.0000 
      4 CA          9.8429   32.6960   12.2386 C.3       5 GLY6        0.0000 
      5 CZ          8.4767   31.1465   12.7208 C.ar      4 PHE5        0.0000 
      6 CA          9.3455   31.4651   11.5403 C.3       5 GLY6        0.0000 
      7 CA          7.9793   29.9157   12.0225 C.3       5 GLY6        0.0000 
      8 CA          8.8481   30.2343   10.8420 C.3       5 GLY6        0.0000 
      9 CA          7.4819   28.6848   11.3242 C.3       5 GLY6        0.0000 
     10 CA          8.3508   29.0035   10.1437 C.3       5 GLY6        0.0000 
     11 N           9.2196   29.3221    8.9631 N.2       2 ALA2        0.0000 
     12 OG          6.9845   27.4540   10.6259 O.2       1 SER1        0.0000 
     13 CA          7.8534   27.7726    9.4454 C.3       5 GLY6        0.0000 
     14 N           8.7222   28.0913    8.2648 N.2       2 ALA2        0.0000 
     15 OG          6.4871   26.2231    9.9276 O.2       1 SER1        0.0000 
     16 CA          7.3560   26.5418    8.7471 C.3       5 GLY6        0.0000 
     17 OG          5.9897   24.9923    9.2293 O.2       1 SER1        0.0000 
     18 O           6.8586   25.3109    8.0487 O.2       2 ALA2        0.0000 
     19 CA          7.7274   25.6296    6.8682 C.3       5 GLY6        0.0000 
     20 O           6.3612   24.0801    7.3504 O.2       2 ALA2        0.0000 
     21 CA          5.8675   28.2499   10.0186 C.3       5 GLY6        0.0000 
     22 OD1         5.3701   27.0191    9.3203 O.3       3 ASP3        0.0000 
     23 O           6.2389   27.3377    8.1398 O.2       2 ALA2        0.0000 
     24 OD1         5.7415   26.1069    7.4415 O.3       3 ASP3        0.0000 
     25 OD1         5.2441   24.8760    6.7432 O.3       3 ASP3        0.0000 
     26 O           6.1130   25.1947    5.5627 O.2       2 ALA2        0.0000 
     27 O           4.7467   23.6452    6.0449 O.2       2 ALA2        0.0000 
     28 O           5.6156   23.9638    4.8644 O.2       2 ALA2        0.0000 
     29 OD1         4.9959   25.9906    4.9554 O.3       3 ASP3        0.0000 
     30 OD1         3.6297   24.4411    5.4376 O.3       3 ASP3        0.0000 
     31 O           4.4985   24.7598    4.2571 O.2       2 ALA2        0.0000 
     32 CZ         11.7056   32.0163   15.3319 C.ar      4 PHE5        0.0000 
     33 CA         12.5744   32.3350   14.1514 C.3       5 GLY6        0.0000 
     34 CA         13.4432   32.6536   12.9709 C.3       5 GLY6        0.0000 
     35 CZ         12.0770   31.1041   13.4531 C.ar      4 PHE5        0.0000 
     36 CA         12.9458   31.4228   12.2726 C.3       5 GLY6        0.0000 
     37 CA         13.8146   31.7414   11.0921 C.3       5 GLY6        0.0000 
     38 CZ         11.5796   29.8733   12.7548 C.ar      4 PHE5        0.0000 
     39 OD1        12.4484   30.1919   11.5743 O.3       3 ASP3        0.0000 
     40 CZ         10.2134   28.3238   13.2370 C.ar      4 PHE5        0.0000 
     41 DU         11.0822   28.6425   12.0565 H         6 CUB7        0.0000 
     42 CA          8.8471   26.7743   13.7192 C.3       5 GLY6        0.0000 
     43 CA          9.7160   27.0930   12.5387 C.3       5 GLY6        0.0000 
     44 DU         10.5848   27.4116   11.3582 H         6 CUB7        0.0000 
     45 N           9.2186   25.8621   11.8404 N.2       2 ALA2        0.0000 
     46 N          10.0874   26.1808   10.6599 N.2       2 ALA2        0.0000 
     47 N           9.5900   24.9499    9.9616 N.2       2 ALA2        0.0000 
     48 N           9.0926   23.7191    9.2633 N.2       2 ALA2        0.0000 
     49 CA          8.5952   22.4883    8.5650 C.3       5 GLY6        0.0000 
     50 CA         11.4574   33.1309   13.5441 C.3       5 GLY6        0.0000 
     51 CA         12.3262   33.4496   12.3636 C.3       5 GLY6        0.0000 
     52 CZ         10.9600   31.9001   12.8458 C.ar      4 PHE5        0.0000 
     53 CA         11.8288   32.2187   11.6653 C.3       5 GLY6        0.0000 
     54 CZ         10.4626   30.6692   12.1475 C.ar      4 PHE5        0.0000 
     55 CA         11.3314   30.9879   10.9670 C.3       5 GLY6        0.0000 
     56 CA          9.0963   29.1197   12.6297 C.3       5 GLY6        0.0000 
     57 CA          9.9652   29.4384   11.4492 C.3       5 GLY6        0.0000 
     58 OD1        10.8340   29.7570   10.2687 O.3       3 ASP3        0.0000 
     59 CA          8.5989   27.8889   11.9314 C.3       5 GLY6        0.0000 
     60 DU          9.4678   28.2075   10.7509 H         6 CUB7        0.0000 
     61 OD1        10.3366   28.5262    9.5704 O.3       3 ASP3        0.0000 
     62 CA          8.1016   26.6581   11.2331 C.3       5 GLY6        0.0000 
     63 DU          8.9704   26.9767   10.0526 H         6 CUB7        0.0000 
     64 N           9.8392   27.2954    8.8721 N.2       2 ALA2        0.0000 
     65 OG          7.6042   25.4272   10.5348 O.2       1 SER1        0.0000 
     66 N           8.4730   25.7459    9.3543 N.2       2 ALA2        0.0000 
     67 CA          9.3418   26.0645    8.1738 C.3       5 GLY6        0.0000 
     68 CA         14.1888   32.7699   15.4569 C.3       5 GLY6        0.0000 
     69 O           9.9642   25.9784   14.3265 O.2       2 ALA2        0.0000 
     70 N          10.3356   25.0662   12.4476 N.2       2 ALA2        0.0000 
@<TRIPOS>BOND
@<TRIPOS>SUBSTRUCTURE
     1 SER1       12 GROUP   
     2 ALA2        1 GROUP   
     3 ASP3       22 GROUP   
     4 PHE5        5 GROUP   
     5 GLY6        4 GROUP   
     6 CUB7       41 GROUP   
@<TRIPOS>SET

