#    Name: 1z0k_GTP_2_INTS_M
#    Modification time : Mon Apr  7 16:20:32 2014

@<TRIPOS>MOLECULE
1z0k_GTP_2_INTS_M
   79     0    15     0     0
SMALL
NO_CHARGES


@<TRIPOS>ATOM
      1 N           6.8115   23.2810    5.2725 N.am      2 SEC2        0.0000 
      2 N           5.7070   23.8980    4.8560 N.am     12 SEL2        0.0000 
      3 N           7.9160   22.6640    5.6890 N.am      7 SEP2        0.0000 
      4 Zn          3.3370   24.8290    7.1355 Zn        4 ZIC7        0.0000 
      5 Zn          3.8170   24.2340    6.3480 Zn       14 ZIL7        0.0000 
      6 Zn          2.8570   25.4240    7.9230 Zn        9 ZIP7        0.0000 
      7 N           3.5990   22.9660    6.7700 N.am      2 SEC2        0.0000 
      8 N           3.8170   24.2340    6.3480 N.am     12 SEL2        0.0000 
      9 N           3.3810   21.6980    7.1920 N.am      7 SEP2        0.0000 
     10 NZ          3.9065   26.9685    4.1020 N.4       3 LYC4        0.0000 
     11 NZ          4.0680   25.6810    4.3780 N.4      13 LYL4        0.0000 
     12 NZ          3.7450   28.2560    3.8260 N.4       8 LYP4        0.0000 
     13 N           3.9065   26.9685    4.1020 N.am      2 SEC2        0.0000 
     14 N           4.0680   25.6810    4.3780 N.am     12 SEL2        0.0000 
     15 N           3.7450   28.2560    3.8260 N.am      7 SEP2        0.0000 
     16 N           3.4300   25.2760    3.2170 N.am      2 SEC2        0.0000 
     17 N           2.7920   24.8710    2.0560 N.am      7 SEP2        0.0000 
     18 N           6.8345   26.3905    5.4375 N.am      2 SEC2        0.0000 
     19 N           5.7310   25.9310    6.3210 N.am     12 SEL2        0.0000 
     20 N           7.9380   26.8500    4.5540 N.am      7 SEP2        0.0000 
     21 NZ          4.4905   28.3510    4.9845 N.4       3 LYC4        0.0000 
     22 NZ          5.2360   28.4460    6.1430 N.4      13 LYL4        0.0000 
     23 N           6.0285   29.5555    6.7670 N.am      2 SEC2        0.0000 
     24 N           5.2360   28.4460    6.1430 N.am     12 SEL2        0.0000 
     25 N           6.8210   30.6650    7.3910 N.am      7 SEP2        0.0000 
     26 N           4.7005   29.4800    7.0415 N.am      2 SEC2        0.0000 
     27 N           4.1650   30.5140    7.9400 N.am      7 SEP2        0.0000 
     28 N           4.4905   28.3510    4.9845 N.am      2 SEC2        0.0000 
     29 Zn          3.3915   26.2825    7.8635 Zn        4 ZIC7        0.0000 
     30 Zn          3.9260   27.1410    7.8040 Zn       14 ZIL7        0.0000 
     31 N           3.1945   27.9860    8.6925 N.am      2 SEC2        0.0000 
     32 N           3.9260   27.1410    7.8040 N.am     12 SEL2        0.0000 
     33 N           2.4630   28.8310    9.5810 N.am      7 SEP2        0.0000 
     34 N           2.6245   26.7230    7.2530 N.am      2 SEC2        0.0000 
     35 N           1.3230   26.3050    6.7020 N.am      7 SEP2        0.0000 
     36 N           6.6500   29.1045    7.7390 N.am      2 SEC2        0.0000 
     37 N           6.4790   27.5440    8.0870 N.am     12 SEL2        0.0000 
     38 N           4.4530   28.7635   11.2380 N.am      2 SEC2        0.0000 
     39 N           5.4630   28.2170   10.3340 N.am     12 SEL2        0.0000 
     40 N           3.4430   29.3100   12.1420 N.am      7 SEP2        0.0000 
     41 N           5.8940   25.5835   11.2575 N.am      2 SEC2        0.0000 
     42 N           6.3800   25.8780   10.0370 N.am     12 SEL2        0.0000 
     43 N           5.4080   25.2890   12.4780 N.am      7 SEP2        0.0000 
     44 CA          9.0235   27.3310    7.4175 C.3       5 GLC5        0.0000 
     45 CA          9.0850   27.3430    9.3600 C.3      15 GLL5        0.0000 
     46 CA          8.9620   27.3190    5.4750 C.3      10 GLP5        0.0000 
     47 CA          8.3050   26.1145   12.5070 C.3       5 GLC5        0.0000 
     48 CA         10.1100   27.0130   11.6370 C.3      15 GLL5        0.0000 
     49 CA          6.5000   25.2160   13.3770 C.3      10 GLP5        0.0000 
     50 CA          8.0600   28.4935   13.0255 C.3       5 GLC5        0.0000 
     51 CA          9.8690   28.2300   12.5170 C.3      15 GLL5        0.0000 
     52 CA          6.2510   28.7570   13.5340 C.3      10 GLP5        0.0000 
     53 CA         10.7585   30.5390   10.0605 C.3       5 GLC5        0.0000 
     54 CA         10.4980   29.3520   11.7170 C.3      15 GLL5        0.0000 
     55 CA         11.0190   31.7260    8.4040 C.3      10 GLP5        0.0000 
     56 N           7.8360   33.2665   10.5500 N.am      2 SEC2        0.0000 
     57 N           8.3360   32.2860   11.6630 N.am     12 SEL2        0.0000 
     58 N           7.3360   34.2470    9.4370 N.am      7 SEP2        0.0000 
     59 CA         10.2065   33.4585   10.6405 C.3       5 GLC5        0.0000 
     60 CA          9.4880   32.8160   12.1370 C.3      15 GLL5        0.0000 
     61 CA         10.9250   34.1010    9.1440 C.3      10 GLP5        0.0000 
     62 CA          7.6255   33.3700   12.8260 C.3       5 GLC5        0.0000 
     63 CA          5.7630   33.9240   13.5150 C.3      10 GLP5        0.0000 
     64 N           7.9030   35.5960   12.9695 N.am      2 SEC2        0.0000 
     65 N           9.0710   35.0310   12.4550 N.am     12 SEL2        0.0000 
     66 N           6.7350   36.1610   13.4840 N.am      7 SEP2        0.0000 
     67 N           8.5360   35.0875   14.0465 N.am      2 SEC2        0.0000 
     68 N           8.0010   35.1440   15.6380 N.am      7 SEP2        0.0000 
     69 O          11.4540   35.6215   13.2245 O.2       1 ALC1        0.0000 
     70 O          11.1550   34.3250   12.9790 O.2      11 ALL1        0.0000 
     71 O          11.7530   36.9180   13.4700 O.2       6 ALP1        0.0000 
     72 O          12.3710   35.2245   13.6725 O.2       1 ALC1        0.0000 
     73 O          13.5870   36.1240   14.3660 O.2       6 ALP1        0.0000 
     74 O          13.4475   34.8125   13.9345 O.2       1 ALC1        0.0000 
     75 O          13.3080   33.5010   13.5030 O.2      11 ALL1        0.0000 
     76 CA         10.7230   31.7595   10.3145 C.3       5 GLC5        0.0000 
     77 CA         10.4270   31.7930   12.2250 C.3      15 GLL5        0.0000 
     78 CA          9.8882   29.5485   13.9450 C.3       5 GLC5        0.0000 
     79 CA          9.5930   30.3060   15.7730 C.3      10 GLP5        0.0000 
@<TRIPOS>BOND
@<TRIPOS>SUBSTRUCTURE
     1 ALC1       69 GROUP        1 X    ALC  0     ROOT ALC X 1
     2 SEC2        1 GROUP        1 X    SEC  0     **** SEC X 2
     3 LYC4       10 GROUP        1 X    LYC  0     **** LYC X 4
     4 ZIC7        4 GROUP        1 X    ZIC  0     **** ZIC X 5
     5 GLC5       44 GROUP        1 X    GLC  0     **** GLC X 6
     6 ALP1       71 GROUP        1 Y    ALP  0     ROOT ALP Y 8
     7 SEP2        3 GROUP        1 Y    SEP  0     **** SEP Y 9
     8 LYP4       12 GROUP        1 Y    LYP  0     **** LYP Y 11
     9 ZIP7        6 GROUP        1 Y    ZIP  0     **** ZIP Y 12
    10 GLP5       46 GROUP        1 Y    GLP  0     **** GLP Y 13
    11 ALL1       70 GROUP        1 Z    ALL  0     ROOT ALL Z 15
    12 SEL2        2 GROUP        1 Z    SEL  0     **** SEL Z 16
    13 LYL4       11 GROUP        1 Z    LYL  0     **** LYL Z 18
    14 ZIL7        5 GROUP        1 Z    ZIL  0     **** ZIL Z 19
    15 GLL5       45 GROUP        1 Z    GLL  0     **** GLL Z 20
@<TRIPOS>SET

