#    Name: 1z0k_GTP_2_ligand
#    Modification time : Mon Apr  7 16:20:32 2014

@<TRIPOS>MOLECULE
1z0k_GTP_2_ligand
   44    46     1     0     0
SMALL
NO_CHARGES


@<TRIPOS>ATOM
      1 PG          4.8070   24.9430    5.4590 P.3       1 GTP2200     0.0000 
      2 O1G         5.7070   23.8980    4.8560 O.co2     1 GTP2200     0.0000 
      3 O2G         3.8170   24.2340    6.3480 O.co2     1 GTP2200     0.0000 
      4 O3G         4.0680   25.6810    4.3780 O.co2     1 GTP2200     0.0000 
      5 O3B         5.7310   25.9310    6.3210 O.3       1 GTP2200     0.0000 
      6 PB          5.2540   27.2710    7.0890 P.3       1 GTP2200     0.0000 
      7 O1B         5.2360   28.4460    6.1430 O.co2     1 GTP2200     0.0000 
      8 O2B         3.9260   27.1410    7.8040 O.co2     1 GTP2200     0.0000 
      9 O3A         6.4790   27.5440    8.0870 O.3       1 GTP2200     0.0000 
     10 PA          6.4900   27.3440    9.6780 P.3       1 GTP2200     0.0000 
     11 O1A         5.4630   28.2170   10.3340 O.co2     1 GTP2200     0.0000 
     12 O2A         6.3800   25.8780   10.0370 O.co2     1 GTP2200     0.0000 
     13 O5'         7.9630   27.8890   10.0240 O.3       1 GTP2200     0.0000 
     14 C5'         9.0850   27.3430    9.3600 C.3       1 GTP2200     0.0000 
     15 C4'        10.3060   27.5710   10.2340 C.3       1 GTP2200     0.0000 
     16 O4'        10.4880   28.9550   10.3600 O.3       1 GTP2200     0.0000 
     17 C3'        10.1100   27.0130   11.6370 C.3       1 GTP2200     0.0000 
     18 O3'        11.2920   26.3300   11.9740 O.3       1 GTP2200     0.0000 
     19 C2'         9.8690   28.2300   12.5170 C.3       1 GTP2200     0.0000 
     20 O2'        10.4990   28.1260   13.7740 O.3       1 GTP2200     0.0000 
     21 C1'        10.4980   29.3520   11.7170 C.3       1 GTP2200     0.0000 
     22 N9          9.8170   30.6530   11.8020 N.pl3     1 GTP2200     0.0000 
     23 C8          8.5320   30.9690   11.4410 C.2       1 GTP2200     0.0000 
     24 N7          8.3360   32.2860   11.6630 N.2       1 GTP2200     0.0000 
     25 C5          9.4880   32.8160   12.1370 C.2       1 GTP2200     0.0000 
     26 C6          9.8650   34.0980   12.5210 C.2       1 GTP2200     0.0000 
     27 O6          9.0710   35.0310   12.4550 O.2       1 GTP2200     0.0000 
     28 N1         11.1550   34.3250   12.9790 N.am      1 GTP2200     0.0000 
     29 C2         12.0660   33.2860   13.0610 C.2       1 GTP2200     0.0000 
     30 N2         13.3080   33.5010   13.5030 N.pl3     1 GTP2200     0.0000 
     31 N3         11.6910   32.0160   12.6790 N.2       1 GTP2200     0.0000 
     32 C4         10.4270   31.7930   12.2250 C.2       1 GTP2200     0.0000 
     33 H           9.2677   27.8230    8.3963 H         1 GTP2200     0.0000 
     34 H           8.9848   26.2679    9.1972 H         1 GTP2200     0.0000 
     35 H          11.1515   27.0984    9.7873 H         1 GTP2200     0.0000 
     36 H           9.2471   26.4059   11.6298 H         1 GTP2200     0.0000 
     37 H           8.8239   28.4086   12.5637 H         1 GTP2200     0.0000 
     38 H          11.5334   29.4616   12.0472 H         1 GTP2200     0.0000 
     39 H           7.8879   30.3470   11.0896 H         1 GTP2200     0.0000 
     40 H          11.4368   35.2788   13.2611 H         1 GTP2200     0.0000 
     41 H          13.5283   34.4432   13.7555 H         1 GTP2200     0.0000 
     42 H          13.9060   32.7004   13.5418 H         1 GTP2200     0.0000 
     43 H          12.0136   26.7917   11.4581 H         1 GTP2200     0.0000 
     44 H          11.0937   27.3255   13.6999 H         1 GTP2200     0.0000 
@<TRIPOS>BOND
     1    2    1 ar   
     2    3    1 ar   
     3    4    1 ar   
     4    5    1 1    
     5    6    5 1    
     6    7    6 ar   
     7    8    6 ar   
     8    9    6 1    
     9   10    9 1    
    10   11   10 ar   
    11   12   10 ar   
    12   13   10 1    
    13   14   13 1    
    14   15   14 1    
    15   33   14 1    
    16   34   14 1    
    17   16   15 1    
    18   17   15 1    
    19   35   15 1    
    20   21   16 1    
    21   18   17 1    
    22   19   17 1    
    23   36   17 1    
    24   43   18 1    
    25   20   19 1    
    26   21   19 1    
    27   37   19 1    
    28   44   20 1    
    29   22   21 1    
    30   38   21 1    
    31   23   22 1    
    32   32   22 1    
    33   24   23 2    
    34   39   23 1    
    35   25   24 1    
    36   26   25 1    
    37   32   25 2    
    38   27   26 2    
    39   28   26 am   
    40   29   28 1    
    41   40   28 1    
    42   30   29 1    
    43   31   29 2    
    44   41   30 1    
    45   42   30 1    
    46   32   31 1    
@<TRIPOS>SUBSTRUCTURE
     1 GTP2200     1 GROUP   
@<TRIPOS>SET

