#    Name: 4ccb_OFG_1_INTS_M
#    Modification time : Tue Mar 25 09:11:16 2014

@<TRIPOS>MOLECULE
4ccb_OFG_1_INTS_M
   63     0     9     0     0
SMALL
NO_CHARGES


@<TRIPOS>ATOM
      1 CA         36.2460   47.2545   11.8595 C.3       3 GLC5        0.0000 
      2 CA         34.8580   46.8530   10.2390 C.3       9 GLL5        0.0000 
      3 CA         37.6340   47.6560   13.4800 C.3       6 GLP5        0.0000 
      4 CA         32.1285   45.1715   11.5495 C.3       3 GLC5        0.0000 
      5 CA         33.4440   44.8490   10.3740 C.3       9 GLL5        0.0000 
      6 CA         30.8130   45.4940   12.7250 C.3       6 GLP5        0.0000 
      7 CA         27.4570   44.2555    8.7355 C.3       3 GLC5        0.0000 
      8 CA         27.6430   46.3340    9.5490 C.3       9 GLL5        0.0000 
      9 CA         27.2710   42.1770    7.9220 C.3       6 GLP5        0.0000 
     10 CA         25.8780   45.5680    8.7770 C.3       3 GLC5        0.0000 
     11 CA         24.1130   44.8020    8.0050 C.3       6 GLP5        0.0000 
     12 CA         27.2780   46.6110   11.3735 C.3       3 GLC5        0.0000 
     13 CA         26.9130   46.8880   13.1980 C.3       6 GLP5        0.0000 
     14 CA         32.1090   46.3475   10.3015 C.3       3 GLC5        0.0000 
     15 CA         33.0690   44.9690    8.9870 C.3       9 GLL5        0.0000 
     16 CA         31.1490   47.7260   11.6160 C.3       6 GLP5        0.0000 
     17 CA         28.0340   45.0005   12.0755 C.3       3 GLC5        0.0000 
     18 CA         28.7890   44.3350   10.1190 C.3       9 GLL5        0.0000 
     19 CA         27.2790   45.6660   14.0320 C.3       6 GLP5        0.0000 
     20 CA         26.1870   48.0190    5.6180 C.3       3 GLC5        0.0000 
     21 CA         26.0080   48.5550    7.4460 C.3       9 GLL5        0.0000 
     22 CA         26.3660   47.4830    3.7900 C.3       6 GLP5        0.0000 
     23 CA         25.0605   46.6785    7.7255 C.3       3 GLC5        0.0000 
     24 CA         24.7180   49.0455    9.2105 C.3       3 GLC5        0.0000 
     25 CA         23.4280   49.5360   10.9750 C.3       6 GLP5        0.0000 
     26 CA         32.7220   42.4310    6.2540 C.3       3 GLC5        0.0000 
     27 CA         32.7660   42.5460    8.2900 C.3       9 GLL5        0.0000 
     28 CA         32.6780   42.3160    4.2180 C.3       6 GLP5        0.0000 
     29 CA         33.6000   40.6600    7.7165 C.3       3 GLC5        0.0000 
     30 CA         34.4340   38.7740    7.1430 C.3       6 GLP5        0.0000 
     31 CA         31.8975   41.1930    9.3780 C.3       3 GLC5        0.0000 
     32 CA         31.0290   39.8400   10.4660 C.3       6 GLP5        0.0000 
     33 CA         31.1850   43.2950    6.6000 C.3       3 GLC5        0.0000 
     34 CA         32.1010   43.9250    8.3960 C.3       9 GLL5        0.0000 
     35 CA         30.2690   42.6650    4.8040 C.3       6 GLP5        0.0000 
     36 N          26.5220   45.3985   11.0350 N.am      2 SEC2        0.0000 
     37 N          27.6950   45.1570   10.2590 N.am      8 SEL2        0.0000 
     38 N          25.3490   45.6400   11.8110 N.am      5 SEP2        0.0000 
     39 O          27.5905   42.8055   11.5350 O.2       1 ALC1        0.0000 
     40 O          28.8240   43.1330   10.8590 O.2       7 ALL1        0.0000 
     41 O          26.3570   42.4780   12.2110 O.2       4 ALP1        0.0000 
     42 CA         36.1410   46.6495   12.8725 C.3       3 GLC5        0.0000 
     43 CA         34.6480   45.6430   12.2650 C.3       9 GLL5        0.0000 
     44 CA         32.9700   46.2920   12.5930 C.3       3 GLC5        0.0000 
     45 CA         31.2920   46.9410   12.9210 C.3       6 GLP5        0.0000 
     46 CA         34.0243   48.9763    9.9480 C.3       3 GLC5        0.0000 
     47 CA         33.3620   51.0240   10.3400 C.3       6 GLP5        0.0000 
     48 CA         29.7876   47.0310   10.3459 C.3       3 GLC5        0.0000 
     49 CA         28.6500   46.7740    8.6650 C.3       9 GLL5        0.0000 
     50 CA         28.8362   49.8050    8.9357 C.3       3 GLC5        0.0000 
     51 CA         28.6000   48.0460    7.9060 C.3       9 GLL5        0.0000 
     52 CA         28.5250   51.1560   10.1720 C.3       6 GLP5        0.0000 
     53 CA         28.0699   46.3660    6.6776 C.3       3 GLC5        0.0000 
     54 CA         27.2350   45.5400    5.1010 C.3       6 GLP5        0.0000 
     55 CA         28.3003   43.3395    8.8057 C.3       3 GLC5        0.0000 
     56 CA         29.8700   44.6690    9.2600 C.3       9 GLL5        0.0000 
     57 CA         30.0712   44.9980   11.2073 C.3       3 GLC5        0.0000 
     58 CA         32.8266   47.0404   10.9413 C.3       3 GLC5        0.0000 
     59 CA         34.3220   45.7810   10.9770 C.3       9 GLL5        0.0000 
     60 CA         34.1050   44.7855   13.2055 C.3       3 GLC5        0.0000 
     61 CA         33.7250   43.8590   14.7900 C.3       6 GLP5        0.0000 
     62 CA         36.0185   44.5840   11.9040 C.3       3 GLC5        0.0000 
     63 CA         37.5520   43.4560   12.1870 C.3       6 GLP5        0.0000 
@<TRIPOS>BOND
@<TRIPOS>SUBSTRUCTURE
     1 ALC1       39 GROUP        1 X    ALC  0     ROOT ALC X 1
     2 SEC2       36 GROUP        1 X    SEC  0     **** SEC X 2
     3 GLC5        1 GROUP        1 X    GLC  0     **** GLC X 6
     4 ALP1       41 GROUP        1 Y    ALP  0     ROOT ALP Y 8
     5 SEP2       38 GROUP        1 Y    SEP  0     **** SEP Y 9
     6 GLP5        3 GROUP        1 Y    GLP  0     **** GLP Y 13
     7 ALL1       40 GROUP        1 Z    ALL  0     ROOT ALL Z 15
     8 SEL2       37 GROUP        1 Z    SEL  0     **** SEL Z 16
     9 GLL5        2 GROUP        1 Z    GLL  0     **** GLL Z 20
@<TRIPOS>SET

