#    Name: 4ccb_OFG_1_ligand
#    Modification time : Tue Mar 25 09:11:16 2014

@<TRIPOS>MOLECULE
4ccb_OFG_1_ligand
   46    49     1     0     0
SMALL
NO_CHARGES


@<TRIPOS>ATOM
      1 C13        34.5150   47.0040    8.8730 C.ar      1 OFG2401     0.0000 
      2 C14        34.8580   46.8530   10.2390 C.ar      1 OFG2401     0.0000 
      3 C6         29.7690   45.9020    8.5400 C.ar      1 OFG2401     0.0000 
      4 C16        33.4440   44.8490   10.3740 C.ar      1 OFG2401     0.0000 
      5 C26        32.6480   47.2690    5.1330 C.2       1 OFG2401     0.0000 
      6 C27        33.2090   46.0410    4.7920 C.2       1 OFG2401     0.0000 
      7 C4         27.6430   46.3340    9.5490 C.ar      1 OFG2401     0.0000 
      8 C19        29.6950   48.8620    7.4930 C.2       1 OFG2401     0.0000 
      9 C5         28.6500   46.7740    8.6650 C.ar      1 OFG2401     0.0000 
     10 C18        28.6000   48.0460    7.9060 C.2       1 OFG2401     0.0000 
     11 C10        33.0690   44.9690    8.9870 C.ar      1 OFG2401     0.0000 
     12 C12        33.6260   46.0730    8.2390 C.ar      1 OFG2401     0.0000 
     13 C1         29.8700   44.6690    9.2600 C.ar      1 OFG2401     0.0000 
     14 C15        34.3220   45.7810   10.9770 C.ar      1 OFG2401     0.0000 
     15 C22        27.4850   48.7530    7.4190 C.2       1 OFG2401     0.0000 
     16 C2         28.7890   44.3350   10.1190 C.ar      1 OFG2401     0.0000 
     17 C23        26.0080   48.5550    7.4460 C.3       1 OFG2401     0.0000 
     18 C11        32.7660   42.5460    8.2900 C.3       1 OFG2401     0.0000 
     19 C9         32.1010   43.9250    8.3960 C.3       1 OFG2401     0.0000 
     20 N3         27.6950   45.1570   10.2590 N.ar      1 OFG2401     0.0000 
     21 N25        32.7220   47.4510    6.4480 N.2       1 OFG2401     0.0000 
     22 N28        33.6510   45.4230    5.8880 N.2       1 OFG2401     0.0000 
     23 N20        29.3290   49.9560    6.8240 N.pl3     1 OFG2401     0.0000 
     24 N21        27.9980   49.8610    6.7970 N.2       1 OFG2401     0.0000 
     25 N24        33.3370   46.3070    6.8630 N.pl3     1 OFG2401     0.0000 
     26 N8         28.8240   43.1330   10.8590 N.pl3     1 OFG2401     0.0000 
     27 O7         30.9110   43.7450    9.2210 O.3       1 OFG2401     0.0000 
     28 F17        34.6480   45.6430   12.2650 F         1 OFG2401     0.0000 
     29 H          34.8983   47.7771    8.3293 H         1 OFG2401     0.0000 
     30 H          35.4895   47.5188   10.6812 H         1 OFG2401     0.0000 
     31 H          30.5411   46.1675    7.9044 H         1 OFG2401     0.0000 
     32 H          33.0629   44.0730   10.9219 H         1 OFG2401     0.0000 
     33 H          32.2674   47.8784    4.4795 H         1 OFG2401     0.0000 
     34 H          33.2557   45.7124    3.8799 H         1 OFG2401     0.0000 
     35 H          26.7978   46.9601    9.6640 H         1 OFG2401     0.0000 
     36 H          30.6253   48.5983    7.7072 H         1 OFG2401     0.0000 
     37 H          31.8216   44.2299    7.4000 H         1 OFG2401     0.0000 
     38 H          29.8734   50.6284    6.4609 H         1 OFG2401     0.0000 
     39 H          29.6383   42.5654   10.7380 H         1 OFG2401     0.0000 
     40 H          28.0314   42.9515   11.4412 H         1 OFG2401     0.0000 
     41 H          25.7398   47.6999    7.0024 H         1 OFG2401     0.0000 
     42 H          25.6545   48.5237    8.3809 H         1 OFG2401     0.0000 
     43 H          25.5256   49.2935    6.9749 H         1 OFG2401     0.0000 
     44 H          33.5772   42.5688    7.7056 H         1 OFG2401     0.0000 
     45 H          33.0579   42.2048    9.1835 H         1 OFG2401     0.0000 
     46 H          32.1457   41.8632    7.9039 H         1 OFG2401     0.0000 
@<TRIPOS>BOND
     1    2    1 ar   
     2   12    1 ar   
     3   29    1 1    
     4   14    2 ar   
     5   30    2 1    
     6    9    3 ar   
     7   13    3 ar   
     8   31    3 1    
     9   11    4 ar   
    10   14    4 ar   
    11   32    4 1    
    12    6    5 1    
    13   21    5 2    
    14   33    5 1    
    15   22    6 2    
    16   34    6 1    
    17    9    7 ar   
    18   20    7 ar   
    19   35    7 1    
    20   10    8 2    
    21   23    8 1    
    22   36    8 1    
    23   10    9 1    
    24   15   10 1    
    25   12   11 ar   
    26   19   11 1    
    27   25   12 1    
    28   16   13 ar   
    29   27   13 1    
    30   28   14 1    
    31   17   15 1    
    32   24   15 2    
    33   20   16 ar   
    34   26   16 1    
    35   41   17 1    
    36   42   17 1    
    37   43   17 1    
    38   19   18 1    
    39   44   18 1    
    40   45   18 1    
    41   46   18 1    
    42   27   19 1    
    43   37   19 1    
    44   25   21 1    
    45   25   22 1    
    46   24   23 1    
    47   38   23 1    
    48   39   26 1    
    49   40   26 1    
@<TRIPOS>SUBSTRUCTURE
     1 OFG2401     1 GROUP   
@<TRIPOS>SET

