#    Name: 4B6S_2_CAVITY_N1_ALL.mol2
#    Modification time : Tue Mar 11 18:53:28 2014

@<TRIPOS>MOLECULE
4B6S_2_CAVITY_N1_ALL.mol2
   79     0     6     0     0
SMALL
NO_CHARGES


@<TRIPOS>ATOM
      1 N          19.7354   29.7531    0.3077 N.2       2 ALA2        0.0000 
      2 N          20.5886   28.5216    0.2332 N.2       2 ALA2        0.0000 
      3 CA         18.8168   29.1795   -0.7302 C.3       5 GLY6        0.0000 
      4 CA         19.6700   27.9481   -0.8048 C.3       5 GLY6        0.0000 
      5 CA         17.8983   28.6059   -1.7681 C.3       5 GLY6        0.0000 
      6 CA         18.7515   27.3745   -1.8427 C.3       5 GLY6        0.0000 
      7 CA         19.6047   26.1430   -1.9172 C.3       5 GLY6        0.0000 
      8 NZ         16.9797   28.0323   -2.8060 N.2       3 LYS4        0.0000 
      9 N          16.9144   26.2273   -3.9185 N.2       2 ALA2        0.0000 
     10 CZ         12.7669   24.9146    0.4776 C.ar      4 PHE5        0.0000 
     11 CZ         13.6201   23.6832    0.4030 C.ar      4 PHE5        0.0000 
     12 OG         10.1419   26.8039   -0.4112 O.2       1 SER1        0.0000 
     13 OG         10.9951   25.5725   -0.4858 O.2       1 SER1        0.0000 
     14 O          11.8483   24.3410   -0.5603 O.2       2 ALA2        0.0000 
     15 CA         12.7015   23.1096   -0.6349 C.3       5 GLY6        0.0000 
     16 O          10.0765   24.9989   -1.5237 O.2       2 ALA2        0.0000 
     17 O          10.9297   23.7674   -1.5982 O.2       2 ALA2        0.0000 
     18 CA         18.2486   30.2236    5.6992 C.3       5 GLY6        0.0000 
     19 CZ         16.2154   23.6613    0.2860 C.ar      4 PHE5        0.0000 
     20 O          11.8840   28.0135   -0.4537 O.2       2 ALA2        0.0000 
     21 O          12.7372   26.7821   -0.5282 O.2       2 ALA2        0.0000 
     22 CZ         13.5904   25.5506   -0.6028 C.ar      4 PHE5        0.0000 
     23 CZ         14.4436   24.3192   -0.6774 C.ar      4 PHE5        0.0000 
     24 CA         15.2969   23.0878   -0.7519 C.3       5 GLY6        0.0000 
     25 CA         10.1122   28.6714   -1.4170 C.3       5 GLY6        0.0000 
     26 O          10.9654   27.4400   -1.4916 O.2       2 ALA2        0.0000 
     27 DU         11.8187   26.2085   -1.5661 H         6 CUB7        0.0000 
     28 DU         12.6719   24.9771   -1.6407 H         6 CUB7        0.0000 
     29 CA         13.5251   23.7456   -1.7153 C.3       5 GLY6        0.0000 
     30 O          10.9001   25.6349   -2.6040 O.2       2 ALA2        0.0000 
     31 O          11.7533   24.4035   -2.6786 O.2       2 ALA2        0.0000 
     32 NZ         19.9254   29.6282    4.5443 N.2       3 LYS4        0.0000 
     33 CA         18.1536   30.2861    3.5809 C.3       5 GLY6        0.0000 
     34 NZ         19.0068   29.0546    3.5064 N.2       3 LYS4        0.0000 
     35 OG         17.2350   29.7125    2.5430 O.2       1 SER1        0.0000 
     36 CZ         18.8108   23.6395    0.1689 C.ar      4 PHE5        0.0000 
     37 OG         14.4793   27.9917   -0.5707 O.2       1 SER1        0.0000 
     38 OG         15.3326   26.7603   -0.6453 O.2       1 SER1        0.0000 
     39 CZ         16.1858   25.5288   -0.7198 C.ar      4 PHE5        0.0000 
     40 CZ         17.0390   24.2974   -0.7944 C.ar      4 PHE5        0.0000 
     41 CA         17.8922   23.0659   -0.8690 C.3       5 GLY6        0.0000 
     42 O          12.7076   28.6496   -1.5340 O.2       2 ALA2        0.0000 
     43 OG         13.5608   27.4181   -1.6086 O.2       1 SER1        0.0000 
     44 OG         14.4140   26.1867   -1.6832 O.2       1 SER1        0.0000 
     45 DU         15.2672   24.9552   -1.7577 H         6 CUB7        0.0000 
     46 CA         16.1204   23.7238   -1.8323 C.3       5 GLY6        0.0000 
     47 N          11.7890   28.0760   -2.5719 N.2       2 ALA2        0.0000 
     48 CA         12.6422   26.8445   -2.6465 C.3       5 GLY6        0.0000 
     49 CA         13.4954   25.6131   -2.7211 C.3       5 GLY6        0.0000 
     50 CA         14.3487   24.3816   -2.7956 C.3       5 GLY6        0.0000 
     51 N          10.8704   27.5024   -3.6098 N.2       2 ALA2        0.0000 
     52 CA         11.7237   26.2710   -3.6844 C.3       5 GLY6        0.0000 
     53 N          12.5769   25.0395   -3.7590 N.2       2 ALA2        0.0000 
     54 CA         19.8304   29.6906    2.4260 C.3       5 GLY6        0.0000 
     55 NZ         20.6836   28.4592    2.3514 N.2       3 LYS4        0.0000 
     56 CA         18.0586   30.3485    1.4627 C.3       5 GLY6        0.0000 
     57 CZ         19.7650   27.8856    1.3135 C.ar      4 PHE5        0.0000 
     58 CA         20.6183   26.6542    1.2390 C.3       5 GLY6        0.0000 
     59 NZ         17.1400   29.7749    0.4248 N.2       3 LYS4        0.0000 
     60 OG         17.9933   28.5435    0.3502 O.2       1 SER1        0.0000 
     61 CZ         18.8465   27.3120    0.2756 C.ar      4 PHE5        0.0000 
     62 CA         19.6997   26.0806    0.2010 C.3       5 GLY6        0.0000 
     63 CA         20.5529   24.8491    0.1265 C.3       5 GLY6        0.0000 
     64 NZ         16.2215   29.2013   -0.6132 N.2       3 LYS4        0.0000 
     65 OG         17.0747   27.9699   -0.6877 O.2       1 SER1        0.0000 
     66 CZ         17.9279   26.7384   -0.7623 C.ar      4 PHE5        0.0000 
     67 CZ         18.7811   25.5070   -0.8369 C.ar      4 PHE5        0.0000 
     68 N          19.6343   24.2755   -0.9114 N.2       2 ALA2        0.0000 
     69 NZ         16.1561   27.3963   -1.7256 N.2       3 LYS4        0.0000 
     70 CA         17.0093   26.1649   -1.8002 C.3       5 GLY6        0.0000 
     71 N          17.8626   24.9334   -1.8748 N.2       2 ALA2        0.0000 
     72 NZ         13.5311   29.2856   -2.6144 N.2       3 LYS4        0.0000 
     73 NZ         14.3844   28.0542   -2.6890 N.2       3 LYS4        0.0000 
     74 NZ         15.2376   26.8227   -2.7635 N.2       3 LYS4        0.0000 
     75 N          16.0908   25.5913   -2.8381 N.2       2 ALA2        0.0000 
     76 N          16.9440   24.3598   -2.9127 N.2       2 ALA2        0.0000 
     77 O          12.6126   28.7120   -3.6523 O.2       2 ALA2        0.0000 
     78 CA         13.4658   27.4806   -3.7269 C.3       5 GLY6        0.0000 
     79 CA         14.3190   26.2491   -3.8014 C.3       5 GLY6        0.0000 
@<TRIPOS>BOND
@<TRIPOS>SUBSTRUCTURE
     1 SER1       12 GROUP   
     2 ALA2        1 GROUP   
     3 LYS4        8 GROUP   
     4 PHE5       10 GROUP   
     5 GLY6        3 GROUP   
     6 CUB7       27 GROUP   
@<TRIPOS>SET

