#    Name: 4b6s_2HN_2_INTS_M
#    Modification time : Tue Mar 25 06:48:34 2014

@<TRIPOS>MOLECULE
4b6s_2HN_2_INTS_M
   73     0     9     0     0
SMALL
NO_CHARGES


@<TRIPOS>ATOM
      1 CA         15.2605   23.7400    0.7805 C.3       3 GLC5        0.0000 
      2 CA         15.2570   23.2960   -1.1470 C.3       9 GLL5        0.0000 
      3 CA         15.2640   24.1840    2.7080 C.3       6 GLP5        0.0000 
      4 CA         14.5165   21.9315   -0.5125 C.3       3 GLC5        0.0000 
      5 CA         13.7760   20.5670    0.1220 C.3       6 GLP5        0.0000 
      6 CA         21.0775   24.1395   -2.4095 C.3       3 GLC5        0.0000 
      7 CA         19.5650   25.0010   -1.6810 C.3       9 GLL5        0.0000 
      8 CA         22.5900   23.2780   -3.1380 C.3       6 GLP5        0.0000 
      9 CA         18.4680   29.1980   -2.1515 C.3       3 GLC5        0.0000 
     10 CA         18.6250   27.5080   -1.5100 C.3       9 GLL5        0.0000 
     11 CA         18.3110   30.8880   -2.7930 C.3       6 GLP5        0.0000 
     12 CA         20.4440   27.1445   -1.5505 C.3       3 GLC5        0.0000 
     13 CA         22.2630   26.7810   -1.5910 C.3       6 GLP5        0.0000 
     14 CA         17.9110   26.8355    0.4090 C.3       3 GLC5        0.0000 
     15 CA         17.1970   26.1630    2.3280 C.3       6 GLP5        0.0000 
     16 CA         17.1920   29.4410   -1.9535 C.3       3 GLC5        0.0000 
     17 CA         16.0730   27.9940   -1.1140 C.3       9 GLL5        0.0000 
     18 CA         15.9515   27.2335    0.5305 C.3       3 GLC5        0.0000 
     19 CA         15.8300   26.4730    2.1750 C.3       6 GLP5        0.0000 
     20 CA         14.4335   25.6565    0.7590 C.3       3 GLC5        0.0000 
     21 CA         13.9930   25.8220   -0.8470 C.3       9 GLL5        0.0000 
     22 CA         14.8740   25.4910    2.3650 C.3       6 GLP5        0.0000 
     23 N           9.4925   25.8585   -3.1395 N.am      2 SEC2        0.0000 
     24 N          11.0160   25.9320   -3.1730 N.am      8 SEL2        0.0000 
     25 N           7.9690   25.7850   -3.1060 N.am      5 SEP2        0.0000 
     26 O          10.7725   24.9130   -4.2040 O.2       1 ALC1        0.0000 
     27 O          11.0160   25.9320   -3.1730 O.2       7 ALL1        0.0000 
     28 O          10.5290   23.8940   -5.2350 O.2       4 ALP1        0.0000 
     29 N          11.1555   22.9145   -2.9460 N.am      2 SEC2        0.0000 
     30 N          11.2540   23.7330   -1.8390 N.am      8 SEL2        0.0000 
     31 N          11.0570   22.0960   -4.0530 N.am      5 SEP2        0.0000 
     32 N          10.4350   22.8475   -1.0480 N.am      2 SEC2        0.0000 
     33 N           9.6160   21.9620   -0.2570 N.am      5 SEP2        0.0000 
     34 N          10.3375   24.1505    1.0980 N.am      2 SEC2        0.0000 
     35 N          10.9730   24.8700    0.0590 N.am      8 SEL2        0.0000 
     36 N           9.7020   23.4310    2.1370 N.am      5 SEP2        0.0000 
     37 N          10.6705   25.5955    1.2505 N.am      2 SEC2        0.0000 
     38 N          10.3680   26.3210    2.4420 N.am      5 SEP2        0.0000 
     39 N          15.3165   28.0755   -4.5425 N.am      2 SEC2        0.0000 
     40 N          14.3770   27.2480   -3.7340 N.am      8 SEL2        0.0000 
     41 N          16.2560   28.9030   -5.3510 N.am      5 SEP2        0.0000 
     42 CA         12.8995   29.6070   -4.0735 C.3       3 GLC5        0.0000 
     43 CA         13.0470   28.5910   -2.1850 C.3       9 GLL5        0.0000 
     44 CA         12.7520   30.6230   -5.9620 C.3       6 GLP5        0.0000 
     45 O          14.6370   30.2250   -2.9010 O.2       1 ALC1        0.0000 
     46 O          13.3920   29.6900   -3.0180 O.2       7 ALL1        0.0000 
     47 O          15.8820   30.7600   -2.7840 O.2       4 ALP1        0.0000 
     48 N          10.3675   30.5380   -2.2630 N.am      2 SEC2        0.0000 
     49 N          11.0580   29.6960   -1.4060 N.am      8 SEL2        0.0000 
     50 N           9.6770   31.3800   -3.1200 N.am      5 SEP2        0.0000 
     51 N          12.2500   30.6125   -1.0640 N.am      2 SEC2        0.0000 
     52 N          13.4420   31.5290   -0.7220 N.am      5 SEP2        0.0000 
     53 CA          9.3505   27.8710   -0.4975 C.3       3 GLC5        0.0000 
     54 CA         11.1380   27.2650   -1.1610 C.3       9 GLL5        0.0000 
     55 CA          7.5630   28.4770    0.1660 C.3       6 GLP5        0.0000 
     56 CA         15.1595   22.6788   -2.6005 C.3       3 GLC5        0.0000 
     57 CA         14.6620   21.5310   -4.0250 C.3       6 GLP5        0.0000 
     58 CA         16.4500   22.0547   -0.6310 C.3       3 GLC5        0.0000 
     59 CA         17.2430   20.2830   -0.0860 C.3       6 GLP5        0.0000 
     60 CA         17.5720   22.8305   -3.4060 C.3       3 GLC5        0.0000 
     61 CA         17.9600   22.9320   -1.5180 C.3       9 GLL5        0.0000 
     62 CA         17.4560   22.1190   -5.3500 C.3       6 GLP5        0.0000 
     63 CA         17.4655   21.9125   -0.7740 C.3       3 GLC5        0.0000 
     64 CA         20.5883   25.9445   -1.5900 C.3       3 GLC5        0.0000 
     65 CA         18.2620   25.2150   -1.4970 C.3       9 GLL5        0.0000 
     66 CA         19.0682   25.8425   -3.2565 C.3       3 GLC5        0.0000 
     67 CA         19.2230   26.5770   -4.9240 C.3       6 GLP5        0.0000 
     68 CA         18.7107   26.7890   -3.1920 C.3       3 GLC5        0.0000 
     69 CA         17.7720   26.4940   -1.4100 C.3       9 GLL5        0.0000 
     70 CA         12.3598   26.4353   -4.0825 C.3       3 GLC5        0.0000 
     71 CA         13.1780   25.9740   -2.1350 C.3       9 GLL5        0.0000 
     72 CA         12.3110   26.8820   -6.1460 C.3       6 GLP5        0.0000 
     73 CA         12.2963   27.7138   -4.1262 C.3       3 GLC5        0.0000 
@<TRIPOS>BOND
@<TRIPOS>SUBSTRUCTURE
     1 ALC1       26 GROUP        1 X    ALC  0     ROOT ALC X 1
     2 SEC2       23 GROUP        1 X    SEC  0     **** SEC X 2
     3 GLC5        1 GROUP        1 X    GLC  0     **** GLC X 6
     4 ALP1       28 GROUP        1 Y    ALP  0     ROOT ALP Y 8
     5 SEP2       25 GROUP        1 Y    SEP  0     **** SEP Y 9
     6 GLP5        3 GROUP        1 Y    GLP  0     **** GLP Y 13
     7 ALL1       27 GROUP        1 Z    ALL  0     ROOT ALL Z 15
     8 SEL2       24 GROUP        1 Z    SEL  0     **** SEL Z 16
     9 GLL5        2 GROUP        1 Z    GLL  0     **** GLL Z 20
@<TRIPOS>SET

