#    Name: 4b6s_2HN_2_ligand
#    Modification time : Tue Mar 25 06:48:34 2014

@<TRIPOS>MOLECULE
4b6s_2HN_2_ligand
   35    36     1     0     0
SMALL
NO_CHARGES


@<TRIPOS>ATOM
      1 FAK        15.2570   23.2960   -1.1470 F         1 2HN200      0.0000 
      2 CAT        16.0570   24.3570   -1.2050 C.ar      1 2HN200      0.0000 
      3 CAR        17.4160   24.1520   -1.4060 C.ar      1 2HN200      0.0000 
      4 FAI        17.9600   22.9320   -1.5180 F         1 2HN200      0.0000 
      5 CAP        18.2620   25.2150   -1.4970 C.ar      1 2HN200      0.0000 
      6 FAG        19.5650   25.0010   -1.6810 F         1 2HN200      0.0000 
      7 CAQ        17.7720   26.4940   -1.4100 C.ar      1 2HN200      0.0000 
      8 FAH        18.6250   27.5080   -1.5100 F         1 2HN200      0.0000 
      9 CAS        16.4290   26.7120   -1.2020 C.ar      1 2HN200      0.0000 
     10 FAJ        16.0730   27.9940   -1.1140 F         1 2HN200      0.0000 
     11 CAU        15.5110   25.6420   -1.0920 C.ar      1 2HN200      0.0000 
     12 CAL        13.9930   25.8220   -0.8470 C.3       1 2HN200      0.0000 
     13 CAX        13.1780   25.9740   -2.1350 C.3       1 2HN200      0.0000 
     14 CAY        11.6390   26.0030   -1.9030 C.3       1 2HN200      0.0000 
     15 OAF        11.0160   25.9320   -3.1730 O.3       1 2HN200      0.0000 
     16 CAN        11.2420   24.7590   -1.1510 C.2       1 2HN200      0.0000 
     17 OAC        11.2540   23.7330   -1.8390 O.co2     1 2HN200      0.0000 
     18 OAA        10.9730   24.8700    0.0590 O.co2     1 2HN200      0.0000 
     19 CAO        13.6000   27.2810   -2.7760 C.2       1 2HN200      0.0000 
     20 OAB        14.3770   27.2480   -3.7340 O.2       1 2HN200      0.0000 
     21 CAW        13.0470   28.5910   -2.1850 C.3       1 2HN200      0.0000 
     22 OAE        13.3920   29.6900   -3.0180 O.3       1 2HN200      0.0000 
     23 CAV        11.5160   28.5000   -2.0280 C.3       1 2HN200      0.0000 
     24 OAD        11.0580   29.6960   -1.4060 O.3       1 2HN200      0.0000 
     25 CAM        11.1380   27.2650   -1.1610 C.3       1 2HN200      0.0000 
     26 H          13.8434   26.7097   -0.2182 H         1 2HN200      0.0000 
     27 H          13.6240   24.9527   -0.2867 H         1 2HN200      0.0000 
     28 H          13.4171   25.1736   -2.8046 H         1 2HN200      0.0000 
     29 H          13.4695   28.7036   -1.1905 H         1 2HN200      0.0000 
     30 H          11.0889   28.3670   -3.0026 H         1 2HN200      0.0000 
     31 H          11.6264   27.3391   -0.2120 H         1 2HN200      0.0000 
     32 H          10.0740   27.2202   -1.0581 H         1 2HN200      0.0000 
     33 H          11.1098   24.9769   -3.4541 H         1 2HN200      0.0000 
     34 H          14.3282   29.9273   -2.7586 H         1 2HN200      0.0000 
     35 H          10.3223   29.4043   -0.7948 H         1 2HN200      0.0000 
@<TRIPOS>BOND
     1    2    1 1    
     2    3    2 ar   
     3   11    2 ar   
     4    4    3 1    
     5    5    3 ar   
     6    6    5 1    
     7    7    5 ar   
     8    8    7 1    
     9    9    7 ar   
    10   10    9 1    
    11   11    9 ar   
    12   12   11 1    
    13   13   12 1    
    14   26   12 1    
    15   27   12 1    
    16   14   13 1    
    17   19   13 1    
    18   28   13 1    
    19   15   14 1    
    20   16   14 1    
    21   25   14 1    
    22   33   15 1    
    23   17   16 ar   
    24   18   16 ar   
    25   20   19 2    
    26   21   19 1    
    27   22   21 1    
    28   23   21 1    
    29   29   21 1    
    30   34   22 1    
    31   24   23 1    
    32   25   23 1    
    33   30   23 1    
    34   35   24 1    
    35   31   25 1    
    36   32   25 1    
@<TRIPOS>SUBSTRUCTURE
     1 2HN200      1 GROUP   
@<TRIPOS>SET

