#    Name: 1AUX_1_CAVITY_N1_6.mol2
#    Modification time : Mon Mar 10 13:50:29 2014

@<TRIPOS>MOLECULE
1AUX_1_CAVITY_N1_6.mol2
   73     0     6     0     0
SMALL
NO_CHARGES


@<TRIPOS>ATOM
      1 DU         25.8235   28.6945   21.8822 H         6 CUB7        0.0000 
      2 DU         24.7583   27.7178   21.4804 H         6 CUB7        0.0000 
      3 CA         25.5901   27.2935   20.3065 C.3       5 GLY6        0.0000 
      4 CA         23.6931   26.7411   21.0786 C.3       5 GLY6        0.0000 
      5 NZ         25.4060   31.1520   22.6149 N.2       4 LYS4        0.0000 
      6 CA         26.2379   30.7277   21.4410 C.3       5 GLY6        0.0000 
      7 DU         24.3409   30.1752   22.2131 H         6 CUB7        0.0000 
      8 CA         25.1727   29.7509   21.0392 C.3       5 GLY6        0.0000 
      9 CA         26.0046   29.3266   19.8653 C.3       5 GLY6        0.0000 
     10 DU         23.2757   29.1985   21.8113 H         6 CUB7        0.0000 
     11 DU         24.1075   28.7742   20.6374 H         6 CUB7        0.0000 
     12 CA         24.9394   28.3499   19.4636 C.3       5 GLY6        0.0000 
     13 O          22.2105   28.2218   21.4096 O.2       2 ALA2        0.0000 
     14 CA         23.0424   27.7975   20.2357 C.3       5 GLY6        0.0000 
     15 NZ         22.8583   31.6559   22.5440 N.2       4 LYS4        0.0000 
     16 NZ         23.6901   31.2316   21.3701 N.2       4 LYS4        0.0000 
     17 NZ         24.5220   30.8073   20.1963 N.2       4 LYS4        0.0000 
     18 NZ         25.3538   30.3830   19.0224 N.2       4 LYS4        0.0000 
     19 DU         21.7931   30.6792   22.1423 H         6 CUB7        0.0000 
     20 DU         22.6250   30.2549   20.9684 H         6 CUB7        0.0000 
     21 NZ         23.4568   29.8306   19.7945 N.2       4 LYS4        0.0000 
     22 CA         24.2886   29.4063   18.6206 C.3       5 GLY6        0.0000 
     23 O          21.5598   29.2782   20.5666 O.2       2 ALA2        0.0000 
     24 CA         22.3916   28.8539   19.3927 C.3       5 GLY6        0.0000 
     25 NZ         23.2727   33.6891   22.1028 N.2       4 LYS4        0.0000 
     26 NZ         22.2076   32.7123   21.7011 N.2       4 LYS4        0.0000 
     27 NZ         23.0394   32.2880   20.5272 N.2       4 LYS4        0.0000 
     28 DU         20.3106   32.1599   22.4732 H         6 CUB7        0.0000 
     29 DU         21.1424   31.7356   21.2993 H         6 CUB7        0.0000 
     30 DU         21.9742   31.3113   20.1254 H         6 CUB7        0.0000 
     31 NZ         22.8061   30.8870   18.9515 N.2       4 LYS4        0.0000 
     32 CA         20.0772   30.7589   20.8976 C.3       5 GLY6        0.0000 
     33 O          20.9091   30.3346   19.7237 O.2       2 ALA2        0.0000 
     34 OD1        21.7409   29.9103   18.5498 O.3       3 ASP3        0.0000 
     35 CA         20.7250   34.1930   22.0320 C.3       5 GLY6        0.0000 
     36 NZ         21.5568   33.7687   20.8581 N.2       4 LYS4        0.0000 
     37 NZ         22.3887   33.3444   19.6842 N.2       4 LYS4        0.0000 
     38 DU         19.6598   33.2163   21.6302 H         6 CUB7        0.0000 
     39 DU         20.4917   32.7920   20.4564 H         6 CUB7        0.0000 
     40 DU         21.3235   32.3677   19.2825 H         6 CUB7        0.0000 
     41 OD1        22.1553   31.9434   18.1086 O.3       3 ASP3        0.0000 
     42 CA         18.5947   32.2396   21.2285 C.3       5 GLY6        0.0000 
     43 O          19.4265   31.8153   20.0546 O.2       2 ALA2        0.0000 
     44 O          20.2583   31.3910   18.8807 O.2       2 ALA2        0.0000 
     45 OD1        21.0902   30.9667   17.7068 O.3       3 ASP3        0.0000 
     46 CA         17.5295   31.2628   20.8267 C.3       5 GLY6        0.0000 
     47 CA         20.0743   35.2494   21.1891 C.3       5 GLY6        0.0000 
     48 NZ         20.9061   34.8251   20.0152 N.2       4 LYS4        0.0000 
     49 CA         21.7379   34.4008   18.8413 C.3       5 GLY6        0.0000 
     50 CA         18.1773   34.6970   21.9612 C.3       5 GLY6        0.0000 
     51 CA         19.0091   34.2727   20.7873 C.3       5 GLY6        0.0000 
     52 DU         19.8409   33.8484   19.6134 H         6 CUB7        0.0000 
     53 DU         20.6728   33.4241   18.4395 H         6 CUB7        0.0000 
     54 OD1        21.5046   32.9998   17.2656 O.3       3 ASP3        0.0000 
     55 DU         17.9439   33.2960   20.3855 H         6 CUB7        0.0000 
     56 O          18.7758   32.8717   19.2116 O.2       2 ALA2        0.0000 
     57 CA         19.6076   32.4474   18.0378 C.3       5 GLY6        0.0000 
     58 CA         20.4394   32.0231   16.8639 C.3       5 GLY6        0.0000 
     59 OG         16.8787   32.3192   19.9838 O.2       1 SER1        0.0000 
     60 OG         17.7106   31.8949   18.8099 O.2       1 SER1        0.0000 
     61 CA         20.2554   35.8815   19.1722 C.3       5 GLY6        0.0000 
     62 CA         18.3584   35.3291   19.9443 C.3       5 GLY6        0.0000 
     63 CA         19.1902   34.9048   18.7705 C.3       5 GLY6        0.0000 
     64 CA         20.0220   34.4805   17.5966 C.3       5 GLY6        0.0000 
     65 CA         20.8539   34.0562   16.4227 C.3       5 GLY6        0.0000 
     66 N          17.2932   34.3524   19.5426 N.2       2 ALA2        0.0000 
     67 N          18.1250   33.9281   18.3687 N.2       2 ALA2        0.0000 
     68 N          18.9569   33.5038   17.1948 N.2       2 ALA2        0.0000 
     69 CA         19.7887   33.0795   16.0209 C.3       5 GLY6        0.0000 
     70 N          16.2280   33.3756   19.1408 N.2       2 ALA2        0.0000 
     71 N          18.5395   35.9612   17.9275 N.2       2 ALA2        0.0000 
     72 N          19.3713   35.5369   16.7536 N.2       2 ALA2        0.0000 
     73 N          16.6424   35.4088   18.6996 N.2       2 ALA2        0.0000 
@<TRIPOS>BOND
@<TRIPOS>SUBSTRUCTURE
     1 SER1       59 GROUP   
     2 ALA2       13 GROUP   
     3 ASP3       34 GROUP   
     4 LYS4        5 GROUP   
     5 GLY6        3 GROUP   
     6 CUB7        1 GROUP   
@<TRIPOS>SET

