#    Name: 1aux_AGS_1_INTS_M
#    Modification time : Mon Mar 24 18:52:43 2014

@<TRIPOS>MOLECULE
1aux_AGS_1_INTS_M
   43     0    12     0     0
SMALL
NO_CHARGES


@<TRIPOS>ATOM
      1 NZ         21.4735   27.9800   17.4450 N.4       3 LYC4        0.0000 
      2 NZ         20.8580   28.6810   18.6000 N.4      11 LYL4        0.0000 
      3 NZ         22.0890   27.2790   16.2900 N.4       7 LYP4        0.0000 
      4 N          20.1865   27.9400   19.6395 N.am      2 SEC2        0.0000 
      5 N          20.8580   28.6810   18.6000 N.am     10 SEL2        0.0000 
      6 N          19.5150   27.1990   20.6790 N.am      6 SEP2        0.0000 
      7 N          21.4735   27.9800   17.4450 N.am      2 SEC2        0.0000 
      8 N          22.0890   27.2790   16.2900 N.am      6 SEP2        0.0000 
      9 NZ         22.2505   31.0070   17.1045 N.4       3 LYC4        0.0000 
     10 NZ         21.7580   31.1040   18.6660 N.4      11 LYL4        0.0000 
     11 NZ         22.7430   30.9100   15.5430 N.4       7 LYP4        0.0000 
     12 N          22.2505   31.0070   17.1045 N.am      2 SEC2        0.0000 
     13 N          21.7580   31.1040   18.6660 N.am     10 SEL2        0.0000 
     14 N          22.7430   30.9100   15.5430 N.am      6 SEP2        0.0000 
     15 N          20.5535   28.5020   20.7250 N.am      2 SEC2        0.0000 
     16 N          21.5920   29.8050   20.7710 N.am     10 SEL2        0.0000 
     17 NZ         26.9195   28.5680   18.3220 N.4       3 LYC4        0.0000 
     18 NZ         25.7880   29.2770   18.9560 N.4      11 LYL4        0.0000 
     19 NZ         28.0510   27.8590   17.6880 N.4       7 LYP4        0.0000 
     20 N          26.9195   28.5680   18.3220 N.am      2 SEC2        0.0000 
     21 N          25.7880   29.2770   18.9560 N.am     10 SEL2        0.0000 
     22 N          28.0510   27.8590   17.6880 N.am      6 SEP2        0.0000 
     23 CA         28.7875   30.0170   24.6330 C.3       4 GLC5        0.0000 
     24 CA         26.9890   29.1170   24.4190 C.3      12 GLL5        0.0000 
     25 CA         30.5860   30.9170   24.8470 C.3       8 GLP5        0.0000 
     26 O          31.4725   26.8470   18.9725 O.2       1 ALC1        0.0000 
     27 O          31.9050   26.4030   20.2440 O.2       9 ALL1        0.0000 
     28 O          31.0400   27.2910   17.7010 O.2       5 ALP1        0.0000 
     29 O          33.3140   25.5240   20.0380 O.2       1 ALC1        0.0000 
     30 O          34.7230   24.6450   19.8320 O.2       5 ALP1        0.0000 
     31 N          33.1450   25.2165   22.9930 N.am      2 SEC2        0.0000 
     32 N          31.8820   25.8680   22.5120 N.am     10 SEL2        0.0000 
     33 N          34.4080   24.5650   23.4740 N.am      6 SEP2        0.0000 
     34 CA         33.1175   26.3865   23.8630 C.3       4 GLC5        0.0000 
     35 CA         31.2460   25.8490   23.7150 C.3      12 GLL5        0.0000 
     36 CA         34.9890   26.9240   24.0110 C.3       8 GLP5        0.0000 
     37 CA         31.4935   27.6930   23.4560 C.3       4 GLC5        0.0000 
     38 CA         31.7410   29.5370   23.1970 C.3       8 GLP5        0.0000 
     39 CA         30.5783   24.7097   20.9388 C.3       4 GLC5        0.0000 
     40 CA         29.9340   26.9210   21.6450 C.3      12 GLL5        0.0000 
     41 CA         30.5610   22.7600   20.3380 C.3       8 GLP5        0.0000 
     42 CA         30.8711   28.1476   22.7229 C.3       4 GLC5        0.0000 
     43 CA         31.2570   26.3980   21.4340 C.3      12 GLL5        0.0000 
@<TRIPOS>BOND
@<TRIPOS>SUBSTRUCTURE
     1 ALC1       26 GROUP        1 X    ALC  0     ROOT ALC X 1
     2 SEC2        4 GROUP        1 X    SEC  0     **** SEC X 2
     3 LYC4        1 GROUP        1 X    LYC  0     **** LYC X 4
     4 GLC5       23 GROUP        1 X    GLC  0     **** GLC X 6
     5 ALP1       28 GROUP        1 Y    ALP  0     ROOT ALP Y 8
     6 SEP2        6 GROUP        1 Y    SEP  0     **** SEP Y 9
     7 LYP4        3 GROUP        1 Y    LYP  0     **** LYP Y 11
     8 GLP5       25 GROUP        1 Y    GLP  0     **** GLP Y 13
     9 ALL1       27 GROUP        1 Z    ALL  0     ROOT ALL Z 15
    10 SEL2        5 GROUP        1 Z    SEL  0     **** SEL Z 16
    11 LYL4        2 GROUP        1 Z    LYL  0     **** LYL Z 18
    12 GLL5       24 GROUP        1 Z    GLL  0     **** GLL Z 20
@<TRIPOS>SET

