#    Name: 1aux_AGS_1_ligand
#    Modification time : Mon Mar 24 18:52:43 2014

@<TRIPOS>MOLECULE
1aux_AGS_1_ligand
   43    45     1     0     0
SMALL
NO_CHARGES


@<TRIPOS>ATOM
      1 PG         21.1730   31.0120   21.8090 P.3       1 AGS800      0.0000 
      2 S1G        21.2460   30.2540   23.6130 S.3       1 AGS800      0.0000 
      3 O2G        19.7600   31.5930   21.4800 O.co2     1 AGS800      0.0000 
      4 O3G        22.1810   32.1090   21.6650 O.co2     1 AGS800      0.0000 
      5 PB         21.7870   29.7030   19.2010 P.3       1 AGS800      0.0000 
      6 O1B        20.8580   28.6810   18.6000 O.co2     1 AGS800      0.0000 
      7 O2B        21.7580   31.1040   18.6660 O.co2     1 AGS800      0.0000 
      8 O3B        21.5920   29.8050   20.7710 O.3       1 AGS800      0.0000 
      9 PA         24.6530   29.4550   19.9310 P.3       1 AGS800      0.0000 
     10 O1A        25.7880   29.2770   18.9560 O.co2     1 AGS800      0.0000 
     11 O2A        24.5930   30.8130   20.5850 O.co2     1 AGS800      0.0000 
     12 O3A        23.2890   29.1760   19.0890 O.3       1 AGS800      0.0000 
     13 O5'        24.5970   28.2190   20.9930 O.3       1 AGS800      0.0000 
     14 C5'        23.9190   28.5200   22.2410 C.3       1 AGS800      0.0000 
     15 C4'        24.8550   28.5200   23.4590 C.3       1 AGS800      0.0000 
     16 O4'        25.7700   27.3750   23.3670 O.3       1 AGS800      0.0000 
     17 C3'        25.7950   29.7230   23.6300 C.3       1 AGS800      0.0000 
     18 O3'        25.1640   30.8570   24.2340 O.3       1 AGS800      0.0000 
     19 C2'        26.9890   29.1170   24.4190 C.3       1 AGS800      0.0000 
     20 O2'        26.9010   29.2060   25.8320 O.3       1 AGS800      0.0000 
     21 C1'        27.0600   27.6830   23.9430 C.3       1 AGS800      0.0000 
     22 N9         28.1380   27.4120   22.9130 N.pl3     1 AGS800      0.0000 
     23 C8         27.9870   27.7970   21.6020 C.2       1 AGS800      0.0000 
     24 N7         29.0200   27.5120   20.8030 N.2       1 AGS800      0.0000 
     25 C5         29.9340   26.9210   21.6450 C.ar      1 AGS800      0.0000 
     26 C6         31.2570   26.3980   21.4340 C.ar      1 AGS800      0.0000 
     27 N6         31.9050   26.4030   20.2440 N.pl3     1 AGS800      0.0000 
     28 N1         31.8820   25.8680   22.5120 N.ar      1 AGS800      0.0000 
     29 C2         31.2460   25.8490   23.7150 C.ar      1 AGS800      0.0000 
     30 N3         30.0230   26.3120   24.0370 N.ar      1 AGS800      0.0000 
     31 C4         29.4070   26.8570   22.9580 C.ar      1 AGS800      0.0000 
     32 H          23.1126   27.7868   22.4394 H         1 AGS800      0.0000 
     33 H          23.4300   29.5130   22.1955 H         1 AGS800      0.0000 
     34 H          24.2747   28.4131   24.3664 H         1 AGS800      0.0000 
     35 H          26.1822   29.9403   22.6274 H         1 AGS800      0.0000 
     36 H          27.8882   29.6126   24.0263 H         1 AGS800      0.0000 
     37 H          27.2246   27.0429   24.8040 H         1 AGS800      0.0000 
     38 H          27.1501   28.2598   21.2849 H         1 AGS800      0.0000 
     39 H          32.8325   26.0293   20.2465 H         1 AGS800      0.0000 
     40 H          31.3983   26.7800   19.4686 H         1 AGS800      0.0000 
     41 H          31.8172   25.3881   24.5398 H         1 AGS800      0.0000 
     42 H          25.6685   31.6483   23.8886 H         1 AGS800      0.0000 
     43 H          26.2598   29.9536   26.0047 H         1 AGS800      0.0000 
@<TRIPOS>BOND
     1    2    1 1    
     2    3    1 ar   
     3    4    1 ar   
     4    8    1 1    
     5    6    5 ar   
     6    7    5 ar   
     7    8    5 1    
     8   12    5 1    
     9   10    9 ar   
    10   11    9 ar   
    11   12    9 1    
    12   13    9 1    
    13   14   13 1    
    14   15   14 1    
    15   32   14 1    
    16   33   14 1    
    17   16   15 1    
    18   17   15 1    
    19   34   15 1    
    20   21   16 1    
    21   18   17 1    
    22   19   17 1    
    23   35   17 1    
    24   42   18 1    
    25   20   19 1    
    26   21   19 1    
    27   36   19 1    
    28   43   20 1    
    29   22   21 1    
    30   37   21 1    
    31   23   22 1    
    32   31   22 1    
    33   24   23 2    
    34   38   23 1    
    35   25   24 1    
    36   26   25 ar   
    37   31   25 ar   
    38   27   26 1    
    39   28   26 ar   
    40   39   27 1    
    41   40   27 1    
    42   29   28 ar   
    43   30   29 ar   
    44   41   29 1    
    45   31   30 ar   
@<TRIPOS>SUBSTRUCTURE
     1 AGS800      1 GROUP   
@<TRIPOS>SET

