#    Name: 1OG4_1_CAVITY_N1_6.mol2
#    Modification time : Mon Mar 10 22:12:54 2014

@<TRIPOS>MOLECULE
1OG4_1_CAVITY_N1_6.mol2
  132     0     5     0     0
SMALL
NO_CHARGES


@<TRIPOS>ATOM
      1 O           8.1736   30.9353    4.2936 O.2       2 ALA2        0.0000 
      2 N           6.7132   31.1726    4.5405 N.2       2 ALA2        0.0000 
      3 N           5.2528   31.4098    4.7874 N.2       2 ALA2        0.0000 
      4 CA          9.9814   30.6592    6.1389 C.3       4 GLY6        0.0000 
      5 CA          8.5211   30.8964    6.3859 C.3       4 GLY6        0.0000 
      6 DU          8.5160   31.9630    5.3312 H         5 CUB7        0.0000 
      7 N           7.0607   31.1336    6.6328 N.2       2 ALA2        0.0000 
      8 N           7.0556   32.2002    5.5781 N.2       2 ALA2        0.0000 
      9 DU          7.0505   33.2668    4.5235 H         5 CUB7        0.0000 
     10 CA          5.5952   32.4375    5.8251 C.3       4 GLY6        0.0000 
     11 DU         11.7792   32.5162    5.8750 H         5 CUB7        0.0000 
     12 CA         10.3238   31.6868    7.1766 C.3       4 GLY6        0.0000 
     13 DU         10.3188   32.7534    6.1219 H         5 CUB7        0.0000 
     14 CA          8.8634   31.9241    7.4235 C.3       4 GLY6        0.0000 
     15 DU          8.8584   32.9907    6.3688 H         5 CUB7        0.0000 
     16 DU          8.8533   34.0573    5.3142 H         5 CUB7        0.0000 
     17 N           7.4030   32.1613    7.6704 N.2       2 ALA2        0.0000 
     18 DU          7.3980   33.2279    6.6158 H         5 CUB7        0.0000 
     19 N           5.9427   32.3985    7.9174 N.2       2 ALA2        0.0000 
     20 CZ          5.9376   33.4651    6.8627 C.ar      3 PHE5        0.0000 
     21 O          12.1215   33.5439    6.9126 O.2       2 ALA2        0.0000 
     22 DU         12.1165   34.6105    5.8579 H         5 CUB7        0.0000 
     23 O          10.6611   33.7811    7.1595 O.2       2 ALA2        0.0000 
     24 DU         10.6561   34.8477    6.1048 H         5 CUB7        0.0000 
     25 O           9.2058   32.9517    8.4611 O.2       2 ALA2        0.0000 
     26 O           9.2008   34.0183    7.4065 O.2       2 ALA2        0.0000 
     27 DU          9.1957   35.0849    6.3518 H         5 CUB7        0.0000 
     28 N           7.7454   33.1890    8.7081 N.2       2 ALA2        0.0000 
     29 DU          7.7404   34.2556    7.6534 H         5 CUB7        0.0000 
     30 DU          7.7353   35.3222    6.5987 H         5 CUB7        0.0000 
     31 N           6.2850   33.4262    8.9550 N.2       2 ALA2        0.0000 
     32 CZ          6.2800   34.4928    7.9003 C.ar      3 PHE5        0.0000 
     33 DU          6.2749   35.5594    6.8456 H         5 CUB7        0.0000 
     34 CA          4.8297   32.5968   10.2566 C.3       4 GLY6        0.0000 
     35 CZ          4.8145   35.7966    7.0926 C.ar      3 PHE5        0.0000 
     36 CZ          3.3744   31.7675   11.5582 C.ar      3 PHE5        0.0000 
     37 O          13.9192   35.4009    6.6486 O.2       2 ALA2        0.0000 
     38 O          13.9142   36.4675    5.5939 O.2       2 ALA2        0.0000 
     39 O          12.4639   34.5715    7.9502 O.2       2 ALA2        0.0000 
     40 O          12.4588   35.6381    6.8955 O.2       2 ALA2        0.0000 
     41 CA         12.4538   36.7047    5.8409 C.3       4 GLY6        0.0000 
     42 O          11.0035   34.8088    8.1972 O.2       2 ALA2        0.0000 
     43 DU         10.9985   35.8754    7.1425 H         5 CUB7        0.0000 
     44 CA         10.9934   36.9420    6.0878 C.3       4 GLY6        0.0000 
     45 O           9.5431   35.0460    8.4441 O.2       2 ALA2        0.0000 
     46 DU          9.5381   36.1126    7.3894 H         5 CUB7        0.0000 
     47 CA          9.5330   37.1792    6.3347 C.3       4 GLY6        0.0000 
     48 O           8.0827   35.2832    8.6910 O.2       2 ALA2        0.0000 
     49 DU          8.0777   36.3498    7.6363 H         5 CUB7        0.0000 
     50 CA          8.0726   37.4164    6.5817 C.3       4 GLY6        0.0000 
     51 O           6.6274   34.4539    9.9926 O.2       2 ALA2        0.0000 
     52 OG          6.6224   35.5205    8.9380 O.2       1 SER1        0.0000 
     53 DU          6.6173   36.5871    7.8833 H         5 CUB7        0.0000 
     54 DU          6.6122   37.6536    6.8286 H         5 CUB7        0.0000 
     55 N           5.1721   33.6245   11.2942 N.2       2 ALA2        0.0000 
     56 CZ          5.1670   34.6911   10.2396 C.ar      3 PHE5        0.0000 
     57 CZ          5.1620   35.7577    9.1849 C.ar      3 PHE5        0.0000 
     58 CZ          5.1569   36.8243    8.1302 C.ar      3 PHE5        0.0000 
     59 DU          5.1518   37.8909    7.0755 H         5 CUB7        0.0000 
     60 CA          3.7168   32.7951   12.5959 C.3       4 GLY6        0.0000 
     61 CZ          3.7117   33.8617   11.5412 C.ar      3 PHE5        0.0000 
     62 CZ          3.7066   34.9283   10.4865 C.ar      3 PHE5        0.0000 
     63 CZ          3.6965   37.0615    8.3771 C.ar      3 PHE5        0.0000 
     64 DU          3.6914   38.1281    7.3225 H         5 CUB7        0.0000 
     65 DU          3.6863   39.1947    6.2678 H         5 CUB7        0.0000 
     66 CA          2.2564   33.0324   12.8428 C.3       4 GLY6        0.0000 
     67 CZ          2.2513   34.0989   11.7881 C.ar      3 PHE5        0.0000 
     68 CZ          2.2361   37.2987    8.6241 C.ar      3 PHE5        0.0000 
     69 N           2.2310   38.3653    7.5694 N.2       2 ALA2        0.0000 
     70 N           0.7706   38.6026    7.8163 N.2       2 ALA2        0.0000 
     71 N          -0.6948   39.9064    7.0086 N.2       2 ALA2        0.0000 
     72 O          12.8012   36.6658    7.9332 O.2       2 ALA2        0.0000 
     73 O          12.7962   37.7324    6.8785 O.2       2 ALA2        0.0000 
     74 O          11.3459   35.8364    9.2348 O.2       2 ALA2        0.0000 
     75 O          11.3408   36.9030    8.1801 O.2       2 ALA2        0.0000 
     76 O           9.8855   36.0737    9.4817 O.2       2 ALA2        0.0000 
     77 O           9.8804   37.1403    8.4270 O.2       2 ALA2        0.0000 
     78 O           9.8754   38.2069    7.3724 O.2       2 ALA2        0.0000 
     79 O           8.4251   36.3109    9.7287 O.2       2 ALA2        0.0000 
     80 OG          8.4201   37.3775    8.6740 O.2       1 SER1        0.0000 
     81 CA          8.4150   38.4441    7.6193 C.3       4 GLY6        0.0000 
     82 OG          6.9597   37.6147    8.9209 O.2       1 SER1        0.0000 
     83 CA          6.9546   38.6813    7.8662 C.3       4 GLY6        0.0000 
     84 CA          6.9495   39.7479    6.8116 C.3       4 GLY6        0.0000 
     85 OG          5.4993   37.8519    9.1678 O.2       1 SER1        0.0000 
     86 DU          5.4942   38.9185    8.1132 H         5 CUB7        0.0000 
     87 N           5.4891   39.9851    7.0585 N.2       2 ALA2        0.0000 
     88 N           4.0541   34.8894   12.5788 N.2       2 ALA2        0.0000 
     89 OG          4.0490   35.9560   11.5241 O.2       1 SER1        0.0000 
     90 OG          4.0440   37.0226   10.4695 O.2       1 SER1        0.0000 
     91 OG          4.0389   38.0892    9.4148 O.2       1 SER1        0.0000 
     92 DU          4.0338   39.1558    8.3601 H         5 CUB7        0.0000 
     93 N           4.0287   40.2224    7.3054 N.2       2 ALA2        0.0000 
     94 N           2.5937   35.1266   12.8257 N.2       2 ALA2        0.0000 
     95 CZ          2.5886   36.1932   11.7711 C.ar      3 PHE5        0.0000 
     96 N           2.5836   37.2598   10.7164 N.2       2 ALA2        0.0000 
     97 N           2.5785   38.3264    9.6617 N.2       2 ALA2        0.0000 
     98 N           2.5734   39.3930    8.6070 N.2       2 ALA2        0.0000 
     99 N           2.5683   40.4596    7.5523 N.2       2 ALA2        0.0000 
    100 N           1.1130   39.6302    8.8540 N.2       2 ALA2        0.0000 
    101 N           1.1079   40.6968    7.7993 N.2       2 ALA2        0.0000 
    102 CA         -0.3524   40.9341    8.0462 C.3       4 GLY6        0.0000 
    103 OG          8.7624   38.4052    9.7116 O.2       1 SER1        0.0000 
    104 CA          8.7574   39.4718    8.6569 C.3       4 GLY6        0.0000 
    105 OG          7.3020   38.6424    9.9585 O.2       1 SER1        0.0000 
    106 CA          7.2970   39.7090    8.9039 C.3       4 GLY6        0.0000 
    107 OG          5.8417   38.8796   10.2055 O.2       1 SER1        0.0000 
    108 N           5.8366   39.9462    9.1508 N.2       2 ALA2        0.0000 
    109 N           5.8315   41.0128    8.0961 N.2       2 ALA2        0.0000 
    110 OG          4.3813   39.1168   10.4524 O.2       1 SER1        0.0000 
    111 CA          4.3762   40.1834    9.3977 C.3       4 GLY6        0.0000 
    112 N           4.3711   41.2500    8.3430 N.2       2 ALA2        0.0000 
    113 CA          2.9310   37.2209   12.8087 C.3       4 GLY6        0.0000 
    114 CA          2.9259   38.2875   11.7540 C.3       4 GLY6        0.0000 
    115 N           2.9209   39.3541   10.6993 N.2       2 ALA2        0.0000 
    116 N           2.9158   40.4207    9.6447 N.2       2 ALA2        0.0000 
    117 N           1.4655   38.5247   12.0009 N.2       2 ALA2        0.0000 
    118 N           1.4605   39.5913   10.9463 N.2       2 ALA2        0.0000 
    119 OG          1.4554   40.6579    9.8916 O.2       1 SER1        0.0000 
    120 CZ          7.6444   39.6700   10.9962 C.ar      3 PHE5        0.0000 
    121 CZ          7.6394   40.7366    9.9415 C.ar      3 PHE5        0.0000 
    122 OG          6.1840   39.9073   11.2431 O.2       1 SER1        0.0000 
    123 N           6.1790   40.9739   10.1884 N.2       2 ALA2        0.0000 
    124 CA          4.7236   40.1445   11.4900 C.3       4 GLY6        0.0000 
    125 CA          4.7186   41.2111   10.4354 C.3       4 GLY6        0.0000 
    126 CA          3.2683   39.3151   12.7916 C.3       4 GLY6        0.0000 
    127 CA          3.2633   40.3817   11.7370 C.3       4 GLY6        0.0000 
    128 CA          3.2582   41.4483   10.6823 C.3       4 GLY6        0.0000 
    129 OG          1.8029   40.6190   11.9839 O.2       1 SER1        0.0000 
    130 CZ          5.0660   41.1722   12.5277 C.ar      3 PHE5        0.0000 
    131 CA          3.6107   40.3428   13.8293 C.3       4 GLY6        0.0000 
    132 CA          3.6056   41.4094   12.7746 C.3       4 GLY6        0.0000 
@<TRIPOS>BOND
@<TRIPOS>SUBSTRUCTURE
     1 SER1       52 GROUP   
     2 ALA2        1 GROUP   
     3 PHE5       20 GROUP   
     4 GLY6        4 GROUP   
     5 CUB7        6 GROUP   
@<TRIPOS>SET

