#    Name: 1og4_NAI_1_INTS_M
#    Modification time : Mon Mar 24 20:05:14 2014

@<TRIPOS>MOLECULE
1og4_NAI_1_INTS_M
   60     0    12     0     0
SMALL
NO_CHARGES


@<TRIPOS>ATOM
      1 NZ         10.6395   34.5855    9.8890 N.4       3 LYC4        0.0000 
      2 NZ         10.6000   35.8230    9.1470 N.4      11 LYL4        0.0000 
      3 NZ          9.8740   33.2100   11.6770 N.4       7 LYP4        0.0000 
      4 N          10.6395   34.5855    9.8890 N.am      2 SEC2        0.0000 
      5 N          10.6000   35.8230    9.1470 N.am     10 SEL2        0.0000 
      6 N          10.6790   33.3480   10.6310 N.am      6 SEP2        0.0000 
      7 N          11.3685   38.6375    8.2820 N.am      2 SEC2        0.0000 
      8 N          10.7430   37.8720    7.5110 N.am     10 SEL2        0.0000 
      9 N          11.9940   39.4030    9.0530 N.am      6 SEP2        0.0000 
     10 CA         18.4720   30.8235    6.0205 C.3       4 GLC5        0.0000 
     11 CA         18.6320   32.2930    6.7170 C.3      12 GLL5        0.0000 
     12 CA         18.3120   29.3540    5.3240 C.3       8 GLP5        0.0000 
     13 CA         19.1815   33.8780    7.2725 C.3       4 GLC5        0.0000 
     14 CA         19.7310   35.4630    7.8280 C.3       8 GLP5        0.0000 
     15 NZ          9.4205   34.2830   10.1155 N.4       3 LYC4        0.0000 
     16 NZ          8.1620   35.2180    9.6000 N.4      11 LYL4        0.0000 
     17 N           8.5010   34.6230   10.7155 N.am      2 SEC2        0.0000 
     18 N           8.1620   35.2180    9.6000 N.am     10 SEL2        0.0000 
     19 N           8.8400   34.0280   11.8310 N.am      6 SEP2        0.0000 
     20 N           9.4205   34.2830   10.1155 N.am      2 SEC2        0.0000 
     21 CA          3.3090   36.2680    8.0705 C.3       4 GLC5        0.0000 
     22 CA          4.5660   38.0400    7.7980 C.3      12 GLL5        0.0000 
     23 CA          2.0520   34.4960    8.3430 C.3       8 GLP5        0.0000 
     24 O           5.6250   38.3615   11.6640 O.2       1 ALC1        0.0000 
     25 O           4.6760   39.3320   11.1960 O.2       9 ALL1        0.0000 
     26 O           6.5740   37.3910   12.1320 O.2       5 ALP1        0.0000 
     27 CA          2.8015   36.0765    9.1035 C.3       4 GLC5        0.0000 
     28 CA          3.5510   37.6570    9.8640 C.3      12 GLL5        0.0000 
     29 CA          5.0620   36.6475   12.0770 C.3       4 GLC5        0.0000 
     30 CA          3.9130   35.3540   10.7710 C.3      12 GLL5        0.0000 
     31 CA          6.2110   37.9410   13.3830 C.3       8 GLP5        0.0000 
     32 N           4.6770   30.6945   12.2185 N.am      2 SEC2        0.0000 
     33 N           3.8800   32.0230   12.2500 N.am     10 SEL2        0.0000 
     34 N           5.4740   29.3660   12.1870 N.am      6 SEP2        0.0000 
     35 O           5.9370   31.5360   10.2555 O.2       1 ALC1        0.0000 
     36 O           5.2930   32.9050   10.7240 O.2       9 ALL1        0.0000 
     37 O           6.5810   30.1670    9.7870 O.2       5 ALP1        0.0000 
     38 CA          3.7710   34.5045   14.3370 C.3       4 GLC5        0.0000 
     39 CA          2.6290   34.5710   12.6490 C.3      12 GLL5        0.0000 
     40 CA          4.9130   34.4380   16.0250 C.3       8 GLP5        0.0000 
     41 CA          4.2495   37.3760   12.6105 C.3       4 GLC5        0.0000 
     42 CA          2.2880   36.8110   11.8380 C.3      12 GLL5        0.0000 
     43 CA          0.5720   38.2505   11.9030 C.3       4 GLC5        0.0000 
     44 CA         -1.1440   39.6900   11.9680 C.3       8 GLP5        0.0000 
     45 CA         15.1105   31.4617    5.8930 C.3       4 GLC5        0.0000 
     46 CA         13.4300   32.5950    5.1150 C.3      12 GLL5        0.0000 
     47 CA         16.1970   29.8570    6.5700 C.3       8 GLP5        0.0000 
     48 CA         16.5074   31.3914    7.1695 C.3       4 GLC5        0.0000 
     49 CA         16.5830   33.0260    8.3260 C.3      12 GLL5        0.0000 
     50 CA         18.2744   34.1944    7.7985 C.3       4 GLC5        0.0000 
     51 CA         16.4400   33.0160    6.9450 C.3      12 GLL5        0.0000 
     52 CA          5.2073   37.9873   11.6867 C.3       4 GLC5        0.0000 
     53 CA          4.8560   38.4100   10.1170 C.3      12 GLL5        0.0000 
     54 CA          1.4078   34.2210   14.2655 C.3       4 GLC5        0.0000 
     55 CA          1.9760   35.7970   12.7370 C.3      12 GLL5        0.0000 
     56 CA          0.5130   33.2580   15.8380 C.3       8 GLP5        0.0000 
     57 CA          0.1100   36.5240   12.2933 C.3       4 GLC5        0.0000 
     58 CA         -1.9120   36.7440   12.2990 C.3       8 GLP5        0.0000 
     59 CA          1.8045   37.5815   13.7508 C.3       4 GLC5        0.0000 
     60 CA          1.4770   38.8590   15.2140 C.3       8 GLP5        0.0000 
@<TRIPOS>BOND
@<TRIPOS>SUBSTRUCTURE
     1 ALC1       24 GROUP        1 X    ALC  0     ROOT ALC X 1
     2 SEC2        4 GROUP        1 X    SEC  0     **** SEC X 2
     3 LYC4        1 GROUP        1 X    LYC  0     **** LYC X 4
     4 GLC5       10 GROUP        1 X    GLC  0     **** GLC X 6
     5 ALP1       26 GROUP        1 Y    ALP  0     ROOT ALP Y 8
     6 SEP2        6 GROUP        1 Y    SEP  0     **** SEP Y 9
     7 LYP4        3 GROUP        1 Y    LYP  0     **** LYP Y 11
     8 GLP5       12 GROUP        1 Y    GLP  0     **** GLP Y 13
     9 ALL1       25 GROUP        1 Z    ALL  0     ROOT ALL Z 15
    10 SEL2        5 GROUP        1 Z    SEL  0     **** SEL Z 16
    11 LYL4        2 GROUP        1 Z    LYL  0     **** LYL Z 18
    12 GLL5       11 GROUP        1 Z    GLL  0     **** GLL Z 20
@<TRIPOS>SET

