#    Name: 1og4_NAI_1_ligand
#    Modification time : Mon Mar 24 20:05:14 2014

@<TRIPOS>MOLECULE
1og4_NAI_1_ligand
   71    75     1     0     0
SMALL
NO_CHARGES


@<TRIPOS>ATOM
      1 PA         10.1620   36.5860    7.9580 P.3       1 NAI1227     0.0000 
      2 O1A        10.6000   35.8230    9.1470 O.co2     1 NAI1227     0.0000 
      3 O2A        10.7430   37.8720    7.5110 O.co2     1 NAI1227     0.0000 
      4 O5B        10.8420   35.6330    6.8530 O.3       1 NAI1227     0.0000 
      5 C5B        12.2240   35.7930    6.5220 C.3       1 NAI1227     0.0000 
      6 C4B        12.6380   34.7680    5.4630 C.3       1 NAI1227     0.0000 
      7 O4B        14.0460   34.8510    5.1730 O.3       1 NAI1227     0.0000 
      8 C3B        12.3850   33.3390    5.9430 C.3       1 NAI1227     0.0000 
      9 O3B        11.0730   32.9320    5.5480 O.3       1 NAI1227     0.0000 
     10 C2B        13.4300   32.5950    5.1150 C.3       1 NAI1227     0.0000 
     11 O2B        13.0490   32.5830    3.7360 O.3       1 NAI1227     0.0000 
     12 C1B        14.6180   33.5380    5.3170 C.3       1 NAI1227     0.0000 
     13 N9A        15.1990   33.4100    6.6760 N.pl3     1 NAI1227     0.0000 
     14 C8A        14.5920   33.6620    7.8350 C.2       1 NAI1227     0.0000 
     15 N7A        15.4270   33.4290    8.8450 N.2       1 NAI1227     0.0000 
     16 C5A        16.5830   33.0260    8.3260 C.ar      1 NAI1227     0.0000 
     17 C6A        17.8080   32.6450    8.8600 C.ar      1 NAI1227     0.0000 
     18 N6A        17.9930   32.6280   10.1770 N.pl3     1 NAI1227     0.0000 
     19 N1A        18.8000   32.2890    8.0290 N.ar      1 NAI1227     0.0000 
     20 C2A        18.6320   32.2930    6.7170 C.ar      1 NAI1227     0.0000 
     21 N3A        17.4770   32.6470    6.1780 N.ar      1 NAI1227     0.0000 
     22 C4A        16.4400   33.0160    6.9450 C.ar      1 NAI1227     0.0000 
     23 O3          8.6870   36.3000    7.3790 O.3       1 NAI1227     0.0000 
     24 PN          7.5900   35.5280    8.2700 P.3       1 NAI1227     0.0000 
     25 O1N         8.1620   35.2180    9.6000 O.co2     1 NAI1227     0.0000 
     26 O2N         7.0100   34.4220    7.4780 O.co2     1 NAI1227     0.0000 
     27 O5D         6.4590   36.6530    8.4880 O.3       1 NAI1227     0.0000 
     28 C5D         5.7750   37.2080    7.3610 C.3       1 NAI1227     0.0000 
     29 C4D         4.5660   38.0400    7.7980 C.3       1 NAI1227     0.0000 
     30 O4D         3.6900   37.1540    8.5230 O.3       1 NAI1227     0.0000 
     31 C3D         4.9660   39.1410    8.7820 C.3       1 NAI1227     0.0000 
     32 O3D         4.0430   40.2330    8.7400 O.3       1 NAI1227     0.0000 
     33 C2D         4.8560   38.4100   10.1170 C.3       1 NAI1227     0.0000 
     34 O2D         4.6760   39.3320   11.1960 O.3       1 NAI1227     0.0000 
     35 C1D         3.5510   37.6570    9.8640 C.3       1 NAI1227     0.0000 
     36 N1N         3.2570   36.5910   10.8490 N.pl3     1 NAI1227     0.0000 
     37 C2N         3.9130   35.3540   10.7710 C.2       1 NAI1227     0.0000 
     38 C3N         3.5940   34.3430   11.6730 C.2       1 NAI1227     0.0000 
     39 C7N         4.2760   32.9750   11.5790 C.2       1 NAI1227     0.0000 
     40 O7N         3.8800   32.0230   12.2500 O.2       1 NAI1227     0.0000 
     41 N7N         5.2930   32.9050   10.7240 N.am      1 NAI1227     0.0000 
     42 C4N         2.6290   34.5710   12.6490 C.3       1 NAI1227     0.0000 
     43 C5N         1.9760   35.7970   12.7370 C.2       1 NAI1227     0.0000 
     44 C6N         2.2880   36.8110   11.8380 C.2       1 NAI1227     0.0000 
     45 H          12.8707   35.6476    7.3970 H         1 NAI1227     0.0000 
     46 H          12.4318   36.7922    6.1176 H         1 NAI1227     0.0000 
     47 H          12.0563   34.9251    4.5721 H         1 NAI1227     0.0000 
     48 H          12.6086   33.2631    6.9383 H         1 NAI1227     0.0000 
     49 H          13.6332   31.6890    5.5456 H         1 NAI1227     0.0000 
     50 H          15.3331   33.3513    4.5647 H         1 NAI1227     0.0000 
     51 H          13.6653   33.9736    7.9293 H         1 NAI1227     0.0000 
     52 H          18.8981   32.3408   10.4905 H         1 NAI1227     0.0000 
     53 H          17.2103   32.9040   10.7349 H         1 NAI1227     0.0000 
     54 H          19.4341   32.0085    6.0886 H         1 NAI1227     0.0000 
     55 H           5.4089   36.4216    6.6812 H         1 NAI1227     0.0000 
     56 H           6.4338   37.8644    6.7697 H         1 NAI1227     0.0000 
     57 H           4.0909   38.4579    6.9622 H         1 NAI1227     0.0000 
     58 H           5.9643   39.3963    8.6187 H         1 NAI1227     0.0000 
     59 H           5.6242   37.7362   10.2081 H         1 NAI1227     0.0000 
     60 H           2.7537   38.4091    9.8736 H         1 NAI1227     0.0000 
     61 H           4.6248   35.1993   10.0500 H         1 NAI1227     0.0000 
     62 H           5.7110   32.0037   10.6103 H         1 NAI1227     0.0000 
     63 H           5.5476   33.7600   10.2722 H         1 NAI1227     0.0000 
     64 H           3.0848   34.3177   13.6887 H         1 NAI1227     0.0000 
     65 H           1.8297   33.7284   12.5854 H         1 NAI1227     0.0000 
     66 H           1.2670   35.9515   13.4628 H         1 NAI1227     0.0000 
     67 H           1.8140   37.7179   11.8940 H         1 NAI1227     0.0000 
     68 H          10.4701   33.6676    5.8568 H         1 NAI1227     0.0000 
     69 H          12.0527   32.4974    3.7436 H         1 NAI1227     0.0000 
     70 H           3.9059   40.4928    9.6959 H         1 NAI1227     0.0000 
     71 H           5.4144   39.1260   11.8381 H         1 NAI1227     0.0000 
@<TRIPOS>BOND
     1    2    1 ar   
     2    3    1 ar   
     3    4    1 1    
     4   23    1 1    
     5    5    4 1    
     6    6    5 1    
     7   45    5 1    
     8   46    5 1    
     9    7    6 1    
    10    8    6 1    
    11   47    6 1    
    12   12    7 1    
    13    9    8 1    
    14   10    8 1    
    15   48    8 1    
    16   68    9 1    
    17   11   10 1    
    18   12   10 1    
    19   49   10 1    
    20   69   11 1    
    21   13   12 1    
    22   50   12 1    
    23   14   13 1    
    24   22   13 1    
    25   15   14 2    
    26   51   14 1    
    27   16   15 1    
    28   17   16 ar   
    29   22   16 ar   
    30   18   17 1    
    31   19   17 ar   
    32   52   18 1    
    33   53   18 1    
    34   20   19 ar   
    35   21   20 ar   
    36   54   20 1    
    37   22   21 ar   
    38   24   23 1    
    39   25   24 ar   
    40   26   24 ar   
    41   27   24 1    
    42   28   27 1    
    43   29   28 1    
    44   55   28 1    
    45   56   28 1    
    46   30   29 1    
    47   31   29 1    
    48   57   29 1    
    49   35   30 1    
    50   32   31 1    
    51   33   31 1    
    52   58   31 1    
    53   70   32 1    
    54   34   33 1    
    55   35   33 1    
    56   59   33 1    
    57   71   34 1    
    58   36   35 1    
    59   60   35 1    
    60   37   36 1    
    61   44   36 1    
    62   38   37 2    
    63   61   37 1    
    64   39   38 1    
    65   42   38 1    
    66   40   39 2    
    67   41   39 am   
    68   62   41 1    
    69   63   41 1    
    70   43   42 1    
    71   64   42 1    
    72   65   42 1    
    73   44   43 2    
    74   66   43 1    
    75   67   44 1    
@<TRIPOS>SUBSTRUCTURE
     1 NAI1227     1 GROUP   
@<TRIPOS>SET

