#    Name: 4ogj_2TA_2_INTS_M
#    Modification time : Tue Mar 25 13:37:10 2014

@<TRIPOS>MOLECULE
4ogj_2TA_2_INTS_M
   80     0     9     0     0
SMALL
NO_CHARGES


@<TRIPOS>ATOM
      1 CA         29.4025   38.7465   29.1850 C.3       3 GLC5        0.0000 
      2 CA         28.1270   40.2110   29.3710 C.3       9 GLL5        0.0000 
      3 CA         30.6780   37.2820   28.9990 C.3       6 GLP5        0.0000 
      4 CA         27.6215   39.8395   35.4465 C.3       3 GLC5        0.0000 
      5 CA         26.2370   41.1480   34.4420 C.3       9 GLL5        0.0000 
      6 CA         29.0060   38.5310   36.4510 C.3       6 GLP5        0.0000 
      7 CA         27.2610   42.1260   35.8985 C.3       3 GLC5        0.0000 
      8 CA         28.2850   43.1040   37.3550 C.3       6 GLP5        0.0000 
      9 CA         25.9795   39.1485   36.0410 C.3       3 GLC5        0.0000 
     10 CA         25.1190   40.9170   35.2810 C.3       9 GLL5        0.0000 
     11 CA         26.8400   37.3800   36.8010 C.3       6 GLP5        0.0000 
     12 O          22.3905   43.1880   36.5185 O.2       1 ALC1        0.0000 
     13 O          23.1560   41.9090   36.4510 O.2       7 ALL1        0.0000 
     14 O          21.6250   44.4670   36.5860 O.2       4 ALP1        0.0000 
     15 CA         20.8965   40.4395   35.8185 C.3       3 GLC5        0.0000 
     16 CA         22.4790   40.8030   36.8410 C.3       9 GLL5        0.0000 
     17 CA         19.3140   40.0760   34.7960 C.3       6 GLP5        0.0000 
     18 N          20.8060   42.2740   37.8395 N.am      2 SEC2        0.0000 
     19 N          21.5530   41.0090   37.8150 N.am      8 SEL2        0.0000 
     20 N          20.0590   43.5390   37.8640 N.am      5 SEP2        0.0000 
     21 CA         18.8315   40.6920   37.9165 C.3       3 GLC5        0.0000 
     22 CA         20.8270   39.9010   38.3160 C.3       9 GLL5        0.0000 
     23 CA         16.8360   41.4830   37.5170 C.3       6 GLP5        0.0000 
     24 CA         18.5070   37.4180   37.8995 C.3       3 GLC5        0.0000 
     25 CA         20.3150   37.4920   38.3510 C.3       9 GLL5        0.0000 
     26 CA         16.6990   37.3440   37.4480 C.3       6 GLP5        0.0000 
     27 CA         19.9090   38.0915   36.2725 C.3       3 GLC5        0.0000 
     28 CA         19.5030   38.6910   34.1940 C.3       6 GLP5        0.0000 
     29 CA         20.7950   38.5885   35.5180 C.3       3 GLC5        0.0000 
     30 CA         22.0870   38.4860   36.8420 C.3       9 GLL5        0.0000 
     31 O          21.4795   35.7715   36.7640 O.2       1 ALC1        0.0000 
     32 O          22.3330   37.1980   36.4680 O.2       7 ALL1        0.0000 
     33 O          20.6260   34.3450   37.0600 O.2       4 ALP1        0.0000 
     34 CA         22.3530   34.3205   34.6035 C.3       3 GLC5        0.0000 
     35 CA         24.3340   34.8610   34.4200 C.3       9 GLL5        0.0000 
     36 CA         20.3720   33.7800   34.7870 C.3       6 GLP5        0.0000 
     37 CA         22.7965   36.2835   29.0225 C.3       3 GLC5        0.0000 
     38 CA         21.9460   37.1730   30.7400 C.3       9 GLL5        0.0000 
     39 CA         23.6470   35.3940   27.3050 C.3       6 GLP5        0.0000 
     40 CA         22.5120   35.3895   30.5615 C.3       3 GLC5        0.0000 
     41 CA         23.0780   33.6060   30.3830 C.3       6 GLP5        0.0000 
     42 CA         20.8550   36.0110   31.7455 C.3       3 GLC5        0.0000 
     43 CA         19.7640   34.8490   32.7510 C.3       6 GLP5        0.0000 
     44 CA         20.7245   37.9320   32.4670 C.3       3 GLC5        0.0000 
     45 CA         23.3195   37.0685   28.1895 C.3       3 GLC5        0.0000 
     46 CA         22.9920   38.7430   29.0740 C.3       9 GLL5        0.0000 
     47 CA         20.0470   41.0980   29.5720 C.3       3 GLC5        0.0000 
     48 CA         21.2420   39.5840   30.5810 C.3       9 GLL5        0.0000 
     49 CA         18.8520   42.6120   28.5630 C.3       6 GLP5        0.0000 
     50 CA         20.3370   40.4080   32.1920 C.3       3 GLC5        0.0000 
     51 CA         19.4320   41.2320   33.8030 C.3       6 GLP5        0.0000 
     52 CA         26.7980   42.1178   28.5783 C.3       3 GLC5        0.0000 
     53 CA         27.6210   41.3700   30.1960 C.3       9 GLL5        0.0000 
     54 CA         25.7220   43.4450   27.3730 C.3       6 GLP5        0.0000 
     55 CA         28.6035   39.8600   27.3392 C.3       3 GLC5        0.0000 
     56 CA         28.4910   39.1210   25.6490 C.3       6 GLP5        0.0000 
     57 CA         30.7003   39.7542   29.0770 C.3       3 GLC5        0.0000 
     58 CA         29.3050   40.9870   28.6880 C.3       9 GLL5        0.0000 
     59 CA         31.7670   38.1370   28.8910 C.3       6 GLP5        0.0000 
     60 CA         26.8375   43.1060   36.0430 C.3       3 GLC5        0.0000 
     61 CA         26.5630   42.4300   34.0290 C.3       9 GLL5        0.0000 
     62 CA         25.8575   41.3257   36.9585 C.3       3 GLC5        0.0000 
     63 CA         24.2870   41.9640   35.6570 C.3       9 GLL5        0.0000 
     64 CA         27.0120   41.2110   38.4480 C.3       6 GLP5        0.0000 
     65 CA         20.1378   39.6685   36.4367 C.3       3 GLC5        0.0000 
     66 CA         21.0960   38.6210   37.8390 C.3       9 GLL5        0.0000 
     67 CA         22.2298   37.7561   39.1111 C.3       3 GLC5        0.0000 
     68 CA         23.0970   37.0810   40.6940 C.3       6 GLP5        0.0000 
     69 CA         25.0865   37.2900   35.8243 C.3       3 GLC5        0.0000 
     70 CA         23.1470   36.8050   35.3930 C.3       9 GLL5        0.0000 
     71 CA         21.4180   37.9455   34.5208 C.3       3 GLC5        0.0000 
     72 CA         21.8040   35.7477   34.6759 C.3       3 GLC5        0.0000 
     73 CA         20.1600   35.1680   34.2070 C.3       6 GLP5        0.0000 
     74 CA         25.3942   36.2690   35.8660 C.3       3 GLC5        0.0000 
     75 CA         23.5630   35.4550   35.4420 C.3       9 GLL5        0.0000 
     76 CA         26.2650   36.6718   33.9517 C.3       3 GLC5        0.0000 
     77 CA         24.6870   35.6760   33.3480 C.3       9 GLL5        0.0000 
     78 CA         28.0590   37.0040   34.5910 C.3       6 GLP5        0.0000 
     79 CA         20.0338   38.2354   29.7536 C.3       3 GLC5        0.0000 
     80 CA         18.3500   37.7330   28.9090 C.3       6 GLP5        0.0000 
@<TRIPOS>BOND
@<TRIPOS>SUBSTRUCTURE
     1 ALC1       12 GROUP        1 X    ALC  0     ROOT ALC X 1
     2 SEC2       18 GROUP        1 X    SEC  0     **** SEC X 2
     3 GLC5        1 GROUP        1 X    GLC  0     **** GLC X 6
     4 ALP1       14 GROUP        1 Y    ALP  0     ROOT ALP Y 8
     5 SEP2       20 GROUP        1 Y    SEP  0     **** SEP Y 9
     6 GLP5        3 GROUP        1 Y    GLP  0     **** GLP Y 13
     7 ALL1       13 GROUP        1 Z    ALL  0     ROOT ALL Z 15
     8 SEL2       19 GROUP        1 Z    SEL  0     **** SEL Z 16
     9 GLL5        2 GROUP        1 Z    GLL  0     **** GLL Z 20
@<TRIPOS>SET

