#    Name: 4ogj_2TA_2_ligand
#    Modification time : Tue Mar 25 13:37:10 2014

@<TRIPOS>MOLECULE
4ogj_2TA_2_ligand
   74    77     1     0     0
SMALL
NO_CHARGES


@<TRIPOS>ATOM
      1 CAQ        27.6210   41.3700   30.1960 C.3       1 2TA202      0.0000 
      2 CAR        28.1270   40.2110   29.3710 C.3       1 2TA202      0.0000 
      3 CAS        29.3050   40.9870   28.6880 C.3       1 2TA202      0.0000 
      4 CAT        29.9620   41.7560   29.8380 C.3       1 2TA202      0.0000 
      5 NAP        28.8870   41.7650   30.8390 N.4       1 2TA202      0.0000 
      6 CAO        28.8170   43.2040   31.1980 C.3       1 2TA202      0.0000 
      7 CAN        27.5920   43.5060   32.1330 C.3       1 2TA202      0.0000 
      8 OAM        27.7240   42.5730   33.2310 O.3       1 2TA202      0.0000 
      9 CAJ        26.5630   42.4300   34.0290 C.ar      1 2TA202      0.0000 
     10 CAK        25.7470   43.4840   34.4250 C.ar      1 2TA202      0.0000 
     11 CAL        24.6250   43.2590   35.2350 C.ar      1 2TA202      0.0000 
     12 CAI        26.2370   41.1480   34.4420 C.ar      1 2TA202      0.0000 
     13 CAH        25.1190   40.9170   35.2810 C.ar      1 2TA202      0.0000 
     14 CAG        24.2870   41.9640   35.6570 C.ar      1 2TA202      0.0000 
     15 NAF        23.1560   41.9090   36.4510 N.pl3     1 2TA202      0.0000 
     16 C2         22.4790   40.8030   36.8410 C.ar      1 2TA202      0.0000 
     17 N3         22.7810   39.5660   36.4270 N.ar      1 2TA202      0.0000 
     18 N1         21.5530   41.0090   37.8150 N.ar      1 2TA202      0.0000 
     19 C6         20.8270   39.9010   38.3160 C.ar      1 2TA202      0.0000 
     20 C5         21.0960   38.6210   37.8390 C.ar      1 2TA202      0.0000 
     21 CAA        20.3150   37.4920   38.3510 C.3       1 2TA202      0.0000 
     22 C4         22.0870   38.4860   36.8420 C.ar      1 2TA202      0.0000 
     23 NAW        22.3330   37.1980   36.4680 N.pl3     1 2TA202      0.0000 
     24 CAX        23.1470   36.8050   35.3930 C.ar      1 2TA202      0.0000 
     25 CBC        23.5190   37.5950   34.3020 C.ar      1 2TA202      0.0000 
     26 CAY        23.5630   35.4550   35.4420 C.ar      1 2TA202      0.0000 
     27 CAZ        24.3340   34.8610   34.4200 C.ar      1 2TA202      0.0000 
     28 CBA        24.6870   35.6760   33.3480 C.ar      1 2TA202      0.0000 
     29 CBB        24.2550   37.0030   33.2770 C.ar      1 2TA202      0.0000 
     30 SBD        24.7340   38.0560   31.8770 S.o2      1 2TA202      0.0000 
     31 OBJ        25.0860   37.1290   30.7590 O.2       1 2TA202      0.0000 
     32 OBK        25.7830   38.9610   32.3550 O.2       1 2TA202      0.0000 
     33 NBE        23.4830   39.0360   31.4800 N.pl3     1 2TA202      0.0000 
     34 CBF        22.4400   38.6100   30.4910 C.3       1 2TA202      0.0000 
     35 CBH        21.9460   37.1730   30.7400 C.3       1 2TA202      0.0000 
     36 CBI        22.9920   38.7430   29.0740 C.3       1 2TA202      0.0000 
     37 CBG        21.2420   39.5840   30.5810 C.3       1 2TA202      0.0000 
     38 H          26.9269   41.0236   30.9049 H         1 2TA202      0.0000 
     39 H          27.2650   42.1278   29.5609 H         1 2TA202      0.0000 
     40 H          27.4430   39.9436   28.6474 H         1 2TA202      0.0000 
     41 H          28.5216   39.4718   29.9718 H         1 2TA202      0.0000 
     42 H          28.9045   41.6600   27.9785 H         1 2TA202      0.0000 
     43 H          29.9836   40.2872   28.2800 H         1 2TA202      0.0000 
     44 H          30.1936   42.7349   29.5084 H         1 2TA202      0.0000 
     45 H          30.8042   41.2121   30.1778 H         1 2TA202      0.0000 
     46 H          29.1283   41.1913   31.6602 H         1 2TA202      0.0000 
     47 H          28.7087   43.8236   30.3048 H         1 2TA202      0.0000 
     48 H          29.7194   43.5177   31.7278 H         1 2TA202      0.0000 
     49 H          26.7035   43.3397   31.5602 H         1 2TA202      0.0000 
     50 H          27.6750   44.5246   32.4502 H         1 2TA202      0.0000 
     51 H          25.9658   44.4460   34.1214 H         1 2TA202      0.0000 
     52 H          24.0392   44.0563   35.5252 H         1 2TA202      0.0000 
     53 H          26.8069   40.3430   34.1422 H         1 2TA202      0.0000 
     54 H          24.9317   39.9598   35.6087 H         1 2TA202      0.0000 
     55 H          22.7759   42.8676   36.7955 H         1 2TA202      0.0000 
     56 H          20.1075   40.0522   39.0278 H         1 2TA202      0.0000 
     57 H          21.8764   36.4114   37.0287 H         1 2TA202      0.0000 
     58 H          23.2590   38.5751   34.2586 H         1 2TA202      0.0000 
     59 H          23.2902   34.8785   36.2624 H         1 2TA202      0.0000 
     60 H          24.6092   33.8992   34.4720 H         1 2TA202      0.0000 
     61 H          25.2792   35.2949   32.5899 H         1 2TA202      0.0000 
     62 H          23.4670   39.9086   31.9302 H         1 2TA202      0.0000 
     63 H          20.5987   36.6265   37.9381 H         1 2TA202      0.0000 
     64 H          20.4137   37.3907   39.3410 H         1 2TA202      0.0000 
     65 H          19.3388   37.6002   38.1633 H         1 2TA202      0.0000 
     66 H          22.6903   36.5082   30.6765 H         1 2TA202      0.0000 
     67 H          21.5396   37.0721   31.6481 H         1 2TA202      0.0000 
     68 H          21.2507   36.8989   30.0756 H         1 2TA202      0.0000 
     69 H          23.2557   39.6847   28.8650 H         1 2TA202      0.0000 
     70 H          23.8029   38.1742   28.9364 H         1 2TA202      0.0000 
     71 H          22.3204   38.4672   28.3864 H         1 2TA202      0.0000 
     72 H          21.5119   40.5247   30.3753 H         1 2TA202      0.0000 
     73 H          20.5160   39.3401   29.9380 H         1 2TA202      0.0000 
     74 H          20.8351   39.5889   31.4945 H         1 2TA202      0.0000 
@<TRIPOS>BOND
     1    2    1 1    
     2    5    1 1    
     3   38    1 1    
     4   39    1 1    
     5    3    2 1    
     6   40    2 1    
     7   41    2 1    
     8    4    3 1    
     9   42    3 1    
    10   43    3 1    
    11    5    4 1    
    12   44    4 1    
    13   45    4 1    
    14    6    5 1    
    15   46    5 1    
    16    7    6 1    
    17   47    6 1    
    18   48    6 1    
    19    8    7 1    
    20   49    7 1    
    21   50    7 1    
    22    9    8 1    
    23   10    9 ar   
    24   12    9 ar   
    25   11   10 ar   
    26   51   10 1    
    27   14   11 ar   
    28   52   11 1    
    29   13   12 ar   
    30   53   12 1    
    31   14   13 ar   
    32   54   13 1    
    33   15   14 1    
    34   16   15 1    
    35   55   15 1    
    36   17   16 ar   
    37   18   16 ar   
    38   22   17 ar   
    39   19   18 ar   
    40   20   19 ar   
    41   56   19 1    
    42   21   20 1    
    43   22   20 ar   
    44   63   21 1    
    45   64   21 1    
    46   65   21 1    
    47   23   22 1    
    48   24   23 1    
    49   57   23 1    
    50   25   24 ar   
    51   26   24 ar   
    52   29   25 ar   
    53   58   25 1    
    54   27   26 ar   
    55   59   26 1    
    56   28   27 ar   
    57   60   27 1    
    58   29   28 ar   
    59   61   28 1    
    60   30   29 1    
    61   31   30 2    
    62   32   30 2    
    63   33   30 1    
    64   34   33 1    
    65   62   33 1    
    66   35   34 1    
    67   36   34 1    
    68   37   34 1    
    69   66   35 1    
    70   67   35 1    
    71   68   35 1    
    72   69   36 1    
    73   70   36 1    
    74   71   36 1    
    75   72   37 1    
    76   73   37 1    
    77   74   37 1    
@<TRIPOS>SUBSTRUCTURE
     1 2TA202      1 GROUP   
@<TRIPOS>SET

