#    Name: 3ddp_RC8_1_INTS_M
#    Modification time : Mon Mar 24 23:08:17 2014

@<TRIPOS>MOLECULE
3ddp_RC8_1_INTS_M
   66     0     9     0     0
SMALL
NO_CHARGES


@<TRIPOS>ATOM
      1 CA          4.6830   25.1080   25.2165 C.3       3 GLC5        0.0000 
      2 CA          5.5830   25.1570   23.6600 C.3       9 GLL5        0.0000 
      3 CA          3.7830   25.0590   26.7730 C.3       6 GLP5        0.0000 
      4 CA          6.4135   26.6435   22.5060 C.3       3 GLC5        0.0000 
      5 CA          7.2440   28.1300   21.3520 C.3       6 GLP5        0.0000 
      6 CA          7.0610   22.8840   25.2285 C.3       3 GLC5        0.0000 
      7 CA          7.8230   24.5430   23.9970 C.3       9 GLL5        0.0000 
      8 CA          6.2990   21.2250   26.4600 C.3       6 GLP5        0.0000 
      9 CA          8.8790   23.5530   25.6885 C.3       3 GLC5        0.0000 
     10 CA          9.9350   22.5630   27.3800 C.3       6 GLP5        0.0000 
     11 CA          7.1155   25.1325   26.7420 C.3       3 GLC5        0.0000 
     12 CA          8.0440   25.7360   24.8050 C.3       9 GLL5        0.0000 
     13 CA          6.1870   24.5290   28.6790 C.3       6 GLP5        0.0000 
     14 CA          5.3290   25.8435   25.8760 C.3       3 GLC5        0.0000 
     15 CA          6.8750   26.6280   24.9790 C.3       9 GLL5        0.0000 
     16 CA          7.0595   27.3790   23.1655 C.3       3 GLC5        0.0000 
     17 CA         10.7815   21.3395   23.5365 C.3       3 GLC5        0.0000 
     18 CA          9.0770   22.6330   23.1800 C.3       9 GLL5        0.0000 
     19 CA         12.4860   20.0460   23.8930 C.3       6 GLP5        0.0000 
     20 CA         11.6465   23.5600   21.8280 C.3       3 GLC5        0.0000 
     21 CA         10.0490   22.7050   21.9400 C.3       9 GLL5        0.0000 
     22 CA         13.2440   24.4150   21.7160 C.3       6 GLP5        0.0000 
     23 CA         11.4625   21.5305   22.2660 C.3       3 GLC5        0.0000 
     24 CA         12.8760   20.3560   22.5920 C.3       6 GLP5        0.0000 
     25 CA          9.7405   23.7805   20.2055 C.3       3 GLC5        0.0000 
     26 CA          9.4320   24.8560   18.4710 C.3       6 GLP5        0.0000 
     27 CA          5.6500   25.3675   18.2930 C.3       3 GLC5        0.0000 
     28 CA          5.6480   24.0470   20.0060 C.3       9 GLL5        0.0000 
     29 CA          5.6520   26.6880   16.5800 C.3       6 GLP5        0.0000 
     30 CA          7.5400   24.4515   19.2385 C.3       3 GLC5        0.0000 
     31 CA          6.0735   22.7685   18.5335 C.3       3 GLC5        0.0000 
     32 CA          6.4990   21.4900   17.0610 C.3       6 GLP5        0.0000 
     33 CA          2.4565   21.3100   21.2355 C.3       3 GLC5        0.0000 
     34 CA          3.0470   22.9920   22.4050 C.3       9 GLL5        0.0000 
     35 CA          1.8660   19.6280   20.0660 C.3       6 GLP5        0.0000 
     36 CA          4.0460   21.5205   23.5255 C.3       3 GLC5        0.0000 
     37 CA          5.0450   20.0490   24.6460 C.3       6 GLP5        0.0000 
     38 CA          7.7790   21.2650   25.2415 C.3       3 GLC5        0.0000 
     39 CA          9.2590   21.3050   24.0230 C.3       9 GLL5        0.0000 
     40 CA         10.4775   20.1160   24.0615 C.3       3 GLC5        0.0000 
     41 CA         11.6960   18.9270   24.1000 C.3       6 GLP5        0.0000 
     42 N          10.4205   26.7590   25.9240 N.am      2 SEC2        0.0000 
     43 N           9.3330   25.6840   25.1800 N.am      8 SEL2        0.0000 
     44 N          11.5080   27.8340   26.6680 N.am      5 SEP2        0.0000 
     45 O           8.0435   28.4425   26.3290 O.2       1 ALC1        0.0000 
     46 O           6.9380   27.7620   25.6940 O.2       7 ALL1        0.0000 
     47 O           9.1490   29.1230   26.9640 O.2       4 ALP1        0.0000 
     48 CA          6.5800   28.4485   23.4135 C.3       3 GLC5        0.0000 
     49 CA          5.9160   28.7670   25.4750 C.3       9 GLL5        0.0000 
     50 CA          4.6590   26.6400   29.0295 C.3       3 GLC5        0.0000 
     51 CA          4.5910   28.5670   29.0060 C.3       9 GLL5        0.0000 
     52 CA          4.7270   24.7130   29.0530 C.3       6 GLP5        0.0000 
     53 CA          8.5442   25.8483   23.0425 C.3       3 GLC5        0.0000 
     54 CA          9.1550   26.5570   21.6840 C.3       6 GLP5        0.0000 
     55 CA          9.5515   22.2660   25.4907 C.3       3 GLC5        0.0000 
     56 CA          9.3590   24.6130   22.1220 C.3       3 GLC5        0.0000 
     57 CA          5.9135   30.3935   25.4483 C.3       3 GLC5        0.0000 
     58 CA          4.9540   28.7170   26.6320 C.3       9 GLL5        0.0000 
     59 CA          6.3920   32.0450   24.8430 C.3       6 GLP5        0.0000 
     60 CA          3.4830   26.8701   27.3197 C.3       3 GLC5        0.0000 
     61 CA          3.5830   28.7670   26.4010 C.3       9 GLL5        0.0000 
     62 CA          4.6147   26.8693   26.8821 C.3       3 GLC5        0.0000 
     63 CA          5.4580   28.6170   27.9290 C.3       9 GLL5        0.0000 
     64 CA          2.1783   27.3355   33.4712 C.3       3 GLC5        0.0000 
     65 CA          2.0040   28.7160   32.2910 C.3       9 GLL5        0.0000 
     66 CA          3.0350   26.0780   34.7200 C.3       6 GLP5        0.0000 
@<TRIPOS>BOND
@<TRIPOS>SUBSTRUCTURE
     1 ALC1       45 GROUP        1 X    ALC  0     ROOT ALC X 1
     2 SEC2       42 GROUP        1 X    SEC  0     **** SEC X 2
     3 GLC5        1 GROUP        1 X    GLC  0     **** GLC X 6
     4 ALP1       47 GROUP        1 Y    ALP  0     ROOT ALP Y 8
     5 SEP2       44 GROUP        1 Y    SEP  0     **** SEP Y 9
     6 GLP5        3 GROUP        1 Y    GLP  0     **** GLP Y 13
     7 ALL1       46 GROUP        1 Z    ALL  0     ROOT ALL Z 15
     8 SEL2       43 GROUP        1 Z    SEL  0     **** SEL Z 16
     9 GLL5        2 GROUP        1 Z    GLL  0     **** GLL Z 20
@<TRIPOS>SET

