#    Name: 3ddp_RC8_1_ligand
#    Modification time : Mon Mar 24 23:08:17 2014

@<TRIPOS>MOLECULE
3ddp_RC8_1_ligand
   61    64     1     0     0
SMALL
NO_CHARGES


@<TRIPOS>ATOM
      1 C2          5.5830   25.1570   23.6600 C.ar      1 RC8299      0.0000 
      2 C4          7.8230   24.5430   23.9970 C.ar      1 RC8299      0.0000 
      3 C5          8.0440   25.7360   24.8050 C.ar      1 RC8299      0.0000 
      4 C6          6.8750   26.6280   24.9790 C.ar      1 RC8299      0.0000 
      5 C8          9.8920   24.5550   24.6550 C.2       1 RC8299      0.0000 
      6 C9          9.0770   22.6330   23.1800 C.3       1 RC8299      0.0000 
      7 C10        10.0490   22.7050   21.9400 C.3       1 RC8299      0.0000 
      8 C12         4.3230   23.7910   22.1400 C.3       1 RC8299      0.0000 
      9 C14         5.6480   24.0470   20.0060 C.3       1 RC8299      0.0000 
     10 O1          2.2260   23.7030   23.3500 O.3       1 RC8299      0.0000 
     11 C15         3.0470   22.9920   22.4050 C.3       1 RC8299      0.0000 
     12 C13         4.3480   24.3580   20.7130 C.3       1 RC8299      0.0000 
     13 N2          4.3990   24.8730   23.1030 N.pl3     1 RC8299      0.0000 
     14 N1          5.7100   26.2850   24.3920 N.ar      1 RC8299      0.0000 
     15 N9          8.9720   23.8880   23.9510 N.pl3     1 RC8299      0.0000 
     16 C11         9.2590   21.3050   24.0230 C.3       1 RC8299      0.0000 
     17 N7          9.3330   25.6840   25.1800 N.2       1 RC8299      0.0000 
     18 N3          6.6060   24.3030   23.4640 N.ar      1 RC8299      0.0000 
     19 N6          6.9380   27.7620   25.6940 N.pl3     1 RC8299      0.0000 
     20 CA'         5.9160   28.7670   25.4750 C.3       1 RC8299      0.0000 
     21 C1'         4.9540   28.7170   26.6320 C.ar      1 RC8299      0.0000 
     22 C6'         3.5830   28.7670   26.4010 C.ar      1 RC8299      0.0000 
     23 C5'         2.7150   28.7220   27.4870 C.ar      1 RC8299      0.0000 
     24 C4'         3.2170   28.6180   28.7890 C.ar      1 RC8299      0.0000 
     25 C3'         4.5910   28.5670   29.0060 C.ar      1 RC8299      0.0000 
     26 C2'         5.4580   28.6170   27.9290 C.ar      1 RC8299      0.0000 
     27 C1B         2.2950   28.5610   29.9640 C.ar      1 RC8299      0.0000 
     28 N1B         2.7930   28.7520   31.2070 N.ar      1 RC8299      0.0000 
     29 C5B         2.0040   28.7160   32.2910 C.ar      1 RC8299      0.0000 
     30 C4B         0.6390   28.4700   32.1540 C.ar      1 RC8299      0.0000 
     31 C3B         0.0940   28.2670   30.8860 C.ar      1 RC8299      0.0000 
     32 C2B         0.9290   28.3090   29.7740 C.ar      1 RC8299      0.0000 
     33 H          10.8186   24.2906   24.7827 H         1 RC8299      0.0000 
     34 H           8.0320   22.4771   22.6743 H         1 RC8299      0.0000 
     35 H           5.1676   23.1269   22.2570 H         1 RC8299      0.0000 
     36 H           3.3375   22.0092   22.7851 H         1 RC8299      0.0000 
     37 H           2.5322   22.8527   21.4509 H         1 RC8299      0.0000 
     38 H           4.2066   25.4418   20.7633 H         1 RC8299      0.0000 
     39 H           3.5121   23.9310   20.1509 H         1 RC8299      0.0000 
     40 H           3.5390   25.3765   23.3171 H         1 RC8299      0.0000 
     41 H           7.6596   27.9583   26.3800 H         1 RC8299      0.0000 
     42 H           5.3679   28.5737   24.5540 H         1 RC8299      0.0000 
     43 H           6.3518   29.7637   25.4235 H         1 RC8299      0.0000 
     44 H           3.2198   28.8356   25.4495 H         1 RC8299      0.0000 
     45 H           1.6980   28.7652   27.3360 H         1 RC8299      0.0000 
     46 H           4.9560   28.4925   29.9634 H         1 RC8299      0.0000 
     47 H           6.4750   28.5808   28.0792 H         1 RC8299      0.0000 
     48 H           2.3873   28.8684   33.2423 H         1 RC8299      0.0000 
     49 H           0.0360   28.4382   32.9834 H         1 RC8299      0.0000 
     50 H          -0.9063   28.0898   30.7771 H         1 RC8299      0.0000 
     51 H           0.5596   28.1601   28.8373 H         1 RC8299      0.0000 
     52 H          10.9844   22.9289   22.2138 H         1 RC8299      0.0000 
     53 H          10.0879   21.8355   21.4476 H         1 RC8299      0.0000 
     54 H           9.7614   23.4015   21.2826 H         1 RC8299      0.0000 
     55 H           6.4346   24.4318   20.4888 H         1 RC8299      0.0000 
     56 H           5.8034   23.0620   19.9307 H         1 RC8299      0.0000 
     57 H           5.6638   24.4180   19.0775 H         1 RC8299      0.0000 
     58 H          10.1883   21.2173   24.3818 H         1 RC8299      0.0000 
     59 H           8.6383   21.2744   24.8064 H         1 RC8299      0.0000 
     60 H           9.0785   20.4889   23.4740 H         1 RC8299      0.0000 
     61 H           2.4176   24.6701   23.1829 H         1 RC8299      0.0000 
@<TRIPOS>BOND
     1   13    1 1    
     2   14    1 ar   
     3   18    1 ar   
     4    3    2 ar   
     5   15    2 1    
     6   18    2 ar   
     7    4    3 ar   
     8   17    3 1    
     9   14    4 ar   
    10   19    4 1    
    11   15    5 1    
    12   17    5 2    
    13   33    5 1    
    14    7    6 1    
    15   15    6 1    
    16   16    6 1    
    17   34    6 1    
    18   52    7 1    
    19   53    7 1    
    20   54    7 1    
    21   11    8 1    
    22   12    8 1    
    23   13    8 1    
    24   35    8 1    
    25   12    9 1    
    26   55    9 1    
    27   56    9 1    
    28   57    9 1    
    29   11   10 1    
    30   61   10 1    
    31   36   11 1    
    32   37   11 1    
    33   38   12 1    
    34   39   12 1    
    35   40   13 1    
    36   58   16 1    
    37   59   16 1    
    38   60   16 1    
    39   20   19 1    
    40   41   19 1    
    41   21   20 1    
    42   42   20 1    
    43   43   20 1    
    44   22   21 ar   
    45   26   21 ar   
    46   23   22 ar   
    47   44   22 1    
    48   24   23 ar   
    49   45   23 1    
    50   25   24 ar   
    51   27   24 1    
    52   26   25 ar   
    53   46   25 1    
    54   47   26 1    
    55   28   27 ar   
    56   32   27 ar   
    57   29   28 ar   
    58   30   29 ar   
    59   48   29 1    
    60   31   30 ar   
    61   49   30 1    
    62   32   31 ar   
    63   50   31 1    
    64   51   32 1    
@<TRIPOS>SUBSTRUCTURE
     1 RC8299      1 GROUP   
@<TRIPOS>SET

