#    Name: 3r4b_74T_1_INTS_M
#    Modification time : Mon Apr  7 19:55:34 2014

@<TRIPOS>MOLECULE
3r4b_74T_1_INTS_M
  100     0     9     0     0
SMALL
NO_CHARGES


@<TRIPOS>ATOM
      1 N          14.5820   34.9470   19.6585 N.am      2 SEC2        0.0000 
      2 N          15.0870   35.6970   18.3700 N.am      8 SEL2        0.0000 
      3 N          14.0770   34.1970   20.9470 N.am      5 SEP2        0.0000 
      4 CA         16.5045   33.2540   18.6345 C.3       3 GLC5        0.0000 
      5 CA         15.7220   34.8540   17.5260 C.3       9 GLL5        0.0000 
      6 CA         17.2870   31.6540   19.7430 C.3       6 GLP5        0.0000 
      7 CA         13.9780   35.1650   18.7710 C.3       3 GLC5        0.0000 
      8 CA         12.2340   35.4760   20.0160 C.3       6 GLP5        0.0000 
      9 CA         14.4205   35.5415   15.8585 C.3       3 GLC5        0.0000 
     10 CA         13.1190   36.2290   14.1910 C.3       6 GLP5        0.0000 
     11 CA         15.4955   31.2230   15.2035 C.3       3 GLC5        0.0000 
     12 CA         16.2650   32.8270   16.3330 C.3       9 GLL5        0.0000 
     13 CA         14.7260   29.6190   14.0740 C.3       6 GLP5        0.0000 
     14 CA         24.1530   31.9575   15.9215 C.3       3 GLC5        0.0000 
     15 CA         22.3150   32.4750   14.8700 C.3       9 GLL5        0.0000 
     16 CA         25.9910   31.4400   16.9730 C.3       6 GLP5        0.0000 
     17 CA         23.0235   33.1525   18.7570 C.3       3 GLC5        0.0000 
     18 CA         22.4230   33.7270   17.0440 C.3       9 GLL5        0.0000 
     19 CA         23.6240   32.5780   20.4700 C.3       6 GLP5        0.0000 
     20 CA         23.9675   34.2685   17.4770 C.3       3 GLC5        0.0000 
     21 CA         25.5120   34.8100   17.9100 C.3       6 GLP5        0.0000 
     22 CA         24.2070   32.5835   17.0085 C.3       3 GLC5        0.0000 
     23 CA         17.6530   30.8035   17.5500 C.3       3 GLC5        0.0000 
     24 CA         19.1220   30.7570   16.0410 C.3       9 GLL5        0.0000 
     25 CA         16.1840   30.8500   19.0590 C.3       6 GLP5        0.0000 
     26 N          18.6765   28.2755   16.5955 N.am      2 SEC2        0.0000 
     27 N          19.9200   28.4600   16.3280 N.am      8 SEL2        0.0000 
     28 N          17.4330   28.0910   16.8630 N.am      5 SEP2        0.0000 
     29 O          20.7735   28.0440   17.3010 O.2       1 ALC1        0.0000 
     30 O          19.9200   28.4600   16.3280 O.2       7 ALL1        0.0000 
     31 O          21.6270   27.6280   18.2740 O.2       4 ALP1        0.0000 
     32 O          21.4420   28.7495   16.7930 O.2       1 ALC1        0.0000 
     33 O          22.9640   29.0390   17.2580 O.2       4 ALP1        0.0000 
     34 O          20.4630   26.8755   13.9495 O.2       1 ALC1        0.0000 
     35 O          20.6220   28.4460   13.4990 O.2       7 ALL1        0.0000 
     36 O          20.3040   25.3050   14.4000 O.2       4 ALP1        0.0000 
     37 CA         15.4705   37.8975   15.8875 C.3       3 GLC5        0.0000 
     38 CA         16.9260   37.2040   17.2150 C.3       9 GLL5        0.0000 
     39 CA         14.0150   38.5910   14.5600 C.3       6 GLP5        0.0000 
     40 CA         23.1790   26.5490   12.9855 C.3       3 GLC5        0.0000 
     41 CA         23.2840   27.7830   11.1190 C.3       9 GLL5        0.0000 
     42 CA         23.0740   25.3150   14.8520 C.3       6 GLP5        0.0000 
     43 O          14.0585   37.7480   19.9775 O.2       1 ALC1        0.0000 
     44 O          15.0330   37.9220   19.2140 O.2       7 ALL1        0.0000 
     45 O          13.0840   37.5740   20.7410 O.2       4 ALP1        0.0000 
     46 CA         24.4015   26.7660   13.4220 C.3       3 GLC5        0.0000 
     47 CA         24.6150   27.2150   11.5600 C.3       9 GLL5        0.0000 
     48 CA         24.1880   26.3170   15.2840 C.3       6 GLP5        0.0000 
     49 CA         26.4380   28.0490   11.6645 C.3       3 GLC5        0.0000 
     50 CA         28.2610   28.8830   11.7690 C.3       6 GLP5        0.0000 
     51 CA         25.8655   28.1030   10.0360 C.3       3 GLC5        0.0000 
     52 CA         27.1160   28.9910    8.5120 C.3       6 GLP5        0.0000 
     53 CA         25.2195   28.5580   13.0490 C.3       3 GLC5        0.0000 
     54 CA         25.8240   29.9010   14.5380 C.3       6 GLP5        0.0000 
     55 N          25.4260   24.6635   11.9805 N.am      2 SEC2        0.0000 
     56 N          24.5600   25.8050   11.2970 N.am      8 SEL2        0.0000 
     57 N          26.2920   23.5220   12.6640 N.am      5 SEP2        0.0000 
     58 CA         23.7990   23.6545   10.9035 C.3       3 GLC5        0.0000 
     59 CA         23.5740   25.5260   10.2930 C.3       9 GLL5        0.0000 
     60 CA         24.0240   21.7830   11.5140 C.3       6 GLP5        0.0000 
     61 N          23.1200   24.0085   12.0450 N.am      2 SEC2        0.0000 
     62 N          22.6170   24.5600   10.7450 N.am      8 SEL2        0.0000 
     63 N          23.6230   23.4570   13.3450 N.am      5 SEP2        0.0000 
     64 CA         22.2160   25.2500   12.9115 C.3       3 GLC5        0.0000 
     65 CA         21.3580   25.1850   10.9710 C.3       9 GLL5        0.0000 
     66 CA         22.6910   23.4840   11.2425 C.3       3 GLC5        0.0000 
     67 CA         17.5355   25.5210   13.3415 C.3       3 GLC5        0.0000 
     68 CA         18.2590   26.7960   12.0660 C.3       9 GLL5        0.0000 
     69 CA         16.8120   24.2460   14.6170 C.3       6 GLP5        0.0000 
     70 CA         14.0100   39.7425   17.3265 C.3       3 GLC5        0.0000 
     71 CA         14.9060   40.4090   18.9410 C.3       9 GLL5        0.0000 
     72 CA         13.1140   39.0760   15.7120 C.3       6 GLP5        0.0000 
     73 CA         15.7635   33.0673   14.0660 C.3       3 GLC5        0.0000 
     74 CA         14.7520   32.9780   12.1400 C.3       6 GLP5        0.0000 
     75 CA         13.9150   33.2857   16.1675 C.3       3 GLC5        0.0000 
     76 CA         11.9490   33.4030   15.5360 C.3       6 GLP5        0.0000 
     77 CA         16.1600   32.0916   17.8438 C.3       3 GLC5        0.0000 
     78 CA         15.4970   33.5100   17.2650 C.3       9 GLL5        0.0000 
     79 CA         24.4437   29.3740   11.1217 C.3       3 GLC5        0.0000 
     80 CA         24.9380   31.2490   10.9040 C.3       6 GLP5        0.0000 
     81 CA         16.4135   26.6425   11.3933 C.3       3 GLC5        0.0000 
     82 CA         14.6630   26.6580   11.3880 C.3       6 GLP5        0.0000 
     83 CA         16.3843   28.4985    8.7967 C.3       3 GLC5        0.0000 
     84 CA         17.6840   27.4330    9.8200 C.3       9 GLL5        0.0000 
     85 CA         15.1790   28.9080    7.5640 C.3       6 GLP5        0.0000 
     86 CA         16.1262   27.3735   10.7088 C.3       3 GLC5        0.0000 
     87 CA         17.4950   28.7450   10.2390 C.3       9 GLL5        0.0000 
     88 CA         16.5140   30.7810   10.8628 C.3       3 GLC5        0.0000 
     89 CA         15.4360   32.6470   10.8170 C.3       6 GLP5        0.0000 
     90 CA         16.2713   27.6258   11.7118 C.3       3 GLC5        0.0000 
     91 CA         17.6890   29.0850   11.5780 C.3       9 GLL5        0.0000 
     92 CA         16.3311   29.1511   13.2363 C.3       3 GLC5        0.0000 
     93 CA         18.0700   28.1020   12.4930 C.3       9 GLL5        0.0000 
     94 CA         18.9006   29.6665    9.6239 C.3       3 GLC5        0.0000 
     95 CA         20.1620   30.7460    8.4440 C.3       6 GLP5        0.0000 
     96 CA         16.3420   37.6073   20.7878 C.3       3 GLC5        0.0000 
     97 CA         17.0680   39.3850   19.4450 C.3       9 GLL5        0.0000 
     98 CA         16.3630   35.9130   22.0470 C.3       6 GLP5        0.0000 
     99 CA         13.1730   41.1653   18.7843 C.3       3 GLC5        0.0000 
    100 CA         11.2440   41.2940   18.2390 C.3       6 GLP5        0.0000 
@<TRIPOS>BOND
@<TRIPOS>SUBSTRUCTURE
     1 ALC1       29 GROUP        1 X    ALC  0     ROOT ALC X 1
     2 SEC2        1 GROUP        1 X    SEC  0     **** SEC X 2
     3 GLC5        4 GROUP        1 X    GLC  0     **** GLC X 6
     4 ALP1       31 GROUP        1 Y    ALP  0     ROOT ALP Y 8
     5 SEP2        3 GROUP        1 Y    SEP  0     **** SEP Y 9
     6 GLP5        6 GROUP        1 Y    GLP  0     **** GLP Y 13
     7 ALL1       30 GROUP        1 Z    ALL  0     ROOT ALL Z 15
     8 SEL2        2 GROUP        1 Z    SEL  0     **** SEL Z 16
     9 GLL5        5 GROUP        1 Z    GLL  0     **** GLL Z 20
@<TRIPOS>SET

