#    Name: 3r4b_74T_1_ligand
#    Modification time : Mon Apr  7 19:55:34 2014

@<TRIPOS>MOLECULE
3r4b_74T_1_ligand
  106   112     1     0     0
SMALL
NO_CHARGES


@<TRIPOS>ATOM
      1 N1         15.0870   35.6970   18.3700 N.2       1 74T200      0.0000 
      2 C2         15.7220   34.8540   17.5260 C.ar      1 74T200      0.0000 
      3 C3         16.7290   35.5440   16.8430 C.ar      1 74T200      0.0000 
      4 C4         17.5020   34.8510   15.9020 C.ar      1 74T200      0.0000 
      5 C5         17.2850   33.4860   15.6510 C.ar      1 74T200      0.0000 
      6 C6         16.2650   32.8270   16.3330 C.ar      1 74T200      0.0000 
      7 C7         15.4970   33.5100   17.2650 C.ar      1 74T200      0.0000 
      8 S8         18.1650   32.6230   14.6110 S.o2      1 74T200      0.0000 
      9 O9         18.6320   33.4150   13.5120 O.2       1 74T200      0.0000 
     10 O10        17.3920   31.4920   14.1550 O.2       1 74T200      0.0000 
     11 N11        19.4770   31.9960   15.3180 N.pl3     1 74T200      0.0000 
     12 C12        20.1890   32.9670   16.1780 C.3       1 74T200      0.0000 
     13 C13        21.6850   32.6500   16.2500 C.3       1 74T200      0.0000 
     14 C14        22.3150   32.4750   14.8700 C.3       1 74T200      0.0000 
     15 C15        22.4230   33.7270   17.0440 C.3       1 74T200      0.0000 
     16 C16        19.1220   30.7570   16.0410 C.3       1 74T200      0.0000 
     17 C17        19.9830   29.6240   15.4830 C.3       1 74T200      0.0000 
     18 O18        19.9200   28.4600   16.3280 O.3       1 74T200      0.0000 
     19 C19        19.5700   29.2930   14.0440 C.3       1 74T200      0.0000 
     20 N20        20.6220   28.4460   13.4990 N.am      1 74T200      0.0000 
     21 C21        21.4980   28.7750   12.5590 C.2       1 74T200      0.0000 
     22 C22        15.6040   36.9450   18.3070 C.2       1 74T200      0.0000 
     23 O22        21.5700   29.8630   11.9990 O.2       1 74T200      0.0000 
     24 O23        22.4180   27.7040   12.2380 O.3       1 74T200      0.0000 
     25 S23        16.9260   37.2040   17.2150 S.3       1 74T200      0.0000 
     26 C24        23.2840   27.7830   11.1190 C.3       1 74T200      0.0000 
     27 N24        15.0330   37.9220   19.2140 N.pl3     1 74T200      0.0000 
     28 C25        24.6150   27.2150   11.5600 C.3       1 74T200      0.0000 
     29 O26        24.5600   25.8050   11.2970 O.3       1 74T200      0.0000 
     30 C27        23.5740   25.5260   10.2930 C.3       1 74T200      0.0000 
     31 O28        22.6170   24.5600   10.7450 O.3       1 74T200      0.0000 
     32 C29        21.3580   25.1850   10.9710 C.3       1 74T200      0.0000 
     33 C30        21.3550   26.4630   10.1510 C.3       1 74T200      0.0000 
     34 C31        22.8200   26.8200   10.0440 C.3       1 74T200      0.0000 
     35 C32        18.2970   28.4610   13.9450 C.3       1 74T200      0.0000 
     36 C33        18.2590   26.7960   12.0660 C.ar      1 74T200      0.0000 
     37 C34        18.0690   26.4580   10.7310 C.ar      1 74T200      0.0000 
     38 C35        17.6840   27.4330    9.8200 C.ar      1 74T200      0.0000 
     39 C36        17.4950   28.7450   10.2390 C.ar      1 74T200      0.0000 
     40 C37        17.6890   29.0850   11.5780 C.ar      1 74T200      0.0000 
     41 C38        18.0700   28.1020   12.4930 C.ar      1 74T200      0.0000 
     42 C42        15.5740   39.2180   19.6120 C.3       1 74T200      0.0000 
     43 C43        14.9060   40.4090   18.9410 C.3       1 74T200      0.0000 
     44 C44        15.2980   41.6640   19.7180 C.3       1 74T200      0.0000 
     45 N45        16.7640   41.8220   19.7570 N.4       1 74T200      0.0000 
     46 C46        17.4530   40.6160   20.2650 C.3       1 74T200      0.0000 
     47 C47        17.0680   39.3850   19.4450 C.3       1 74T200      0.0000 
     48 C48        17.1250   42.9600   20.6150 C.3       1 74T200      0.0000 
     49 C49        15.9040   43.7620   21.0600 C.3       1 74T200      0.0000 
     50 C50        16.2590   45.2410   20.9610 C.3       1 74T200      0.0000 
     51 C51        17.6120   45.3430   20.2650 C.3       1 74T200      0.0000 
     52 C52        18.0310   43.9310   19.8680 C.3       1 74T200      0.0000 
     53 H          18.2422   35.3494   15.3848 H         1 74T200      0.0000 
     54 H          16.0826   31.8321   16.1437 H         1 74T200      0.0000 
     55 H          14.7456   33.0099   17.7727 H         1 74T200      0.0000 
     56 H          19.7824   32.9469   17.1951 H         1 74T200      0.0000 
     57 H          20.0698   33.9834   15.7869 H         1 74T200      0.0000 
     58 H          21.8013   31.7040   16.7966 H         1 74T200      0.0000 
     59 H          18.0797   30.5087   15.8882 H         1 74T200      0.0000 
     60 H          19.3250   30.8586   17.0993 H         1 74T200      0.0000 
     61 H          21.0177   29.9993   15.4397 H         1 74T200      0.0000 
     62 H          19.4764   30.1749   13.4770 H         1 74T200      0.0000 
     63 H          20.6511   27.4615   13.9357 H         1 74T200      0.0000 
     64 H          23.4156   28.7276   10.7301 H         1 74T200      0.0000 
     65 H          14.0910   37.6616   19.6507 H         1 74T200      0.0000 
     66 H          24.7450   27.4211   12.6153 H         1 74T200      0.0000 
     67 H          25.4009   27.6981   10.9926 H         1 74T200      0.0000 
     68 H          24.0248   25.2330    9.3721 H         1 74T200      0.0000 
     69 H          21.2159   25.4507   12.0132 H         1 74T200      0.0000 
     70 H          20.5305   24.5671   10.6386 H         1 74T200      0.0000 
     71 H          20.8309   27.2251   10.6737 H         1 74T200      0.0000 
     72 H          20.9548   26.2707    9.1858 H         1 74T200      0.0000 
     73 H          23.0574   27.1742    9.0881 H         1 74T200      0.0000 
     74 H          17.4616   29.0397   14.3138 H         1 74T200      0.0000 
     75 H          18.4118   27.5599   14.5311 H         1 74T200      0.0000 
     76 H          18.5423   26.0700   12.7421 H         1 74T200      0.0000 
     77 H          18.2131   25.4896   10.4198 H         1 74T200      0.0000 
     78 H          17.5380   27.1841    8.8314 H         1 74T200      0.0000 
     79 H          17.2122   29.4664    9.5637 H         1 74T200      0.0000 
     80 H          17.5526   30.0517   11.8888 H         1 74T200      0.0000 
     81 H          15.3798   39.3661   20.7186 H         1 74T200      0.0000 
     82 H          13.8361   40.2887   18.9701 H         1 74T200      0.0000 
     83 H          15.2520   40.4938   17.9246 H         1 74T200      0.0000 
     84 H          14.8937   41.5832   20.7325 H         1 74T200      0.0000 
     85 H          14.8315   42.5295   19.2356 H         1 74T200      0.0000 
     86 H          17.1278   42.0299   18.7459 H         1 74T200      0.0000 
     87 H          17.1845   40.4341   21.3100 H         1 74T200      0.0000 
     88 H          18.5383   40.7439   20.2094 H         1 74T200      0.0000 
     89 H          17.3056   39.5552   18.4144 H         1 74T200      0.0000 
     90 H          17.5790   38.5262   19.8309 H         1 74T200      0.0000 
     91 H          17.6501   42.6316   21.4968 H         1 74T200      0.0000 
     92 H          15.6642   43.5154   22.0799 H         1 74T200      0.0000 
     93 H          15.0748   43.5450   20.4090 H         1 74T200      0.0000 
     94 H          16.3290   45.6622   21.9484 H         1 74T200      0.0000 
     95 H          15.5141   45.7527   20.3775 H         1 74T200      0.0000 
     96 H          18.3365   45.7564   20.9438 H         1 74T200      0.0000 
     97 H          17.5193   45.9525   19.3838 H         1 74T200      0.0000 
     98 H          17.9030   43.8020   18.8082 H         1 74T200      0.0000 
     99 H          19.0537   43.7647   20.1553 H         1 74T200      0.0000 
    100 H          23.2919   32.2701   14.9310 H         1 74T200      0.0000 
    101 H          21.8900   31.7273   14.3598 H         1 74T200      0.0000 
    102 H          22.2228   33.2999   14.3123 H         1 74T200      0.0000 
    103 H          23.4036   33.5394   17.1018 H         1 74T200      0.0000 
    104 H          22.3214   34.6305   16.6276 H         1 74T200      0.0000 
    105 H          22.0821   33.7963   17.9815 H         1 74T200      0.0000 
    106 H          20.7933   28.4464   16.8151 H         1 74T200      0.0000 
@<TRIPOS>BOND
     1    2    1 1    
     2   22    1 2    
     3    3    2 ar   
     4    7    2 ar   
     5    4    3 ar   
     6   25    3 1    
     7    5    4 ar   
     8   53    4 1    
     9    6    5 ar   
    10    8    5 1    
    11    7    6 ar   
    12   54    6 1    
    13   55    7 1    
    14    9    8 2    
    15   10    8 2    
    16   11    8 1    
    17   12   11 1    
    18   16   11 1    
    19   13   12 1    
    20   56   12 1    
    21   57   12 1    
    22   14   13 1    
    23   15   13 1    
    24   58   13 1    
    25  100   14 1    
    26  101   14 1    
    27  102   14 1    
    28  103   15 1    
    29  104   15 1    
    30  105   15 1    
    31   17   16 1    
    32   59   16 1    
    33   60   16 1    
    34   18   17 1    
    35   19   17 1    
    36   61   17 1    
    37  106   18 1    
    38   20   19 1    
    39   35   19 1    
    40   62   19 1    
    41   21   20 am   
    42   63   20 1    
    43   23   21 2    
    44   24   21 1    
    45   25   22 1    
    46   27   22 1    
    47   26   24 1    
    48   28   26 1    
    49   34   26 1    
    50   64   26 1    
    51   42   27 1    
    52   65   27 1    
    53   29   28 1    
    54   66   28 1    
    55   67   28 1    
    56   30   29 1    
    57   31   30 1    
    58   34   30 1    
    59   68   30 1    
    60   32   31 1    
    61   33   32 1    
    62   69   32 1    
    63   70   32 1    
    64   34   33 1    
    65   71   33 1    
    66   72   33 1    
    67   73   34 1    
    68   41   35 1    
    69   74   35 1    
    70   75   35 1    
    71   37   36 ar   
    72   41   36 ar   
    73   76   36 1    
    74   38   37 ar   
    75   77   37 1    
    76   39   38 ar   
    77   78   38 1    
    78   40   39 ar   
    79   79   39 1    
    80   41   40 ar   
    81   80   40 1    
    82   43   42 1    
    83   47   42 1    
    84   81   42 1    
    85   44   43 1    
    86   82   43 1    
    87   83   43 1    
    88   45   44 1    
    89   84   44 1    
    90   85   44 1    
    91   46   45 1    
    92   48   45 1    
    93   86   45 1    
    94   47   46 1    
    95   87   46 1    
    96   88   46 1    
    97   89   47 1    
    98   90   47 1    
    99   49   48 1    
   100   52   48 1    
   101   91   48 1    
   102   50   49 1    
   103   92   49 1    
   104   93   49 1    
   105   51   50 1    
   106   94   50 1    
   107   95   50 1    
   108   52   51 1    
   109   96   51 1    
   110   97   51 1    
   111   98   52 1    
   112   99   52 1    
@<TRIPOS>SUBSTRUCTURE
     1 74T200      1 GROUP   
@<TRIPOS>SET

