#    Name: 3mf1_G5A_1_INTS_M
#    Modification time : Mon Mar 24 23:10:02 2014

@<TRIPOS>MOLECULE
3mf1_G5A_1_INTS_M
   61     0    12     0     0
SMALL
NO_CHARGES


@<TRIPOS>ATOM
      1 Zn         90.8885   29.2105   11.9020 Zn        3 ZIC7        0.0000 
      2 Zn         91.0110   29.4220   10.8700 Zn       11 ZIL7        0.0000 
      3 Zn         90.7660   28.9990   12.9340 Zn        7 ZIP7        0.0000 
      4 N          98.6550   34.8180    0.2945 N.am      2 SEC2        0.0000 
      5 N          97.8580   34.7810    1.5330 N.am     10 SEL2        0.0000 
      6 N          99.4520   34.8550   -0.9440 N.am      6 SEP2        0.0000 
      7 CA         99.7565   34.9955    1.5090 C.3       4 GLC5        0.0000 
      8 CA         98.0910   35.5760    2.5810 C.3      12 GLL5        0.0000 
      9 CA        101.4220   34.4150    0.4370 C.3       8 GLP5        0.0000 
     10 CA         99.3930   34.5410    3.4955 C.3       4 GLC5        0.0000 
     11 CA        100.6950   33.5060    4.4100 C.3       8 GLP5        0.0000 
     12 CA         97.4445   37.4465    2.9950 C.3       4 GLC5        0.0000 
     13 CA         96.7980   39.3170    3.4090 C.3       8 GLP5        0.0000 
     14 CA         95.7695   36.7360    3.4440 C.3       4 GLC5        0.0000 
     15 CA         96.1090   34.7760    3.6620 C.3      12 GLL5        0.0000 
     16 CA         95.4300   38.6960    3.2260 C.3       8 GLP5        0.0000 
     17 CA         97.3650   35.1330   -0.3065 C.3       4 GLC5        0.0000 
     18 CA         96.7990   33.9030    1.4210 C.3      12 GLL5        0.0000 
     19 CA         97.9310   36.3630   -2.0340 C.3       8 GLP5        0.0000 
     20 CA         98.7165   33.9580    0.2975 C.3       4 GLC5        0.0000 
     21 CA        100.6340   34.0130   -0.8260 C.3       8 GLP5        0.0000 
     22 O          95.7095   32.0500   -0.0875 O.2       1 ALC1        0.0000 
     23 O          96.6280   33.0870    0.3000 O.2       9 ALL1        0.0000 
     24 O          94.7910   31.0130   -0.4750 O.2       5 ALP1        0.0000 
     25 O          97.8905   32.6260   -0.1055 O.2       1 ALC1        0.0000 
     26 O          99.1530   32.1650   -0.5110 O.2       5 ALP1        0.0000 
     27 CA         92.6635   30.7710   10.0745 C.3       4 GLC5        0.0000 
     28 CA         90.5720   30.6690   10.3010 C.3      12 GLL5        0.0000 
     29 CA         94.7550   30.8730    9.8480 C.3       8 GLP5        0.0000 
     30 CA         89.6585   30.4360   11.9045 C.3       4 GLC5        0.0000 
     31 CA         88.7450   30.2030   13.5080 C.3       8 GLP5        0.0000 
     32 CA         91.3395   32.1845   10.9625 C.3       4 GLC5        0.0000 
     33 CA         92.1070   33.7000   11.6240 C.3       8 GLP5        0.0000 
     34 CA         96.1710   33.6680    5.6290 C.3       4 GLC5        0.0000 
     35 CA         95.0050   35.2790    5.8120 C.3      12 GLL5        0.0000 
     36 CA         97.3370   32.0570    5.4460 C.3       8 GLP5        0.0000 
     37 N          88.3860   33.1420    6.8330 N.am      2 SEC2        0.0000 
     38 N          89.8200   33.4280    6.6940 N.am     10 SEL2        0.0000 
     39 N          86.9520   32.8560    6.9720 N.am      6 SEP2        0.0000 
     40 O          93.3625   38.3200    5.3630 O.2       1 ALC1        0.0000 
     41 O          94.2400   37.5510    6.2320 O.2       9 ALL1        0.0000 
     42 O          92.4850   39.0890    4.4940 O.2       5 ALP1        0.0000 
     43 N          91.5460   31.1190    4.7905 N.am      2 SEC2        0.0000 
     44 N          90.6040   31.3930    5.7490 N.am     10 SEL2        0.0000 
     45 N          92.4880   30.8450    3.8320 N.am      6 SEP2        0.0000 
     46 O          89.8835   32.9955    8.9980 O.2       1 ALC1        0.0000 
     47 O          90.4650   31.7150    8.3550 O.2       9 ALL1        0.0000 
     48 O          89.3020   34.2760    9.6410 O.2       5 ALP1        0.0000 
     49 Zn         90.6155   30.3570   10.6445 Zn        3 ZIC7        0.0000 
     50 Zn         90.4650   31.7150    8.3550 Zn       11 ZIL7        0.0000 
     51 CA         94.9440   36.0940    7.9635 C.3       4 GLC5        0.0000 
     52 CA         93.2940   34.9430    7.4300 C.3      12 GLL5        0.0000 
     53 CA         96.5940   37.2450    8.4970 C.3       8 GLP5        0.0000 
     54 CA         90.5580   34.5240    8.5115 C.3       4 GLC5        0.0000 
     55 CA         92.5460   33.7200    8.0000 C.3      12 GLL5        0.0000 
     56 CA         88.5700   35.3280    9.0230 C.3       8 GLP5        0.0000 
     57 CA         92.3265   33.7100    9.8120 C.3       4 GLC5        0.0000 
     58 CA         95.5132   36.5183    7.1020 C.3       4 GLC5        0.0000 
     59 CA         94.9313   37.2437    4.4665 C.3       4 GLC5        0.0000 
     60 CA         93.9640   32.6748    7.8805 C.3       4 GLC5        0.0000 
     61 CA         95.0080   31.0180    8.0460 C.3       8 GLP5        0.0000 
@<TRIPOS>BOND
@<TRIPOS>SUBSTRUCTURE
     1 ALC1       22 GROUP        1 X    ALC  0     ROOT ALC X 1
     2 SEC2        4 GROUP        1 X    SEC  0     **** SEC X 2
     3 ZIC7        1 GROUP        1 X    ZIC  0     **** ZIC X 5
     4 GLC5        7 GROUP        1 X    GLC  0     **** GLC X 6
     5 ALP1       24 GROUP        1 Y    ALP  0     ROOT ALP Y 8
     6 SEP2        6 GROUP        1 Y    SEP  0     **** SEP Y 9
     7 ZIP7        3 GROUP        1 Y    ZIP  0     **** ZIP Y 12
     8 GLP5        9 GROUP        1 Y    GLP  0     **** GLP Y 13
     9 ALL1       23 GROUP        1 Z    ALL  0     ROOT ALL Z 15
    10 SEL2        5 GROUP        1 Z    SEL  0     **** SEL Z 16
    11 ZIL7        2 GROUP        1 Z    ZIL  0     **** ZIL Z 19
    12 GLL5        8 GROUP        1 Z    GLL  0     **** GLL Z 20
@<TRIPOS>SET

