#    Name: 3mf1_G5A_1_ligand
#    Modification time : Mon Mar 24 23:10:02 2014

@<TRIPOS>MOLECULE
3mf1_G5A_1_ligand
   44    46     1     0     0
SMALL
NO_CHARGES


@<TRIPOS>ATOM
      1 C          91.0550   30.6850    8.9050 C.2       1 G5A1001     0.0000 
      2 N          91.0110   29.4220   10.8700 N.3       1 G5A1001     0.0000 
      3 O          91.8500   29.9030    8.3640 O.2       1 G5A1001     0.0000 
      4 S          90.5940   32.2150    6.9300 S.o2      1 G5A1001     0.0000 
      5 N1         97.8580   34.7810    1.5330 N.ar      1 G5A1001     0.0000 
      6 C2         98.0910   35.5760    2.5810 C.ar      1 G5A1001     0.0000 
      7 N3         97.2130   35.6120    3.6470 N.ar      1 G5A1001     0.0000 
      8 C4         96.1090   34.7760    3.6620 C.ar      1 G5A1001     0.0000 
      9 C5         95.8600   33.8740    2.5250 C.ar      1 G5A1001     0.0000 
     10 C6         96.7990   33.9030    1.4210 C.ar      1 G5A1001     0.0000 
     11 N6         96.6280   33.0870    0.3000 N.pl3     1 G5A1001     0.0000 
     12 N7         94.7840   33.2030    2.7690 N.2       1 G5A1001     0.0000 
     13 C8         94.3200   33.5900    4.0020 C.2       1 G5A1001     0.0000 
     14 N9         95.1330   34.5370    4.5160 N.pl3     1 G5A1001     0.0000 
     15 CA         90.5720   30.6690   10.3010 C.3       1 G5A1001     0.0000 
     16 C1*        95.0050   35.2790    5.8120 C.3       1 G5A1001     0.0000 
     17 O1S        89.8200   33.4280    6.6940 O.2       1 G5A1001     0.0000 
     18 C2*        93.8600   36.3040    5.6020 C.3       1 G5A1001     0.0000 
     19 O2*        94.2400   37.5510    6.2320 O.3       1 G5A1001     0.0000 
     20 O2S        90.6040   31.3930    5.7490 O.2       1 G5A1001     0.0000 
     21 C3*        92.6130   35.6090    6.2060 C.3       1 G5A1001     0.0000 
     22 O3*        91.7340   36.5440    6.7770 O.3       1 G5A1001     0.0000 
     23 N3S        90.4650   31.7150    8.3550 N.pl3     1 G5A1001     0.0000 
     24 C4*        93.2940   34.9430    7.4300 C.3       1 G5A1001     0.0000 
     25 O4*        94.5520   34.4370    6.8840 O.3       1 G5A1001     0.0000 
     26 C5*        92.5460   33.7200    8.0000 C.3       1 G5A1001     0.0000 
     27 O5*        92.0930   32.7570    6.9660 O.3       1 G5A1001     0.0000 
     28 H          98.9389   36.1836    2.6140 H         1 G5A1001     0.0000 
     29 H          95.6839   32.8604    0.0606 H         1 G5A1001     0.0000 
     30 H          97.4643   32.7996   -0.1667 H         1 G5A1001     0.0000 
     31 H          93.5274   33.2298    4.4274 H         1 G5A1001     0.0000 
     32 H          89.4879   30.7422   10.3105 H         1 G5A1001     0.0000 
     33 H          90.9927   31.5136   10.8400 H         1 G5A1001     0.0000 
     34 H          95.8735   35.8120    6.0379 H         1 G5A1001     0.0000 
     35 H          93.7190   36.3920    4.5469 H         1 G5A1001     0.0000 
     36 H          92.2550   34.9059    5.6004 H         1 G5A1001     0.0000 
     37 H          89.7855   32.3358    8.9263 H         1 G5A1001     0.0000 
     38 H          93.4752   35.6553    8.1717 H         1 G5A1001     0.0000 
     39 H          91.6815   34.0914    8.5803 H         1 G5A1001     0.0000 
     40 H          93.2169   33.2180    8.7211 H         1 G5A1001     0.0000 
     41 H          91.9115   29.5052   11.2968 H         1 G5A1001     0.0000 
     42 H          91.0794   28.7022   10.1792 H         1 G5A1001     0.0000 
     43 H          93.7376   38.2568    5.7326 H         1 G5A1001     0.0000 
     44 H          92.3088   37.3262    7.0174 H         1 G5A1001     0.0000 
@<TRIPOS>BOND
     1    3    1 2    
     2   15    1 1    
     3   23    1 1    
     4   15    2 1    
     5   41    2 1    
     6   42    2 1    
     7   17    4 2    
     8   20    4 2    
     9   23    4 1    
    10   27    4 1    
    11    6    5 ar   
    12   10    5 ar   
    13    7    6 ar   
    14   28    6 1    
    15    8    7 ar   
    16    9    8 ar   
    17   14    8 1    
    18   10    9 ar   
    19   12    9 1    
    20   11   10 1    
    21   29   11 1    
    22   30   11 1    
    23   13   12 2    
    24   14   13 1    
    25   31   13 1    
    26   16   14 1    
    27   32   15 1    
    28   33   15 1    
    29   18   16 1    
    30   25   16 1    
    31   34   16 1    
    32   19   18 1    
    33   21   18 1    
    34   35   18 1    
    35   43   19 1    
    36   22   21 1    
    37   24   21 1    
    38   36   21 1    
    39   44   22 1    
    40   37   23 1    
    41   25   24 1    
    42   26   24 1    
    43   38   24 1    
    44   27   26 1    
    45   39   26 1    
    46   40   26 1    
@<TRIPOS>SUBSTRUCTURE
     1 G5A1001     1 GROUP   
@<TRIPOS>SET

