#    Name: 4e6q_0NV_2_INTS_M
#    Modification time : Mon Apr  7 23:28:00 2014

@<TRIPOS>MOLECULE
4e6q_0NV_2_INTS_M
   68     0     9     0     0
SMALL
NO_CHARGES


@<TRIPOS>ATOM
      1 CA          1.6585   46.5400   25.7195 C.3       3 GLC5        0.0000 
      2 CA          2.6220   48.2540   26.0480 C.3       9 GLL5        0.0000 
      3 CA          0.6950   44.8260   25.3910 C.3       6 GLP5        0.0000 
      4 CA          0.9740   48.6810   25.2950 C.3       3 GLC5        0.0000 
      5 CA         -0.6740   49.1080   24.5420 C.3       6 GLP5        0.0000 
      6 CA          1.0695   50.1585   25.6525 C.3       3 GLC5        0.0000 
      7 CA          2.5020   49.6770   26.6270 C.3       9 GLL5        0.0000 
      8 CA         -0.3630   50.6400   24.6780 C.3       6 GLP5        0.0000 
      9 CA          6.7075   50.6305   27.7520 C.3       3 GLC5        0.0000 
     10 CA          4.8230   49.6600   27.4340 C.3       9 GLL5        0.0000 
     11 CA          8.5920   51.6010   28.0700 C.3       6 GLP5        0.0000 
     12 CA          6.7130   47.1185   27.2700 C.3       3 GLC5        0.0000 
     13 CA          5.0410   48.3040   26.7400 C.3       9 GLL5        0.0000 
     14 CA          8.3850   45.9330   27.8000 C.3       6 GLP5        0.0000 
     15 CA          6.2765   44.4460   20.3740 C.3       3 GLC5        0.0000 
     16 CA          5.0390   45.0030   21.9240 C.3       9 GLL5        0.0000 
     17 CA          7.5140   43.8890   18.8240 C.3       6 GLP5        0.0000 
     18 N           5.5420   45.1640   19.7540 N.am      2 SEC2        0.0000 
     19 N           4.9260   45.8250   20.8890 N.am      8 SEL2        0.0000 
     20 N           6.1580   44.5030   18.6190 N.am      5 SEP2        0.0000 
     21 CA          4.3480   46.0270   19.1940 C.3       3 GLC5        0.0000 
     22 CA          4.5620   47.1280   21.0700 C.3       9 GLL5        0.0000 
     23 CA          4.1340   44.9260   17.3180 C.3       6 GLP5        0.0000 
     24 O           4.3575   47.9005   18.7925 O.2       1 ALC1        0.0000 
     25 O           4.3700   48.1570   20.2230 O.2       7 ALL1        0.0000 
     26 O           4.3450   47.6440   17.3620 O.2       4 ALP1        0.0000 
     27 CA          5.4295   49.9490   19.7265 C.3       3 GLC5        0.0000 
     28 CA          4.0250   49.2970   20.9110 C.3       9 GLL5        0.0000 
     29 CA          6.8340   50.6010   18.5420 C.3       6 GLP5        0.0000 
     30 CA          1.8765   48.8345   22.6800 C.3       3 GLC5        0.0000 
     31 CA          3.9760   49.0610   22.2410 C.3       9 GLL5        0.0000 
     32 CA         -0.2230   48.6080   23.1190 C.3       6 GLP5        0.0000 
     33 CA          4.0860   52.7085   26.9295 C.3       3 GLC5        0.0000 
     34 CA          3.2780   51.2020   28.3350 C.3       9 GLL5        0.0000 
     35 CA          4.8940   54.2150   25.5240 C.3       6 GLP5        0.0000 
     36 CA         -0.6165   54.0370   26.5385 C.3       3 GLC5        0.0000 
     37 CA         -0.2470   52.6470   28.0400 C.3       9 GLL5        0.0000 
     38 CA         -0.9860   55.4270   25.0370 C.3       6 GLP5        0.0000 
     39 CA         -2.5170   51.4480   28.3285 C.3       3 GLC5        0.0000 
     40 CA         -0.7130   52.3150   29.2870 C.3       9 GLL5        0.0000 
     41 CA         -4.3210   50.5810   27.3700 C.3       6 GLP5        0.0000 
     42 CA         -1.4800   50.1875   30.7525 C.3       3 GLC5        0.0000 
     43 CA          0.0650   51.6340   30.2290 C.3       9 GLL5        0.0000 
     44 CA         -3.0250   48.7410   31.2760 C.3       6 GLP5        0.0000 
     45 CA          1.1620   48.1172   27.7578 C.3       3 GLC5        0.0000 
     46 CA         -0.2380   47.2690   29.1780 C.3       6 GLP5        0.0000 
     47 CA          6.1685   48.0913   25.1357 C.3       3 GLC5        0.0000 
     48 CA          4.0610   48.1770   25.5590 C.3       9 GLL5        0.0000 
     49 CA          7.7860   47.9420   24.1220 C.3       6 GLP5        0.0000 
     50 CA          3.0037   44.9905   22.7110 C.3       3 GLC5        0.0000 
     51 CA          4.8400   45.4210   23.2700 C.3       9 GLL5        0.0000 
     52 CA          1.0680   44.7690   22.8250 C.3       6 GLP5        0.0000 
     53 CA          6.4187   43.9315   23.4910 C.3       3 GLC5        0.0000 
     54 CA          7.8980   42.6510   24.3850 C.3       6 GLP5        0.0000 
     55 CA          6.2220   47.0230   23.7550 C.3       3 GLC5        0.0000 
     56 CA          2.6372   50.5410   21.0610 C.3       3 GLC5        0.0000 
     57 CA          1.2740   51.9030   20.5460 C.3       6 GLP5        0.0000 
     58 CA          2.7368   45.9907   22.8848 C.3       3 GLC5        0.0000 
     59 CA          4.3350   47.6380   22.3830 C.3       9 GLL5        0.0000 
     60 CA          0.0178   51.5525   26.2858 C.3       3 GLC5        0.0000 
     61 CA          1.0440   52.2830   27.7470 C.3       9 GLL5        0.0000 
     62 CA         -1.6645   52.0777   31.2465 C.3       3 GLC5        0.0000 
     63 CA         -3.0050   52.1810   32.7350 C.3       6 GLP5        0.0000 
     64 CA          0.2373   49.3572   29.6310 C.3       3 GLC5        0.0000 
     65 CA          2.6993   47.8910   20.6021 C.3       3 GLC5        0.0000 
     66 CA          1.1740   47.5010   19.5530 C.3       6 GLP5        0.0000 
     67 CA          5.9742   48.5335   21.7046 C.3       3 GLC5        0.0000 
     68 CA          7.7240   48.7860   21.7580 C.3       6 GLP5        0.0000 
@<TRIPOS>BOND
@<TRIPOS>SUBSTRUCTURE
     1 ALC1       24 GROUP        1 X    ALC  0     ROOT ALC X 1
     2 SEC2       18 GROUP        1 X    SEC  0     **** SEC X 2
     3 GLC5        1 GROUP        1 X    GLC  0     **** GLC X 6
     4 ALP1       26 GROUP        1 Y    ALP  0     ROOT ALP Y 8
     5 SEP2       20 GROUP        1 Y    SEP  0     **** SEP Y 9
     6 GLP5        3 GROUP        1 Y    GLP  0     **** GLP Y 13
     7 ALL1       25 GROUP        1 Z    ALL  0     ROOT ALL Z 15
     8 SEL2       19 GROUP        1 Z    SEL  0     **** SEL Z 16
     9 GLL5        2 GROUP        1 Z    GLL  0     **** GLL Z 20
@<TRIPOS>SET

