#    Name: 4e6q_0NV_2_ligand
#    Modification time : Mon Apr  7 23:28:00 2014

@<TRIPOS>MOLECULE
4e6q_0NV_2_ligand
   47    51     1     0     0
SMALL
NO_CHARGES


@<TRIPOS>ATOM
      1 C1          2.6220   48.2540   26.0480 C.3       1 0NV1201     0.0000 
      2 C2          2.5020   49.6770   26.6270 C.3       1 0NV1201     0.0000 
      3 N3          3.4030   49.8330   27.8040 N.4       1 0NV1201     0.0000 
      4 C4          4.8230   49.6600   27.4340 C.3       1 0NV1201     0.0000 
      5 C5          5.0410   48.3040   26.7400 C.3       1 0NV1201     0.0000 
      6 C6          4.0610   48.1770   25.5590 C.3       1 0NV1201     0.0000 
      7 N7          4.3700   46.9230   24.8730 N.pl3     1 0NV1201     0.0000 
      8 C8          4.6140   45.6880   25.4550 C.2       1 0NV1201     0.0000 
      9 N9          4.9110   44.8120   24.5010 N.2       1 0NV1201     0.0000 
     10 C10         4.8400   45.4210   23.2700 C.ar      1 0NV1201     0.0000 
     11 C11         5.0390   45.0030   21.9240 C.ar      1 0NV1201     0.0000 
     12 N12         4.9260   45.8250   20.8890 N.ar      1 0NV1201     0.0000 
     13 C13         4.5620   47.1280   21.0700 C.ar      1 0NV1201     0.0000 
     14 N14         4.3700   48.1570   20.2230 N.pl3     1 0NV1201     0.0000 
     15 C15         4.0250   49.2970   20.9110 C.2       1 0NV1201     0.0000 
     16 C16         3.9760   49.0610   22.2410 C.2       1 0NV1201     0.0000 
     17 C17         4.3350   47.6380   22.3830 C.ar      1 0NV1201     0.0000 
     18 C18         4.4760   46.7870   23.5060 C.ar      1 0NV1201     0.0000 
     19 C19         3.2780   51.2020   28.3350 C.3       1 0NV1201     0.0000 
     20 C20         1.8410   51.5850   28.6710 C.ar      1 0NV1201     0.0000 
     21 C21         1.0440   52.2830   27.7470 C.ar      1 0NV1201     0.0000 
     22 C22        -0.2470   52.6470   28.0400 C.ar      1 0NV1201     0.0000 
     23 C23        -0.7130   52.3150   29.2870 C.ar      1 0NV1201     0.0000 
     24 C24         0.0650   51.6340   30.2290 C.ar      1 0NV1201     0.0000 
     25 C25         1.3600   51.2570   29.9390 C.ar      1 0NV1201     0.0000 
     26 H           1.9529   48.1485   25.2325 H         1 0NV1201     0.0000 
     27 H           2.4600   47.5455   26.8197 H         1 0NV1201     0.0000 
     28 H           1.4654   49.8440   26.9170 H         1 0NV1201     0.0000 
     29 H           2.7686   50.3892   25.8471 H         1 0NV1201     0.0000 
     30 H           3.1388   49.1319   28.5682 H         1 0NV1201     0.0000 
     31 H           5.4597   49.6957   28.3211 H         1 0NV1201     0.0000 
     32 H           5.1419   50.4492   26.7491 H         1 0NV1201     0.0000 
     33 H           4.8555   47.5079   27.4446 H         1 0NV1201     0.0000 
     34 H           6.0536   48.2502   26.3706 H         1 0NV1201     0.0000 
     35 H           4.2545   49.0174   24.8982 H         1 0NV1201     0.0000 
     36 H           4.5670   45.5247   26.4063 H         1 0NV1201     0.0000 
     37 H           5.2859   43.9867   21.7857 H         1 0NV1201     0.0000 
     38 H           4.4594   48.1160   19.2515 H         1 0NV1201     0.0000 
     39 H           3.8425   50.1556   20.4837 H         1 0NV1201     0.0000 
     40 H           3.7746   49.6074   22.9515 H         1 0NV1201     0.0000 
     41 H           3.6681   51.9328   27.6035 H         1 0NV1201     0.0000 
     42 H           3.8882   51.3144   29.2495 H         1 0NV1201     0.0000 
     43 H           1.4555   52.5231   26.8222 H         1 0NV1201     0.0000 
     44 H          -0.8256   53.1358   27.3694 H         1 0NV1201     0.0000 
     45 H          -1.6926   52.5780   29.5560 H         1 0NV1201     0.0000 
     46 H          -0.3441   51.4138   31.1540 H         1 0NV1201     0.0000 
     47 H           1.9362   50.7686   30.6049 H         1 0NV1201     0.0000 
@<TRIPOS>BOND
     1    2    1 1    
     2    6    1 1    
     3   26    1 1    
     4   27    1 1    
     5    3    2 1    
     6   28    2 1    
     7   29    2 1    
     8    4    3 1    
     9   19    3 1    
    10   30    3 1    
    11    5    4 1    
    12   31    4 1    
    13   32    4 1    
    14    6    5 1    
    15   33    5 1    
    16   34    5 1    
    17    7    6 1    
    18   35    6 1    
    19    8    7 1    
    20   18    7 1    
    21    9    8 2    
    22   36    8 1    
    23   10    9 1    
    24   11   10 ar   
    25   18   10 ar   
    26   12   11 ar   
    27   37   11 1    
    28   13   12 ar   
    29   14   13 1    
    30   17   13 ar   
    31   15   14 1    
    32   38   14 1    
    33   16   15 2    
    34   39   15 1    
    35   17   16 1    
    36   40   16 1    
    37   18   17 ar   
    38   20   19 1    
    39   41   19 1    
    40   42   19 1    
    41   21   20 ar   
    42   25   20 ar   
    43   22   21 ar   
    44   43   21 1    
    45   23   22 ar   
    46   44   22 1    
    47   24   23 ar   
    48   45   23 1    
    49   25   24 ar   
    50   46   24 1    
    51   47   25 1    
@<TRIPOS>SUBSTRUCTURE
     1 0NV1201     1 GROUP   
@<TRIPOS>SET

