#    Name: 3tki_S25_1_INTS_M
#    Modification time : Mon Mar 24 20:15:04 2014

@<TRIPOS>MOLECULE
3tki_S25_1_INTS_M
   79     0    12     0     0
SMALL
NO_CHARGES


@<TRIPOS>ATOM
      1 N          23.0300   -3.7040    4.6795 N.am      2 SEC2        0.0000 
      2 N          23.7560   -2.5540    5.7210 N.am     10 SEL2        0.0000 
      3 N          22.3040   -4.8540    3.6380 N.am      6 SEP2        0.0000 
      4 CA         16.1650   -2.1495    8.1130 C.3       4 GLC5        0.0000 
      5 CA         15.9950   -1.5420   10.1210 C.3      12 GLL5        0.0000 
      6 CA         16.3350   -2.7570    6.1050 C.3       8 GLP5        0.0000 
      7 CA         20.7055   -2.5220    5.7160 C.3       4 GLC5        0.0000 
      8 CA         22.6500   -1.6520    5.6010 C.3      12 GLL5        0.0000 
      9 CA         18.7610   -3.3920    5.8310 C.3       8 GLP5        0.0000 
     10 CA         20.8325    0.0765    5.7605 C.3       4 GLC5        0.0000 
     11 CA         22.5820   -0.7910    6.8510 C.3      12 GLL5        0.0000 
     12 CA         19.0830    0.9440    4.6700 C.3       8 GLP5        0.0000 
     13 CA         22.3125   -0.0605    8.9265 C.3       4 GLC5        0.0000 
     14 CA         22.0430    0.6700   11.0020 C.3       8 GLP5        0.0000 
     15 CA         12.4420   -4.3610   11.1790 C.3       4 GLC5        0.0000 
     16 CA         12.2170   -2.5940   12.3860 C.3      12 GLL5        0.0000 
     17 CA         12.6670   -6.1280    9.9720 C.3       8 GLP5        0.0000 
     18 CA          9.8775   -3.3770   12.0930 C.3       4 GLC5        0.0000 
     19 CA         11.2350   -1.6320   12.4890 C.3      12 GLL5        0.0000 
     20 CA          8.5200   -5.1220   11.6970 C.3       8 GLP5        0.0000 
     21 CA          9.7765   -1.3765   11.1095 C.3       4 GLC5        0.0000 
     22 CA          8.3180   -1.1210    9.7300 C.3       8 GLP5        0.0000 
     23 CA         12.2195   -0.3650   13.7830 C.3       4 GLC5        0.0000 
     24 CA         13.2040    0.9020   15.0770 C.3       8 GLP5        0.0000 
     25 CA         10.7185   -1.6950   14.5180 C.3       4 GLC5        0.0000 
     26 CA         10.2020   -1.7580   16.5470 C.3       8 GLP5        0.0000 
     27 CA         11.5460    1.5270   11.2855 C.3       4 GLC5        0.0000 
     28 CA         12.3260   -0.2260   11.1010 C.3      12 GLL5        0.0000 
     29 CA         10.7660    3.2800   11.4700 C.3       8 GLP5        0.0000 
     30 CA         10.7350    0.3880    9.8725 C.3       4 GLC5        0.0000 
     31 CA          9.1440    1.0020    8.6440 C.3       8 GLP5        0.0000 
     32 CA         12.7650    0.3380   13.0890 C.3       4 GLC5        0.0000 
     33 CA         14.7400    1.8490    7.8755 C.3       4 GLC5        0.0000 
     34 CA         14.6770    0.5110    9.4520 C.3      12 GLL5        0.0000 
     35 CA         14.8030    3.1870    6.2990 C.3       8 GLP5        0.0000 
     36 CA         16.0945    2.2130    9.7660 C.3       4 GLC5        0.0000 
     37 CA         17.5120    3.9150   10.0800 C.3       8 GLP5        0.0000 
     38 N          16.2785    2.0685    8.3975 N.am      2 SEC2        0.0000 
     39 N          15.9260    0.7410    8.9430 N.am     10 SEL2        0.0000 
     40 N          16.6310    3.3960    7.8520 N.am      6 SEP2        0.0000 
     41 CA         18.5135   -3.9570    8.6415 C.3       4 GLC5        0.0000 
     42 CA         19.7940   -3.1500    9.9780 C.3      12 GLL5        0.0000 
     43 CA         17.2330   -4.7640    7.3050 C.3       8 GLP5        0.0000 
     44 O          18.7150    1.0635    8.6625 O.2       1 ALC1        0.0000 
     45 O          18.0420   -0.2130    8.8430 O.2       9 ALL1        0.0000 
     46 O          19.3880    2.3400    8.4820 O.2       5 ALP1        0.0000 
     47 N           9.7480   -4.6590   13.9670 N.am      2 SEC2        0.0000 
     48 N          10.9660   -3.9920   13.7680 N.am     10 SEL2        0.0000 
     49 N           8.5300   -5.3260   14.1660 N.am      6 SEP2        0.0000 
     50 CA         12.8305   -7.6360   13.1895 C.3       4 GLC5        0.0000 
     51 CA         13.0040   -5.9670   13.8920 C.3      12 GLL5        0.0000 
     52 CA         12.6570   -9.3050   12.4870 C.3       8 GLP5        0.0000 
     53 CA         12.8355   -6.0475   11.9320 C.3       4 GLC5        0.0000 
     54 CA         13.4345   -8.0165   14.3205 C.3       4 GLC5        0.0000 
     55 CA         14.1020   -6.0830   14.9330 C.3      12 GLL5        0.0000 
     56 CA         12.7670   -9.9500   13.7080 C.3       8 GLP5        0.0000 
     57 OD1        12.8950   -5.0020   16.3905 O.co2     3 ASC3        0.0000 
     58 OD1        14.1750   -4.8330   15.7470 O.co2    11 ASL3        0.0000 
     59 OD1        11.6150   -5.1710   17.0340 O.co2     7 ASP3        0.0000 
     60 O          12.8950   -5.0020   16.3905 O.2       1 ALC1        0.0000 
     61 O          14.1750   -4.8330   15.7470 O.2       9 ALL1        0.0000 
     62 O          11.6150   -5.1710   17.0340 O.2       5 ALP1        0.0000 
     63 CA         14.3438   -2.8110    9.1738 C.3       4 GLC5        0.0000 
     64 CA         14.5080   -0.6780   10.1340 C.3      12 GLL5        0.0000 
     65 CA         13.4360   -4.5120    8.2200 C.3       8 GLP5        0.0000 
     66 CA         13.3872   -3.1217    9.7310 C.3       4 GLC5        0.0000 
     67 CA         13.3620   -1.1200   10.9120 C.3      12 GLL5        0.0000 
     68 CA         12.8525   -0.6500    8.8533 C.3       4 GLC5        0.0000 
     69 CA         12.8610   -0.6270    6.7000 C.3       8 GLP5        0.0000 
     70 CA         14.3266    0.0406   11.9138 C.3       4 GLC5        0.0000 
     71 CA         15.8210    1.0600   12.6560 C.3       8 GLP5        0.0000 
     72 CA         13.7267   -0.3553    8.2465 C.3       4 GLC5        0.0000 
     73 CA         15.3926    0.3803   11.2229 C.3       4 GLC5        0.0000 
     74 CA         19.9573   -2.9238    7.4150 C.3       4 GLC5        0.0000 
     75 CA         21.2750   -1.8990    8.6070 C.3      12 GLL5        0.0000 
     76 CA         21.5983   -0.8928   10.0005 C.3       4 GLC5        0.0000 
     77 CA         19.1915   -2.2445    7.3028 C.3       4 GLC5        0.0000 
     78 CA         20.2350   -0.9920    8.4730 C.3      12 GLL5        0.0000 
     79 CA         20.8325   -0.2135    9.8883 C.3       4 GLC5        0.0000 
@<TRIPOS>BOND
@<TRIPOS>SUBSTRUCTURE
     1 ALC1       44 GROUP        1 X    ALC  0     ROOT ALC X 1
     2 SEC2        1 GROUP        1 X    SEC  0     **** SEC X 2
     3 ASC3       57 GROUP        1 X    ASC  0     **** ASC X 3
     4 GLC5        4 GROUP        1 X    GLC  0     **** GLC X 6
     5 ALP1       46 GROUP        1 Y    ALP  0     ROOT ALP Y 8
     6 SEP2        3 GROUP        1 Y    SEP  0     **** SEP Y 9
     7 ASP3       59 GROUP        1 Y    ASP  0     **** ASP Y 10
     8 GLP5        6 GROUP        1 Y    GLP  0     **** GLP Y 13
     9 ALL1       45 GROUP        1 Z    ALL  0     ROOT ALL Z 15
    10 SEL2        2 GROUP        1 Z    SEL  0     **** SEL Z 16
    11 ASL3       58 GROUP        1 Z    ASL  0     **** ASL Z 17
    12 GLL5        5 GROUP        1 Z    GLL  0     **** GLL Z 20
@<TRIPOS>SET

