#    Name: 3tki_S25_1_ligand
#    Modification time : Mon Mar 24 20:15:04 2014

@<TRIPOS>MOLECULE
3tki_S25_1_ligand
   55    58     1     0     0
SMALL
NO_CHARGES


@<TRIPOS>ATOM
      1 C          23.5040   -2.7800    8.0990 C.3       1 S25325      0.0000 
      2 N          22.5550   -1.6670    8.0230 N.3       1 S25325      0.0000 
      3 O          23.7560   -2.5540    5.7210 O.3       1 S25325      0.0000 
      4 S          15.9950   -1.5420   10.1210 S.3       1 S25325      0.0000 
      5 C1         23.5330   -3.5060    6.7670 C.3       1 S25325      0.0000 
      6 C2         22.6500   -1.6520    5.6010 C.3       1 S25325      0.0000 
      7 C3         22.5820   -0.7910    6.8510 C.3       1 S25325      0.0000 
      8 C4         13.3620   -1.1200   10.9120 C.ar      1 S25325      0.0000 
      9 C5         13.3150   -2.3430   11.5720 C.ar      1 S25325      0.0000 
     10 C6         12.2170   -2.5940   12.3860 C.ar      1 S25325      0.0000 
     11 C7         11.2350   -1.6320   12.4890 C.ar      1 S25325      0.0000 
     12 N8         11.2400   -0.4490   11.8520 N.ar      1 S25325      0.0000 
     13 C9         12.3260   -0.2260   11.1010 C.ar      1 S25325      0.0000 
     14 C10        16.7370   -0.2540    9.2330 C.2       1 S25325      0.0000 
     15 C11        14.5080   -0.6780   10.1340 C.2       1 S25325      0.0000 
     16 C12        14.6770    0.5110    9.4520 C.2       1 S25325      0.0000 
     17 N13        15.9260    0.7410    8.9430 N.2       1 S25325      0.0000 
     18 C14        21.0320   -3.0120    9.3910 C.ar      1 S25325      0.0000 
     19 C15        19.7940   -3.1500    9.9780 C.ar      1 S25325      0.0000 
     20 N16        18.7930   -2.2740    9.8470 N.pl3     1 S25325      0.0000 
     21 C17        19.0090   -1.2020    9.0760 C.ar      1 S25325      0.0000 
     22 C18        20.2350   -0.9920    8.4730 C.ar      1 S25325      0.0000 
     23 C19        21.2750   -1.8990    8.6070 C.ar      1 S25325      0.0000 
     24 N20        18.0420   -0.2130    8.8430 N.pl3     1 S25325      0.0000 
     25 C21        12.0230   -3.8400   13.1550 C.2       1 S25325      0.0000 
     26 O22        10.9660   -3.9920   13.7680 O.2       1 S25325      0.0000 
     27 N23        13.0790   -4.7220   13.1570 N.am      1 S25325      0.0000 
     28 C24        13.0040   -5.9670   13.8920 C.3       1 S25325      0.0000 
     29 C25        14.1020   -6.0830   14.9330 C.3       1 S25325      0.0000 
     30 N26        14.1750   -4.8330   15.7470 N.4       1 S25325      0.0000 
     31 H          23.2095   -3.4873    8.8754 H         1 S25325      0.0000 
     32 H          24.5086   -2.4174    8.3206 H         1 S25325      0.0000 
     33 H          22.5789   -4.0259    6.6416 H         1 S25325      0.0000 
     34 H          24.3282   -4.2560    6.8051 H         1 S25325      0.0000 
     35 H          21.7022   -2.1870    5.5049 H         1 S25325      0.0000 
     36 H          22.7610   -0.9906    4.7384 H         1 S25325      0.0000 
     37 H          23.4538   -0.1401    6.8728 H         1 S25325      0.0000 
     38 H          21.6836   -0.1788    6.8031 H         1 S25325      0.0000 
     39 H          14.0540   -3.0255   11.4632 H         1 S25325      0.0000 
     40 H          10.4058   -1.8593   13.1330 H         1 S25325      0.0000 
     41 H          12.4144    0.7198   10.5978 H         1 S25325      0.0000 
     42 H          13.9209    1.1664    9.3393 H         1 S25325      0.0000 
     43 H          21.7594   -3.7174    9.5305 H         1 S25325      0.0000 
     44 H          19.6389   -4.0237   10.5767 H         1 S25325      0.0000 
     45 H          17.8910   -2.4178   10.3204 H         1 S25325      0.0000 
     46 H          20.3828   -0.1324    7.9040 H         1 S25325      0.0000 
     47 H          18.3779    0.6546    8.3038 H         1 S25325      0.0000 
     48 H          13.9448   -4.5234   12.6405 H         1 S25325      0.0000 
     49 H          13.0859   -6.8320   13.2098 H         1 S25325      0.0000 
     50 H          12.0317   -6.0613   14.4076 H         1 S25325      0.0000 
     51 H          15.0538   -6.2554   14.4283 H         1 S25325      0.0000 
     52 H          13.8910   -6.9368   15.5788 H         1 S25325      0.0000 
     53 H          15.1026   -4.6587   16.0775 H         1 S25325      0.0000 
     54 H          13.8958   -4.0301   15.2204 H         1 S25325      0.0000 
     55 H          13.5811   -4.8777   16.5504 H         1 S25325      0.0000 
@<TRIPOS>BOND
     1    2    1 1    
     2    5    1 1    
     3   31    1 1    
     4   32    1 1    
     5    7    2 1    
     6   23    2 1    
     7    5    3 1    
     8    6    3 1    
     9   14    4 1    
    10   15    4 1    
    11   33    5 1    
    12   34    5 1    
    13    7    6 1    
    14   35    6 1    
    15   36    6 1    
    16   37    7 1    
    17   38    7 1    
    18    9    8 ar   
    19   13    8 ar   
    20   15    8 1    
    21   10    9 ar   
    22   39    9 1    
    23   11   10 ar   
    24   25   10 1    
    25   12   11 ar   
    26   40   11 1    
    27   13   12 ar   
    28   41   13 1    
    29   17   14 2    
    30   24   14 1    
    31   16   15 2    
    32   17   16 1    
    33   42   16 1    
    34   19   18 ar   
    35   23   18 ar   
    36   43   18 1    
    37   20   19 ar   
    38   44   19 1    
    39   21   20 ar   
    40   45   20 1    
    41   22   21 ar   
    42   24   21 1    
    43   23   22 ar   
    44   46   22 1    
    45   47   24 1    
    46   26   25 2    
    47   27   25 am   
    48   28   27 1    
    49   48   27 1    
    50   29   28 1    
    51   49   28 1    
    52   50   28 1    
    53   30   29 1    
    54   51   29 1    
    55   52   29 1    
    56   53   30 1    
    57   54   30 1    
    58   55   30 1    
@<TRIPOS>SUBSTRUCTURE
     1 S25325      1 GROUP   
@<TRIPOS>SET

