#    Name: 4fx3_60K_1_INTS_M
#    Modification time : Mon Mar 24 20:57:34 2014

@<TRIPOS>MOLECULE
4fx3_60K_1_INTS_M
   51     0    12     0     0
SMALL
NO_CHARGES


@<TRIPOS>ATOM
      1 N         -15.7245    4.7230   43.5135 N.am      2 SEC2        0.0000 
      2 N         -14.6160    4.5850   42.4110 N.am     10 SEL2        0.0000 
      3 N         -16.8330    4.8610   44.6160 N.am      6 SEP2        0.0000 
      4 CA        -10.7635    6.5990   40.1870 C.3       4 GLC5        0.0000 
      5 CA        -12.1310    5.1700   39.5700 C.3      12 GLL5        0.0000 
      6 CA         -9.3960    8.0280   40.8040 C.3       8 GLP5        0.0000 
      7 O          -9.6675    1.3140   39.4665 O.2       1 ALC1        0.0000 
      8 O         -10.0970    2.3380   38.1800 O.2       9 ALL1        0.0000 
      9 O          -9.2380    0.2900   40.7530 O.2       5 ALP1        0.0000 
     10 N         -11.3560    6.2580   42.4305 N.am      2 SEC2        0.0000 
     11 N         -12.9210    6.3220   42.4200 N.am     10 SEL2        0.0000 
     12 N          -9.7910    6.1940   42.4410 N.am      6 SEP2        0.0000 
     13 N          -7.7740   -0.6320   38.8425 N.am      2 SEC2        0.0000 
     14 N          -8.3100    0.0400   37.7400 N.am     10 SEL2        0.0000 
     15 N          -7.2380   -1.3040   39.9450 N.am      6 SEP2        0.0000 
     16 O          -6.3425   -0.7925   36.0620 O.2       1 ALC1        0.0000 
     17 O          -6.9120    0.5920   35.9570 O.2       9 ALL1        0.0000 
     18 O          -5.7730   -2.1770   36.1670 O.2       5 ALP1        0.0000 
     19 NZ         -6.5065    5.3510   30.1465 N.4       3 LYC4        0.0000 
     20 NZ         -6.3290    5.1220   31.4490 N.4      11 LYL4        0.0000 
     21 NZ         -6.6840    5.5800   28.8440 N.4       7 LYP4        0.0000 
     22 N          -6.5065    5.3510   30.1465 N.am      2 SEC2        0.0000 
     23 N          -6.3290    5.1220   31.4490 N.am     10 SEL2        0.0000 
     24 N          -6.6840    5.5800   28.8440 N.am      6 SEP2        0.0000 
     25 NZ         -7.3890    5.7585   30.6745 N.4       3 LYC4        0.0000 
     26 NZ         -8.0940    5.9370   32.5050 N.4      11 LYL4        0.0000 
     27 CA         -9.3510    4.4080   38.9018 C.3       4 GLC5        0.0000 
     28 CA        -11.0150    3.1160   38.9390 C.3      12 GLL5        0.0000 
     29 CA         -7.5660    5.0100   38.9750 C.3       8 GLP5        0.0000 
     30 CA         -4.4430    1.5909   34.4928 C.3       4 GLC5        0.0000 
     31 CA         -6.8370    1.6270   35.0270 C.3      12 GLL5        0.0000 
     32 CA         -2.6670    0.8910   35.1410 C.3       8 GLP5        0.0000 
     33 CA         -5.6050    0.4184   33.2353 C.3       4 GLC5        0.0000 
     34 CA         -5.9310    1.7800   34.0070 C.3      12 GLL5        0.0000 
     35 CA         -4.9910   -1.4540   32.6260 C.3       8 GLP5        0.0000 
     36 CA         -5.3123    4.6555   34.4000 C.3       4 GLC5        0.0000 
     37 CA         -6.0540    2.8780   33.1720 C.3      12 GLL5        0.0000 
     38 CA         -4.0630    5.9560   35.5360 C.3       8 GLP5        0.0000 
     39 CA         -9.4329    2.7047   33.6145 C.3       4 GLC5        0.0000 
     40 CA         -7.8780    2.5890   35.2630 C.3      12 GLL5        0.0000 
     41 CA        -11.1580    2.2300   32.6520 C.3       8 GLP5        0.0000 
     42 CA         -8.0965    0.4346   34.6085 C.3       4 GLC5        0.0000 
     43 CA         -9.0620   -1.2770   34.3270 C.3       8 GLP5        0.0000 
     44 CA        -11.8858    2.1600   37.7616 C.3       4 GLC5        0.0000 
     45 CA        -11.2570    4.4960   38.7180 C.3      12 GLL5        0.0000 
     46 CA        -12.3450    1.2000   36.1180 C.3       8 GLP5        0.0000 
     47 CA        -11.1356    3.6843   41.6106 C.3       4 GLC5        0.0000 
     48 CA        -12.6110    3.1410   40.7890 C.3      12 GLL5        0.0000 
     49 CA        -10.3170    3.9830   43.2670 C.3       8 GLP5        0.0000 
     50 CA         -6.5321    3.4391   36.0128 C.3       4 GLC5        0.0000 
     51 CA         -5.7300    3.9200   37.6350 C.3       8 GLP5        0.0000 
@<TRIPOS>BOND
@<TRIPOS>SUBSTRUCTURE
     1 ALC1        7 GROUP        1 X    ALC  0     ROOT ALC X 1
     2 SEC2        1 GROUP        1 X    SEC  0     **** SEC X 2
     3 LYC4       19 GROUP        1 X    LYC  0     **** LYC X 4
     4 GLC5        4 GROUP        1 X    GLC  0     **** GLC X 6
     5 ALP1        9 GROUP        1 Y    ALP  0     ROOT ALP Y 8
     6 SEP2        3 GROUP        1 Y    SEP  0     **** SEP Y 9
     7 LYP4       21 GROUP        1 Y    LYP  0     **** LYP Y 11
     8 GLP5        6 GROUP        1 Y    GLP  0     **** GLP Y 13
     9 ALL1        8 GROUP        1 Z    ALL  0     ROOT ALL Z 15
    10 SEL2        2 GROUP        1 Z    SEL  0     **** SEL Z 16
    11 LYL4       20 GROUP        1 Z    LYL  0     **** LYL Z 18
    12 GLL5        5 GROUP        1 Z    GLL  0     **** GLL Z 20
@<TRIPOS>SET

