#    Name: 4fx3_60K_1_ligand
#    Modification time : Mon Mar 24 20:57:34 2014

@<TRIPOS>MOLECULE
4fx3_60K_1_ligand
   35    37     1     0     0
SMALL
NO_CHARGES


@<TRIPOS>ATOM
      1 S         -13.7390    5.4400   41.6990 S.o2      1 60K301      0.0000 
      2 C1        -12.8170    4.5320   40.6440 C.ar      1 60K301      0.0000 
      3 N1        -14.6430    6.3050   40.6310 N.pl3     1 60K301      0.0000 
      4 O1        -14.6160    4.5850   42.4110 O.2       1 60K301      0.0000 
      5 C2        -12.1310    5.1700   39.5700 C.ar      1 60K301      0.0000 
      6 N2        -10.0970    2.3380   38.1800 N.pl3     1 60K301      0.0000 
      7 O2        -12.9210    6.3220   42.4200 O.2       1 60K301      0.0000 
      8 C3        -11.2570    4.4960   38.7180 C.ar      1 60K301      0.0000 
      9 N3         -9.5210    2.8350   37.0590 N.2       1 60K301      0.0000 
     10 O3         -8.3100    0.0400   37.7400 O.2       1 60K301      0.0000 
     11 C4        -11.0150    3.1160   38.9390 C.ar      1 60K301      0.0000 
     12 N4         -6.9120    0.5920   35.9570 N.am      1 60K301      0.0000 
     13 O4         -6.3290    5.1220   31.4490 O.co2     1 60K301      0.0000 
     14 C5         -8.6210    2.1240   36.4490 C.2       1 60K301      0.0000 
     15 O5         -8.0940    5.9370   32.5050 O.co2     1 60K301      0.0000 
     16 C6         -7.9810    0.8180   36.8400 C.2       1 60K301      0.0000 
     17 C7         -6.8370    1.6270   35.0270 C.ar      1 60K301      0.0000 
     18 C8         -5.9310    1.7800   34.0070 C.ar      1 60K301      0.0000 
     19 C9         -6.0540    2.8780   33.1720 C.ar      1 60K301      0.0000 
     20 C10        -7.0690    3.8320   33.3560 C.ar      1 60K301      0.0000 
     21 C11        -7.1210    4.9740   32.3840 C.2       1 60K301      0.0000 
     22 C12        -8.0060    3.7080   34.4260 C.ar      1 60K301      0.0000 
     23 C13        -7.8780    2.5890   35.2630 C.ar      1 60K301      0.0000 
     24 C14       -11.7170    2.4340   39.9820 C.ar      1 60K301      0.0000 
     25 C15       -12.6110    3.1410   40.7890 C.ar      1 60K301      0.0000 
     26 H         -12.2993    6.1901   39.4249 H         1 60K301      0.0000 
     27 H          -9.8852    1.3801   38.5143 H         1 60K301      0.0000 
     28 H         -10.7968    4.9743   37.9504 H         1 60K301      0.0000 
     29 H          -6.3258   -0.1628   35.9939 H         1 60K301      0.0000 
     30 H          -5.1803    1.1017   33.8624 H         1 60K301      0.0000 
     31 H          -5.3848    3.0070   32.3892 H         1 60K301      0.0000 
     32 H          -8.7189    4.3955   34.5635 H         1 60K301      0.0000 
     33 H         -11.5554    1.4388   40.1231 H         1 60K301      0.0000 
     34 H         -13.1455    2.6347   41.5218 H         1 60K301      0.0000 
     35 H         -15.3402    5.6663   40.3054 H         1 60K301      0.0000 
@<TRIPOS>BOND
     1    2    1 1    
     2    3    1 1    
     3    4    1 2    
     4    7    1 2    
     5    5    2 ar   
     6   25    2 ar   
     7   35    3 1    
     8    8    5 ar   
     9   26    5 1    
    10    9    6 1    
    11   11    6 1    
    12   27    6 1    
    13   11    8 ar   
    14   28    8 1    
    15   14    9 2    
    16   16   10 2    
    17   24   11 ar   
    18   16   12 am   
    19   17   12 1    
    20   29   12 1    
    21   21   13 ar   
    22   16   14 1    
    23   23   14 1    
    24   21   15 ar   
    25   18   17 ar   
    26   23   17 ar   
    27   19   18 ar   
    28   30   18 1    
    29   20   19 ar   
    30   31   19 1    
    31   21   20 1    
    32   22   20 ar   
    33   23   22 ar   
    34   32   22 1    
    35   25   24 ar   
    36   33   24 1    
    37   34   25 1    
@<TRIPOS>SUBSTRUCTURE
     1 60K301      1 GROUP   
@<TRIPOS>SET

