#    Name: 2bdj_HET_1_INTS_M
#    Modification time : Mon Mar 24 20:31:06 2014

@<TRIPOS>MOLECULE
2bdj_HET_1_INTS_M
   80     0     9     0     0
SMALL
NO_CHARGES


@<TRIPOS>ATOM
      1 N          20.1725    1.3470   25.4500 N.am      2 SEC2        0.0000 
      2 N          19.1170    2.2550   25.7630 N.am      8 SEL2        0.0000 
      3 N          21.2280    0.4390   25.1370 N.am      5 SEP2        0.0000 
      4 CA         19.4365    2.0465   24.0895 C.3       3 GLC5        0.0000 
      5 CA         18.6500    3.5300   25.2770 C.3       9 GLL5        0.0000 
      6 CA         20.2230    0.5630   22.9020 C.3       6 GLP5        0.0000 
      7 CA         19.4910    5.0045   22.7750 C.3       3 GLC5        0.0000 
      8 CA         19.1210    4.7110   24.7170 C.3       9 GLL5        0.0000 
      9 CA         19.8610    5.2980   20.8330 C.3       6 GLP5        0.0000 
     10 O          21.2320    3.8020   24.0635 O.2       1 ALC1        0.0000 
     11 O          20.4280    4.8380   24.5160 O.2       7 ALL1        0.0000 
     12 O          22.0360    2.7660   23.6110 O.2       4 ALP1        0.0000 
     13 CA         16.7480    5.0190   26.9350 C.3       3 GLC5        0.0000 
     14 CA         17.1600    3.4380   25.5180 C.3       9 GLL5        0.0000 
     15 CA         16.3360    6.6000   28.3520 C.3       6 GLP5        0.0000 
     16 CA         16.4685    2.3645   24.3295 C.3       3 GLC5        0.0000 
     17 CA         15.7770    1.2910   23.1410 C.3       6 GLP5        0.0000 
     18 CA         15.5455   -0.3760   26.2810 C.3       3 GLC5        0.0000 
     19 CA         15.7220    1.7180   26.5030 C.3       9 GLL5        0.0000 
     20 CA         15.3690   -2.4700   26.0590 C.3       6 GLP5        0.0000 
     21 CA         15.7495    1.5045   24.8220 C.3       3 GLC5        0.0000 
     22 CA         15.7040    4.6040   27.9070 C.3       3 GLC5        0.0000 
     23 CA         15.0720    2.6080   27.4620 C.3       9 GLL5        0.0000 
     24 CA         10.4845   -1.1315   28.5060 C.3       3 GLC5        0.0000 
     25 CA         11.1000    0.9980   28.5230 C.3       9 GLL5        0.0000 
     26 CA          9.8690   -3.2610   28.4890 C.3       6 GLP5        0.0000 
     27 CA         12.4275    1.1545   24.8005 C.3       3 GLC5        0.0000 
     28 CA         12.6510    1.8590   26.7930 C.3       9 GLL5        0.0000 
     29 CA         12.2040    0.4500   22.8080 C.3       6 GLP5        0.0000 
     30 N           9.9015    0.8075   24.8705 N.am      2 SEC2        0.0000 
     31 N          10.4090    1.1500   26.2080 N.am      8 SEL2        0.0000 
     32 N           9.3940    0.4650   23.5330 N.am      5 SEP2        0.0000 
     33 O           9.2795    0.9490   26.8815 O.2       1 ALC1        0.0000 
     34 O          10.4090    1.1500   26.2080 O.2       7 ALL1        0.0000 
     35 O           8.1500    0.7480   27.5550 O.2       4 ALP1        0.0000 
     36 CA         23.6355    4.0280   23.3975 C.3       3 GLC5        0.0000 
     37 CA         22.5510    5.7410   23.9120 C.3       9 GLL5        0.0000 
     38 CA         24.7200    2.3150   22.8830 C.3       6 GLP5        0.0000 
     39 CA         16.0105    6.9050   20.6975 C.3       3 GLC5        0.0000 
     40 CA         16.2520    7.1620   22.7930 C.3       9 GLL5        0.0000 
     41 CA         15.7690    6.6480   18.6020 C.3       6 GLP5        0.0000 
     42 CA         19.4492    5.3053   26.3830 C.3       3 GLC5        0.0000 
     43 CA         20.0130    6.4900   27.7690 C.3       6 GLP5        0.0000 
     44 CA         18.2115    2.9265   27.4422 C.3       3 GLC5        0.0000 
     45 CA         18.5180    2.3690   29.4870 C.3       6 GLP5        0.0000 
     46 CA         17.7293    3.6867   23.3925 C.3       3 GLC5        0.0000 
     47 CA         16.5730    3.2530   21.7880 C.3       6 GLP5        0.0000 
     48 CA         16.9575    2.2660   28.2347 C.3       3 GLC5        0.0000 
     49 CA         11.8560    3.3602   28.1803 C.3       3 GLC5        0.0000 
     50 CA         13.6770    2.0520   27.8160 C.3       9 GLL5        0.0000 
     51 CA         10.5480    4.7650   29.0560 C.3       6 GLP5        0.0000 
     52 CA         13.8292    0.0998   29.2250 C.3       3 GLC5        0.0000 
     53 CA         14.1200   -1.6830   29.9460 C.3       6 GLP5        0.0000 
     54 CA         12.2447    2.9095   30.3085 C.3       3 GLC5        0.0000 
     55 CA         13.4000    1.7130   29.1920 C.3       9 GLL5        0.0000 
     56 CA         11.7380    4.3710   31.2480 C.3       6 GLP5        0.0000 
     57 CA         11.2278    0.3488   30.7877 C.3       3 GLC5        0.0000 
     58 CA         12.1030    1.1830   29.5460 C.3       9 GLL5        0.0000 
     59 CA         10.8540   -0.3930   32.5410 C.3       6 GLP5        0.0000 
     60 CA         12.8607   -0.2963   29.4903 C.3       3 GLC5        0.0000 
     61 CA         10.2470    2.5637   28.4355 C.3       3 GLC5        0.0000 
     62 CA          9.2610    3.9620   29.0340 C.3       6 GLP5        0.0000 
     63 CA         21.8422    6.8775   25.4902 C.3       3 GLC5        0.0000 
     64 CA         21.1460    5.7590   24.0730 C.3       9 GLL5        0.0000 
     65 CA         21.8360    8.0050   26.9880 C.3       6 GLP5        0.0000 
     66 CA         23.1450    5.3087   21.7940 C.3       3 GLC5        0.0000 
     67 CA         23.4070    4.3160   19.9200 C.3       6 GLP5        0.0000 
     68 CA         22.3413    7.7237   25.1227 C.3       3 GLC5        0.0000 
     69 CA         23.2150    6.8620   23.4240 C.3       9 GLL5        0.0000 
     70 CA         21.2897    7.7568   25.2348 C.3       3 GLC5        0.0000 
     71 CA         20.4090    6.9450   23.7270 C.3       9 GLL5        0.0000 
     72 CA         16.4551    4.9531   22.7011 C.3       3 GLC5        0.0000 
     73 CA         16.8940    5.6030   24.6160 C.3       9 GLL5        0.0000 
     74 CA         17.7743    8.6758   25.8458 C.3       3 GLC5        0.0000 
     75 CA         16.0690    7.9310   25.1540 C.3       9 GLL5        0.0000 
     76 CA         19.5030    8.8050   27.0080 C.3       6 GLP5        0.0000 
     77 CA         16.1737   10.1673   25.5057 C.3       3 GLC5        0.0000 
     78 CA         16.3020   11.7880   26.3280 C.3       6 GLP5        0.0000 
     79 CA         16.2909    6.8189   26.5734 C.3       3 GLC5        0.0000 
     80 CA         20.6572    6.2477   22.1723 C.3       3 GLC5        0.0000 
@<TRIPOS>BOND
@<TRIPOS>SUBSTRUCTURE
     1 ALC1       10 GROUP        1 X    ALC  0     ROOT ALC X 1
     2 SEC2        1 GROUP        1 X    SEC  0     **** SEC X 2
     3 GLC5        4 GROUP        1 X    GLC  0     **** GLC X 6
     4 ALP1       12 GROUP        1 Y    ALP  0     ROOT ALP Y 8
     5 SEP2        3 GROUP        1 Y    SEP  0     **** SEP Y 9
     6 GLP5        6 GROUP        1 Y    GLP  0     **** GLP Y 13
     7 ALL1       11 GROUP        1 Z    ALL  0     ROOT ALL Z 15
     8 SEL2        2 GROUP        1 Z    SEL  0     **** SEL Z 16
     9 GLL5        5 GROUP        1 Z    GLL  0     **** GLL Z 20
@<TRIPOS>SET

