#    Name: 2bdj_HET_1_ligand
#    Modification time : Mon Mar 24 20:31:06 2014

@<TRIPOS>MOLECULE
2bdj_HET_1_ligand
   64    68     1     0     0
SMALL
NO_CHARGES


@<TRIPOS>ATOM
      1 N9A        17.0690    2.1400   26.1050 N.pl3     1 HET800      0.0000 
      2 C8A        18.1970    1.4350   26.2480 C.2       1 HET800      0.0000 
      3 N7A        19.1170    2.2550   25.7630 N.2       1 HET800      0.0000 
      4 C5A        18.6500    3.5300   25.2770 C.ar      1 HET800      0.0000 
      5 C6A        19.1210    4.7110   24.7170 C.ar      1 HET800      0.0000 
      6 N6A        20.4280    4.8380   24.5160 N.pl3     1 HET800      0.0000 
      7 N1A        18.2230    5.6640   24.4230 N.ar      1 HET800      0.0000 
      8 C2A        16.8940    5.6030   24.6160 C.ar      1 HET800      0.0000 
      9 N3A        16.3710    4.4830   25.1720 N.ar      1 HET800      0.0000 
     10 C4A        17.1600    3.4380   25.5180 C.ar      1 HET800      0.0000 
     11 C1A        15.7220    1.7180   26.5030 C.3       1 HET800      0.0000 
     12 CT0        15.0720    2.6080   27.4620 C.3       1 HET800      0.0000 
     13 CT1        13.6770    2.0520   27.8160 C.ar      1 HET800      0.0000 
     14 CT2        13.4000    1.7130   29.1920 C.ar      1 HET800      0.0000 
     15 CT3        12.1030    1.1830   29.5460 C.ar      1 HET800      0.0000 
     16 CT4        11.1000    0.9980   28.5230 C.ar      1 HET800      0.0000 
     17 CT5        11.3660    1.3330   27.1510 C.ar      1 HET800      0.0000 
     18 CT6        12.6510    1.8590   26.7930 C.ar      1 HET800      0.0000 
     19 OH         10.4090    1.1500   26.2080 O.3       1 HET800      0.0000 
     20 CR1        21.1460    5.7590   24.0730 C.ar      1 HET800      0.0000 
     21 CR2        22.5510    5.7410   23.9120 C.ar      1 HET800      0.0000 
     22 CR3        23.2150    6.8620   23.4240 C.ar      1 HET800      0.0000 
     23 CR4        22.4780    8.0230   23.0910 C.ar      1 HET800      0.0000 
     24 CR5        21.0780    8.0720   23.2360 C.ar      1 HET800      0.0000 
     25 CR6        20.4090    6.9450   23.7270 C.ar      1 HET800      0.0000 
     26 PA         23.3330    9.4870   22.4770 P.3       1 HET800      0.0000 
     27 OA1        24.3630    9.7910   23.5950 O.2       1 HET800      0.0000 
     28 CA2        23.9430    8.9390   21.1580 C.3       1 HET800      0.0000 
     29 CA3        22.3830   10.6100   22.1840 C.3       1 HET800      0.0000 
     30 CS1        15.9510    6.6860   24.2550 C.3       1 HET800      0.0000 
     31 CS2        16.2520    7.1620   22.7930 C.3       1 HET800      0.0000 
     32 CS3        16.2990    8.6980   22.7830 C.3       1 HET800      0.0000 
     33 CS4        16.0220    9.1620   24.2130 C.3       1 HET800      0.0000 
     34 CS5        16.0690    7.9310   25.1540 C.3       1 HET800      0.0000 
     35 H          18.3012    0.5739   26.6045 H         1 HET800      0.0000 
     36 H          20.9977    3.8828   24.8232 H         1 HET800      0.0000 
     37 H          15.7708    0.6853   26.9281 H         1 HET800      0.0000 
     38 H          15.0822    1.6228   25.5914 H         1 HET800      0.0000 
     39 H          14.9401    3.6067   27.0473 H         1 HET800      0.0000 
     40 H          15.6474    2.6830   28.3839 H         1 HET800      0.0000 
     41 H          14.1039    1.8445   29.8990 H         1 HET800      0.0000 
     42 H          11.8990    0.9431   30.5042 H         1 HET800      0.0000 
     43 H          10.1876    0.6227   28.7823 H         1 HET800      0.0000 
     44 H          12.8597    2.1006   25.8342 H         1 HET800      0.0000 
     45 H          23.0734    4.8931   24.1589 H         1 HET800      0.0000 
     46 H          24.2296    6.8575   23.3029 H         1 HET800      0.0000 
     47 H          20.5658    8.9135   22.9872 H         1 HET800      0.0000 
     48 H          19.3955    6.9474   23.8462 H         1 HET800      0.0000 
     49 H          14.9359    6.3451   24.2675 H         1 HET800      0.0000 
     50 H          15.4648    6.8167   22.1502 H         1 HET800      0.0000 
     51 H          17.2029    6.7658   22.4914 H         1 HET800      0.0000 
     52 H          15.5387    9.0731   22.1275 H         1 HET800      0.0000 
     53 H          17.2745    9.0222   22.4802 H         1 HET800      0.0000 
     54 H          15.0424    9.6073   24.2688 H         1 HET800      0.0000 
     55 H          16.7772    9.8662   24.5208 H         1 HET800      0.0000 
     56 H          17.0044    7.9159   25.6677 H         1 HET800      0.0000 
     57 H          15.2403    7.9692   25.8255 H         1 HET800      0.0000 
     58 H          24.5988    9.5792   20.7580 H         1 HET800      0.0000 
     59 H          24.4270    8.0761   21.3031 H         1 HET800      0.0000 
     60 H          23.2408    8.7686   20.4667 H         1 HET800      0.0000 
     61 H          22.8593   11.4191   21.8398 H         1 HET800      0.0000 
     62 H          21.7057   10.3532   21.4946 H         1 HET800      0.0000 
     63 H          21.8783   10.8920   23.0000 H         1 HET800      0.0000 
     64 H           9.5750    1.5291   26.6088 H         1 HET800      0.0000 
@<TRIPOS>BOND
     1    2    1 1    
     2   10    1 1    
     3   11    1 1    
     4    3    2 2    
     5   35    2 1    
     6    4    3 1    
     7    5    4 ar   
     8   10    4 ar   
     9    6    5 1    
    10    7    5 ar   
    11   20    6 1    
    12   36    6 1    
    13    8    7 ar   
    14    9    8 ar   
    15   30    8 1    
    16   10    9 ar   
    17   12   11 1    
    18   37   11 1    
    19   38   11 1    
    20   13   12 1    
    21   39   12 1    
    22   40   12 1    
    23   14   13 ar   
    24   18   13 ar   
    25   15   14 ar   
    26   41   14 1    
    27   16   15 ar   
    28   42   15 1    
    29   17   16 ar   
    30   43   16 1    
    31   18   17 ar   
    32   19   17 1    
    33   44   18 1    
    34   64   19 1    
    35   21   20 ar   
    36   25   20 ar   
    37   22   21 ar   
    38   45   21 1    
    39   23   22 ar   
    40   46   22 1    
    41   24   23 ar   
    42   26   23 1    
    43   25   24 ar   
    44   47   24 1    
    45   48   25 1    
    46   27   26 2    
    47   28   26 1    
    48   29   26 1    
    49   58   28 1    
    50   59   28 1    
    51   60   28 1    
    52   61   29 1    
    53   62   29 1    
    54   63   29 1    
    55   31   30 1    
    56   34   30 1    
    57   49   30 1    
    58   32   31 1    
    59   50   31 1    
    60   51   31 1    
    61   33   32 1    
    62   52   32 1    
    63   53   32 1    
    64   34   33 1    
    65   54   33 1    
    66   55   33 1    
    67   56   34 1    
    68   57   34 1    
@<TRIPOS>SUBSTRUCTURE
     1 HET800      1 GROUP   
@<TRIPOS>SET

