#    Name: 4brn_AMP_2_INTS_M
#    Modification time : Tue Mar 25 08:20:08 2014

@<TRIPOS>MOLECULE
4brn_AMP_2_INTS_M
   66     0    15     0     0
SMALL
NO_CHARGES


@<TRIPOS>ATOM
      1 N           0.7590    0.5535    4.5030 N.am      2 SEC2        0.0000 
      2 N          -0.0070   -0.2070    5.5560 N.am     12 SEL2        0.0000 
      3 N           1.5250    1.3140    3.4500 N.am      7 SEP2        0.0000 
      4 N           1.4900   -0.1735    5.5510 N.am      2 SEC2        0.0000 
      5 N           2.9870   -0.1400    5.5460 N.am      7 SEP2        0.0000 
      6 N           0.4445   -0.9390    6.7730 N.am      2 SEC2        0.0000 
      7 N           0.8960   -1.6710    7.9900 N.am      7 SEP2        0.0000 
      8 NZ         -2.5135   -0.6320    2.9100 N.4       3 LYC4        0.0000 
      9 NZ         -2.1880   -0.6280    4.2640 N.4      13 LYL4        0.0000 
     10 NZ         -2.4490   -1.6970    0.7890 N.4       8 LYP4        0.0000 
     11 Zn         -2.8815   -0.0075    4.7580 Zn        4 ZIC7        0.0000 
     12 Zn         -2.1880   -0.6280    4.2640 Zn       14 ZIL7        0.0000 
     13 Zn         -3.5750    0.6130    5.2520 Zn        9 ZIP7        0.0000 
     14 N          -2.5135   -0.6320    2.9100 N.am      2 SEC2        0.0000 
     15 N          -2.1880   -0.6280    4.2640 N.am     12 SEL2        0.0000 
     16 N          -2.8390   -0.6360    1.5560 N.am      7 SEP2        0.0000 
     17 NZ         -0.7295   -2.0210    2.3145 N.4       3 LYC4        0.0000 
     18 NZ         -0.0220   -1.5590    3.5010 N.4      13 LYL4        0.0000 
     19 N           1.3065   -1.3005    3.0090 N.am      2 SEC2        0.0000 
     20 N          -0.0220   -1.5590    3.5010 N.am     12 SEL2        0.0000 
     21 N           2.6350   -1.0420    2.5170 N.am      7 SEP2        0.0000 
     22 N           0.6300   -2.6250    3.0350 N.am      2 SEC2        0.0000 
     23 N           1.2820   -3.6910    2.5690 N.am      7 SEP2        0.0000 
     24 N          -0.7295   -2.0210    2.3145 N.am      2 SEC2        0.0000 
     25 N          -1.4370   -2.4830    1.1280 N.am      7 SEP2        0.0000 
     26 N          -0.0450   -2.0285    6.8385 N.am      2 SEC2        0.0000 
     27 N          -0.9860   -2.3860    5.6870 N.am     12 SEL2        0.0000 
     28 CA         -2.0540   -6.1190    7.1915 C.3       5 GLC5        0.0000 
     29 CA         -0.8840   -4.7170    6.2940 C.3      15 GLL5        0.0000 
     30 CA         -3.2240   -7.5210    8.0890 C.3      10 GLP5        0.0000 
     31 CA          1.4555   -3.4535    7.0535 C.3       5 GLC5        0.0000 
     32 CA          0.5910   -4.8660    6.0970 C.3      15 GLL5        0.0000 
     33 CA          2.3200   -2.0410    8.0100 C.3      10 GLP5        0.0000 
     34 CA          1.6010   -8.1095    4.8510 C.3       5 GLC5        0.0000 
     35 CA          0.7060   -6.2240    5.4030 C.3      15 GLL5        0.0000 
     36 CA          2.4960   -9.9950    4.2990 C.3      10 GLP5        0.0000 
     37 N           2.2760   -7.7395    4.6905 N.am      2 SEC2        0.0000 
     38 N           1.9880   -6.7790    5.5160 N.am     12 SEL2        0.0000 
     39 N           2.5640   -8.7000    3.8650 N.am      7 SEP2        0.0000 
     40 CA         -1.8125   -7.2480    7.1200 C.3       5 GLC5        0.0000 
     41 CA         -0.4010   -6.9750    6.1510 C.3      15 GLL5        0.0000 
     42 CA          0.6050  -12.9130    5.8895 C.3       5 GLC5        0.0000 
     43 CA         -1.0450  -11.8230    5.9590 C.3      15 GLL5        0.0000 
     44 CA          2.2550  -14.0030    5.8200 C.3      10 GLP5        0.0000 
     45 O          -1.0770  -14.4910    5.8475 O.2       1 ALC1        0.0000 
     46 O          -1.2730  -12.9170    5.2490 O.2      11 ALL1        0.0000 
     47 O          -0.8810  -16.0650    6.4460 O.2       6 ALP1        0.0000 
     48 CA         -1.9665   -9.1900    8.0985 C.3       5 GLC5        0.0000 
     49 CA         -0.7090  -10.8590    8.1080 C.3      15 GLL5        0.0000 
     50 CA         -2.4840  -11.0160    6.7435 C.3       5 GLC5        0.0000 
     51 CA         -4.2590  -11.1730    5.3790 C.3      10 GLP5        0.0000 
     52 CA         -2.0145  -12.0530    9.1645 C.3       5 GLC5        0.0000 
     53 CA         -3.3200  -13.2470   10.2210 C.3      10 GLP5        0.0000 
     54 CA          0.5375  -11.1490    9.2680 C.3       5 GLC5        0.0000 
     55 CA          1.7840  -11.4390   10.4280 C.3      10 GLP5        0.0000 
     56 N           0.1755   -8.6855    8.4925 N.am      2 SEC2        0.0000 
     57 N          -0.6000   -9.6210    7.5490 N.am     12 SEL2        0.0000 
     58 N           0.9510   -7.7500    9.4360 N.am      7 SEP2        0.0000 
     59 CA         -1.9765   -8.4630    7.1635 C.3       5 GLC5        0.0000 
     60 CA         -0.7290   -9.4050    6.2380 C.3      15 GLL5        0.0000 
     61 CA         -1.2990   -2.8838    7.3507 C.3       5 GLC5        0.0000 
     62 CA         -1.3700   -1.5690    8.8690 C.3      10 GLP5        0.0000 
     63 CA          1.9712   -4.5550    4.9085 C.3       5 GLC5        0.0000 
     64 CA          3.2940   -3.5650    4.0670 C.3      10 GLP5        0.0000 
     65 CA         -2.5666  -10.7275    5.6576 C.3       5 GLC5        0.0000 
     66 CA         -0.9940  -10.4950    5.3100 C.3      15 GLL5        0.0000 
@<TRIPOS>BOND
@<TRIPOS>SUBSTRUCTURE
     1 ALC1       45 GROUP        1 X    ALC  0     ROOT ALC X 1
     2 SEC2        1 GROUP        1 X    SEC  0     **** SEC X 2
     3 LYC4        8 GROUP        1 X    LYC  0     **** LYC X 4
     4 ZIC7       11 GROUP        1 X    ZIC  0     **** ZIC X 5
     5 GLC5       28 GROUP        1 X    GLC  0     **** GLC X 6
     6 ALP1       47 GROUP        1 Y    ALP  0     ROOT ALP Y 8
     7 SEP2        3 GROUP        1 Y    SEP  0     **** SEP Y 9
     8 LYP4       10 GROUP        1 Y    LYP  0     **** LYP Y 11
     9 ZIP7       13 GROUP        1 Y    ZIP  0     **** ZIP Y 12
    10 GLP5       30 GROUP        1 Y    GLP  0     **** GLP Y 13
    11 ALL1       46 GROUP        1 Z    ALL  0     ROOT ALL Z 15
    12 SEL2        2 GROUP        1 Z    SEL  0     **** SEL Z 16
    13 LYL4        9 GROUP        1 Z    LYL  0     **** LYL Z 18
    14 ZIL7       12 GROUP        1 Z    ZIL  0     **** ZIL Z 19
    15 GLL5       29 GROUP        1 Z    GLL  0     **** GLL Z 20
@<TRIPOS>SET

