#    Name: 4brn_AMP_2_ligand
#    Modification time : Tue Mar 25 08:20:08 2014

@<TRIPOS>MOLECULE
4brn_AMP_2_ligand
   35    37     1     0     0
SMALL
NO_CHARGES


@<TRIPOS>ATOM
      1 P          -0.8180   -1.1200    4.6600 P.3       1 AMP1395     0.0000 
      2 O1P        -0.0070   -0.2070    5.5560 O.co2     1 AMP1395     0.0000 
      3 O2P        -2.1880   -0.6280    4.2640 O.co2     1 AMP1395     0.0000 
      4 O3P        -0.0220   -1.5590    3.5010 O.co2     1 AMP1395     0.0000 
      5 O5'        -0.9860   -2.3860    5.6870 O.3       1 AMP1395     0.0000 
      6 C5'        -1.5720   -3.6800    5.3710 C.3       1 AMP1395     0.0000 
      7 C4'        -0.8840   -4.7170    6.2940 C.3       1 AMP1395     0.0000 
      8 O4'        -1.4480   -6.0250    6.0070 O.3       1 AMP1395     0.0000 
      9 C3'         0.5910   -4.8660    6.0970 C.3       1 AMP1395     0.0000 
     10 O3'         1.2100   -4.8390    7.3770 O.3       1 AMP1395     0.0000 
     11 C2'         0.7060   -6.2240    5.4030 C.3       1 AMP1395     0.0000 
     12 O2'         1.9880   -6.7790    5.5160 O.3       1 AMP1395     0.0000 
     13 C1'        -0.4010   -6.9750    6.1510 C.3       1 AMP1395     0.0000 
     14 N9         -0.7080   -8.2970    5.4970 N.pl3     1 AMP1395     0.0000 
     15 C8         -0.9070   -8.6010    4.1790 C.2       1 AMP1395     0.0000 
     16 N7         -1.0800   -9.9680    4.0920 N.2       1 AMP1395     0.0000 
     17 C5         -0.9940  -10.4950    5.3100 C.ar      1 AMP1395     0.0000 
     18 C6         -1.0450  -11.8230    5.9590 C.ar      1 AMP1395     0.0000 
     19 N6         -1.2730  -12.9170    5.2490 N.pl3     1 AMP1395     0.0000 
     20 N1         -0.9330  -11.9310    7.3220 N.ar      1 AMP1395     0.0000 
     21 C2         -0.7090  -10.8590    8.1080 C.ar      1 AMP1395     0.0000 
     22 N3         -0.6000   -9.6210    7.5490 N.ar      1 AMP1395     0.0000 
     23 C4         -0.7290   -9.4050    6.2380 C.ar      1 AMP1395     0.0000 
     24 H          -1.3811   -3.9666    4.3494 H         1 AMP1395     0.0000 
     25 H          -2.6298   -3.7012    5.5783 H         1 AMP1395     0.0000 
     26 H          -1.0905   -4.4600    7.3178 H         1 AMP1395     0.0000 
     27 H           0.9225   -4.1150    5.4385 H         1 AMP1395     0.0000 
     28 H           0.3570   -6.0779    4.3983 H         1 AMP1395     0.0000 
     29 H          -0.1006   -7.0785    7.1507 H         1 AMP1395     0.0000 
     30 H          -0.9244   -7.9906    3.4518 H         1 AMP1395     0.0000 
     31 H          -1.3781  -12.7877    4.2630 H         1 AMP1395     0.0000 
     32 H          -1.3194  -13.7735    5.7631 H         1 AMP1395     0.0000 
     33 H          -0.6188  -10.9692    9.1367 H         1 AMP1395     0.0000 
     34 H           1.8547   -5.6034    7.3687 H         1 AMP1395     0.0000 
     35 H           2.5493   -6.2684    4.8646 H         1 AMP1395     0.0000 
@<TRIPOS>BOND
     1    2    1 ar   
     2    3    1 ar   
     3    4    1 ar   
     4    5    1 1    
     5    6    5 1    
     6    7    6 1    
     7   24    6 1    
     8   25    6 1    
     9    8    7 1    
    10    9    7 1    
    11   26    7 1    
    12   13    8 1    
    13   10    9 1    
    14   11    9 1    
    15   27    9 1    
    16   34   10 1    
    17   12   11 1    
    18   13   11 1    
    19   28   11 1    
    20   35   12 1    
    21   14   13 1    
    22   29   13 1    
    23   15   14 1    
    24   23   14 1    
    25   16   15 2    
    26   30   15 1    
    27   17   16 1    
    28   18   17 ar   
    29   23   17 ar   
    30   19   18 1    
    31   20   18 ar   
    32   31   19 1    
    33   32   19 1    
    34   21   20 ar   
    35   22   21 ar   
    36   33   21 1    
    37   23   22 ar   
@<TRIPOS>SUBSTRUCTURE
     1 AMP1395     1 GROUP   
@<TRIPOS>SET

