#    Name: 3v4e_COA_1_INTS_M
#    Modification time : Mon Mar 24 23:57:21 2014

@<TRIPOS>MOLECULE
3v4e_COA_1_INTS_M
   93     0    12     0     0
SMALL
NO_CHARGES


@<TRIPOS>ATOM
      1 CA          6.0945    3.6170   15.1120 C.3       4 GLC5        0.0000 
      2 CA          7.9710    3.6940   14.1840 C.3      12 GLL5        0.0000 
      3 CA          4.2180    3.5400   16.0400 C.3       8 GLP5        0.0000 
      4 CA          7.0645    5.4185   15.0075 C.3       4 GLC5        0.0000 
      5 CA          6.1580    7.1430   15.8310 C.3       8 GLP5        0.0000 
      6 CA          9.6115    2.7415   14.5935 C.3       4 GLC5        0.0000 
      7 CA         11.2520    1.7890   15.0030 C.3       8 GLP5        0.0000 
      8 CA          9.5720    3.7965   12.6985 C.3       4 GLC5        0.0000 
      9 CA         11.1730    3.8990   11.2130 C.3       8 GLP5        0.0000 
     10 CA          9.5385    2.2165   15.6295 C.3       4 GLC5        0.0000 
     11 CA          7.8250    2.6440   16.2560 C.3      12 GLL5        0.0000 
     12 CA          5.1125    0.5920   14.4385 C.3       4 GLC5        0.0000 
     13 CA          7.0480    1.5090   14.2260 C.3      12 GLL5        0.0000 
     14 CA          3.1770   -0.3250   14.6510 C.3       8 GLP5        0.0000 
     15 CA          5.4400    2.2860   13.2250 C.3       4 GLC5        0.0000 
     16 CA          3.8320    3.0630   12.2240 C.3       8 GLP5        0.0000 
     17 O           6.3440    0.4320   12.1500 O.2       1 ALC1        0.0000 
     18 O           6.5410    0.4120   13.6090 O.2       9 ALL1        0.0000 
     19 O           6.1470    0.4520   10.6910 O.2       5 ALP1        0.0000 
     20 CA          5.5830    3.5855   18.5465 C.3       4 GLC5        0.0000 
     21 CA          7.4840    3.6570   19.6290 C.3      12 GLL5        0.0000 
     22 CA          3.6820    3.5140   17.4640 C.3       8 GLP5        0.0000 
     23 N           5.3745    4.8070   18.7145 N.am      2 SEC2        0.0000 
     24 N           6.7250    4.8500   19.3640 N.am     10 SEL2        0.0000 
     25 N           4.0240    4.7640   18.0650 N.am      6 SEP2        0.0000 
     26 NZ          6.6855    6.6130   23.0845 N.4       3 LYC4        0.0000 
     27 NZ          7.8160    5.5180   23.3870 N.4      11 LYL4        0.0000 
     28 NZ          5.5550    7.7080   22.7820 N.4       7 LYP4        0.0000 
     29 NZ         11.4820   -2.0830   22.0755 N.4       3 LYC4        0.0000 
     30 NZ         10.4910   -1.3600   21.6940 N.4      11 LYL4        0.0000 
     31 NZ         12.4880   -4.1290   22.6780 N.4       7 LYP4        0.0000 
     32 N          11.4820   -2.0830   22.0755 N.am      2 SEC2        0.0000 
     33 N          10.4910   -1.3600   21.6940 N.am     10 SEL2        0.0000 
     34 N          12.4730   -2.8060   22.4570 N.am      6 SEP2        0.0000 
     35 CA          8.2580   -2.6100   14.4155 C.3       4 GLC5        0.0000 
     36 CA          8.0760   -2.5370   16.5100 C.3      12 GLL5        0.0000 
     37 CA          8.4400   -2.6830   12.3210 C.3       8 GLP5        0.0000 
     38 CA          9.7515   -3.5575   16.5090 C.3       4 GLC5        0.0000 
     39 CA         11.4270   -4.5780   16.5080 C.3       8 GLP5        0.0000 
     40 CA          9.3165   -1.5925   15.6800 C.3       4 GLC5        0.0000 
     41 CA         10.5570   -0.6480   14.8500 C.3       8 GLP5        0.0000 
     42 CA          6.9875   -6.8580   15.7085 C.3       4 GLC5        0.0000 
     43 CA          7.3040   -4.7920   15.8050 C.3      12 GLL5        0.0000 
     44 CA          6.6710   -8.9240   15.6120 C.3       8 GLP5        0.0000 
     45 CA          8.6745   -6.1080   15.0765 C.3       4 GLC5        0.0000 
     46 CA         10.0450   -7.4240   14.3480 C.3       8 GLP5        0.0000 
     47 CA          7.8720   -3.7375   14.0630 C.3       4 GLC5        0.0000 
     48 CA          9.3655   -4.6850   16.1565 C.3       4 GLC5        0.0000 
     49 CA          4.4190   -1.5855   15.2740 C.3       4 GLC5        0.0000 
     50 CA          5.6610   -2.8460   15.8970 C.3      12 GLL5        0.0000 
     51 N           6.0390   -2.3460   12.8960 N.am      2 SEC2        0.0000 
     52 N           5.7760   -2.4210   14.4950 N.am     10 SEL2        0.0000 
     53 N           6.3020   -2.2710   11.2970 N.am      6 SEP2        0.0000 
     54 CA          4.6485   -5.6410   11.9870 C.3       4 GLC5        0.0000 
     55 CA          3.9330   -5.5060   14.0980 C.3      12 GLL5        0.0000 
     56 CA          5.3640   -5.7760    9.8760 C.3       8 GLP5        0.0000 
     57 CA          1.3775   -4.1895   15.0100 C.3       4 GLC5        0.0000 
     58 CA          2.6480   -4.8180   13.6750 C.3      12 GLL5        0.0000 
     59 CA          0.1070   -3.5610   16.3450 C.3       8 GLP5        0.0000 
     60 CA          3.3055   -3.3100   12.2820 C.3       4 GLC5        0.0000 
     61 CA          3.9630   -1.8020   10.8890 C.3       8 GLP5        0.0000 
     62 N           3.0765   -4.9025    9.9410 N.am      2 SEC2        0.0000 
     63 N           2.6280   -4.9400   11.3510 N.am     10 SEL2        0.0000 
     64 N           3.5250   -4.8650    8.5310 N.am      6 SEP2        0.0000 
     65 O           1.0565   -7.2635   13.7615 O.2       1 ALC1        0.0000 
     66 O           1.4430   -6.5120   12.3810 O.2       9 ALL1        0.0000 
     67 O           0.6700   -8.0150   15.1420 O.2       5 ALP1        0.0000 
     68 CA         -0.7360   -7.6735   11.0930 C.3       4 GLC5        0.0000 
     69 CA          0.9850   -7.0330   11.1020 C.3      12 GLL5        0.0000 
     70 CA         -2.4570   -8.3140   11.0840 C.3       8 GLP5        0.0000 
     71 CA         -0.1470   -5.4230   10.8895 C.3       4 GLC5        0.0000 
     72 CA         -1.2790   -3.8130   10.6770 C.3       8 GLP5        0.0000 
     73 CA         -0.0660   -8.1720    9.9700 C.3       4 GLC5        0.0000 
     74 CA          1.9610   -8.1250   10.6150 C.3      12 GLL5        0.0000 
     75 CA         -2.0930   -8.2190    9.3250 C.3       8 GLP5        0.0000 
     76 CA          2.7045   -8.3605    8.5600 C.3       4 GLC5        0.0000 
     77 CA          3.4480   -8.5960    6.5050 C.3       8 GLP5        0.0000 
     78 CA          1.3700   -7.7115    8.5800 C.3       4 GLC5        0.0000 
     79 CA          0.7790   -7.2980    6.5450 C.3       8 GLP5        0.0000 
     80 CA          3.6625   -6.9505   10.2455 C.3       4 GLC5        0.0000 
     81 CA         -0.3475   -8.9025   11.4325 C.3       4 GLC5        0.0000 
     82 CA          1.7620   -9.4910   11.7810 C.3      12 GLL5        0.0000 
     83 CA          0.2510   -9.7540   12.9365 C.3       4 GLC5        0.0000 
     84 CA         -1.2600  -10.0170   14.0920 C.3       8 GLP5        0.0000 
     85 CA          2.5375  -10.6715   12.7110 C.3       4 GLC5        0.0000 
     86 CA          3.3130  -11.8520   13.6410 C.3       8 GLP5        0.0000 
     87 CA          8.9620    1.0765   14.5010 C.3       4 GLC5        0.0000 
     88 CA          7.2540    1.4510   15.6360 C.3      12 GLL5        0.0000 
     89 CA         10.7730    0.6730   14.0710 C.3       8 GLP5        0.0000 
     90 CA          5.7559    2.6591   15.5630 C.3       4 GLC5        0.0000 
     91 CA          4.0448   -6.9350   13.9647 C.3       4 GLC5        0.0000 
     92 CA          4.7990   -8.7080   14.0430 C.3       8 GLP5        0.0000 
     93 CA          3.3303   -8.7580   12.6205 C.3       4 GLC5        0.0000 
@<TRIPOS>BOND
@<TRIPOS>SUBSTRUCTURE
     1 ALC1       17 GROUP        1 X    ALC  0     ROOT ALC X 1
     2 SEC2       23 GROUP        1 X    SEC  0     **** SEC X 2
     3 LYC4       26 GROUP        1 X    LYC  0     **** LYC X 4
     4 GLC5        1 GROUP        1 X    GLC  0     **** GLC X 6
     5 ALP1       19 GROUP        1 Y    ALP  0     ROOT ALP Y 8
     6 SEP2       25 GROUP        1 Y    SEP  0     **** SEP Y 9
     7 LYP4       28 GROUP        1 Y    LYP  0     **** LYP Y 11
     8 GLP5        3 GROUP        1 Y    GLP  0     **** GLP Y 13
     9 ALL1       18 GROUP        1 Z    ALL  0     ROOT ALL Z 15
    10 SEL2       24 GROUP        1 Z    SEL  0     **** SEL Z 16
    11 LYL4       27 GROUP        1 Z    LYL  0     **** LYL Z 18
    12 GLL5        2 GROUP        1 Z    GLL  0     **** GLL Z 20
@<TRIPOS>SET

