#    Name: 3v4e_COA_1_ligand
#    Modification time : Mon Mar 24 23:57:22 2014

@<TRIPOS>MOLECULE
3v4e_COA_1_ligand
   79    81     1     0     0
SMALL
NO_CHARGES


@<TRIPOS>ATOM
      1 N1A         7.4440    2.6210   13.5710 N.ar      1 COA202      0.0000 
      2 C2A         7.9710    3.6940   14.1840 C.ar      1 COA202      0.0000 
      3 N3A         8.1470    3.7200   15.5070 N.ar      1 COA202      0.0000 
      4 C4A         7.8250    2.6440   16.2560 C.ar      1 COA202      0.0000 
      5 C5A         7.2540    1.4510   15.6360 C.ar      1 COA202      0.0000 
      6 C6A         7.0480    1.5090   14.2260 C.ar      1 COA202      0.0000 
      7 N6A         6.5410    0.4120   13.6090 N.pl3     1 COA202      0.0000 
      8 N7A         7.0210    0.5530   16.6050 N.2       1 COA202      0.0000 
      9 C8A         7.4140    1.1180   17.7730 C.2       1 COA202      0.0000 
     10 N9A         7.8760    2.3740   17.5380 N.pl3     1 COA202      0.0000 
     11 C1B         8.4340    3.3350   18.4920 C.3       1 COA202      0.0000 
     12 C2B         7.4840    3.6570   19.6290 C.3       1 COA202      0.0000 
     13 O2B         6.7250    4.8500   19.3640 O.3       1 COA202      0.0000 
     14 C3B         8.4370    3.7970   20.8050 C.3       1 COA202      0.0000 
     15 O3B         8.6460    5.1600   21.1080 O.3       1 COA202      0.0000 
     16 P3B         9.1040    5.6070   22.5980 P.3       1 COA202      0.0000 
     17 O7A         7.8160    5.5180   23.3870 O.co2     1 COA202      0.0000 
     18 O8A        10.1840    4.6230   23.0200 O.co2     1 COA202      0.0000 
     19 O9A         9.5960    7.0200   22.3560 O.co2     1 COA202      0.0000 
     20 C4B         9.7670    3.1630   20.3930 C.3       1 COA202      0.0000 
     21 O4B         9.6100    2.7400   19.0300 O.3       1 COA202      0.0000 
     22 C5B        10.1890    1.9760   21.2560 C.3       1 COA202      0.0000 
     23 O5B        10.0040    0.7660   20.5200 O.3       1 COA202      0.0000 
     24 P1A         9.3260   -0.5480   21.1710 P.3       1 COA202      0.0000 
     25 O1A         8.1640   -0.1700   22.0660 O.co2     1 COA202      0.0000 
     26 O2A        10.4910   -1.3600   21.6940 O.co2     1 COA202      0.0000 
     27 O3A         8.6620   -1.3370   19.9330 O.3       1 COA202      0.0000 
     28 P2A         7.6830   -2.6140   20.1480 P.3       1 COA202      0.0000 
     29 O4A         8.3810   -3.5230   21.1320 O.co2     1 COA202      0.0000 
     30 O5A         6.2570   -2.1480   20.3520 O.co2     1 COA202      0.0000 
     31 O6A         7.7540   -3.4080   18.7400 O.3       1 COA202      0.0000 
     32 CBP         6.9110   -3.5040   16.5400 C.3       1 COA202      0.0000 
     33 CCP         6.6260   -3.8580   17.9980 C.3       1 COA202      0.0000 
     34 CDP         8.0760   -2.5370   16.5100 C.3       1 COA202      0.0000 
     35 CEP         7.3040   -4.7920   15.8050 C.3       1 COA202      0.0000 
     36 CAP         5.6610   -2.8460   15.8970 C.3       1 COA202      0.0000 
     37 OAP         5.7760   -2.4210   14.4950 O.3       1 COA202      0.0000 
     38 C9P         4.6180   -3.8770   15.7260 C.2       1 COA202      0.0000 
     39 O9P         3.6700   -4.0470   16.4810 O.2       1 COA202      0.0000 
     40 N8P         4.8360   -4.5490   14.6400 N.am      1 COA202      0.0000 
     41 C7P         3.9330   -5.5060   14.0980 C.3       1 COA202      0.0000 
     42 C6P         2.6480   -4.8180   13.6750 C.3       1 COA202      0.0000 
     43 C5P         2.2420   -5.4590   12.3760 C.2       1 COA202      0.0000 
     44 O5P         2.6280   -4.9400   11.3510 O.2       1 COA202      0.0000 
     45 N4P         1.4430   -6.5120   12.3810 N.am      1 COA202      0.0000 
     46 C3P         0.9850   -7.0330   11.1020 C.3       1 COA202      0.0000 
     47 C2P         1.9610   -8.1250   10.6150 C.3       1 COA202      0.0000 
     48 S1P         1.7620   -9.4910   11.7810 S.3       1 COA202      0.0000 
     49 H           8.2498    4.5301   13.6055 H         1 COA202      0.0000 
     50 H           6.4667    0.4623   12.6131 H         1 COA202      0.0000 
     51 H           6.2865   -0.3497   14.2049 H         1 COA202      0.0000 
     52 H           7.3725    0.6924   18.6437 H         1 COA202      0.0000 
     53 H           8.6852    4.2525   17.9813 H         1 COA202      0.0000 
     54 H           6.8775    2.7940   19.7978 H         1 COA202      0.0000 
     55 H           8.0469    3.2433   21.6295 H         1 COA202      0.0000 
     56 H          10.5333    3.9287   20.4504 H         1 COA202      0.0000 
     57 H           9.5844    1.9934   22.1683 H         1 COA202      0.0000 
     58 H          11.2359    2.1234   21.5395 H         1 COA202      0.0000 
     59 H           5.7143   -3.3553   18.2925 H         1 COA202      0.0000 
     60 H           6.4937   -4.9299   18.0625 H         1 COA202      0.0000 
     61 H           5.2793   -2.0754   16.4999 H         1 COA202      0.0000 
     62 H           5.7352   -4.4135   14.0782 H         1 COA202      0.0000 
     63 H           3.6752   -6.2821   14.8305 H         1 COA202      0.0000 
     64 H           4.3533   -6.0079   13.2166 H         1 COA202      0.0000 
     65 H           2.8326   -3.7715   13.5279 H         1 COA202      0.0000 
     66 H           1.8920   -4.9807   14.4185 H         1 COA202      0.0000 
     67 H           1.1221   -6.9889   13.2213 H         1 COA202      0.0000 
     68 H           0.9520   -6.2519   10.3430 H         1 COA202      0.0000 
     69 H          -0.0040   -7.4825   11.1866 H         1 COA202      0.0000 
     70 H           2.9613   -7.8662   10.7288 H         1 COA202      0.0000 
     71 H           1.6852   -8.5516    9.7081 H         1 COA202      0.0000 
     72 H           8.8982   -2.9333   16.9186 H         1 COA202      0.0000 
     73 H           8.3127   -2.2695   15.5760 H         1 COA202      0.0000 
     74 H           7.8743   -1.6968   17.0133 H         1 COA202      0.0000 
     75 H           7.5066   -4.6222   14.8406 H         1 COA202      0.0000 
     76 H           8.1171   -5.2147   16.2053 H         1 COA202      0.0000 
     77 H           6.5738   -5.4745   15.8354 H         1 COA202      0.0000 
     78 H           7.0068    5.4983   20.0713 H         1 COA202      0.0000 
     79 H           4.8639   -2.0938   14.2483 H         1 COA202      0.0000 
@<TRIPOS>BOND
     1    2    1 ar   
     2    6    1 ar   
     3    3    2 ar   
     4   49    2 1    
     5    4    3 ar   
     6    5    4 ar   
     7   10    4 1    
     8    6    5 ar   
     9    8    5 1    
    10    7    6 1    
    11   50    7 1    
    12   51    7 1    
    13    9    8 2    
    14   10    9 1    
    15   52    9 1    
    16   11   10 1    
    17   12   11 1    
    18   21   11 1    
    19   53   11 1    
    20   13   12 1    
    21   14   12 1    
    22   54   12 1    
    23   78   13 1    
    24   15   14 1    
    25   20   14 1    
    26   55   14 1    
    27   16   15 1    
    28   17   16 ar   
    29   18   16 ar   
    30   19   16 ar   
    31   21   20 1    
    32   22   20 1    
    33   56   20 1    
    34   23   22 1    
    35   57   22 1    
    36   58   22 1    
    37   24   23 1    
    38   25   24 ar   
    39   26   24 ar   
    40   27   24 1    
    41   28   27 1    
    42   29   28 ar   
    43   30   28 ar   
    44   31   28 1    
    45   33   31 1    
    46   33   32 1    
    47   34   32 1    
    48   35   32 1    
    49   36   32 1    
    50   59   33 1    
    51   60   33 1    
    52   72   34 1    
    53   73   34 1    
    54   74   34 1    
    55   75   35 1    
    56   76   35 1    
    57   77   35 1    
    58   37   36 1    
    59   38   36 1    
    60   61   36 1    
    61   79   37 1    
    62   39   38 2    
    63   40   38 am   
    64   41   40 1    
    65   62   40 1    
    66   42   41 1    
    67   63   41 1    
    68   64   41 1    
    69   43   42 1    
    70   65   42 1    
    71   66   42 1    
    72   44   43 2    
    73   45   43 am   
    74   46   45 1    
    75   67   45 1    
    76   47   46 1    
    77   68   46 1    
    78   69   46 1    
    79   48   47 1    
    80   70   47 1    
    81   71   47 1    
@<TRIPOS>SUBSTRUCTURE
     1 COA202      1 GROUP   
@<TRIPOS>SET

