#    Name: 1NW4_3_CAVITY_N1_6.mol2
#    Modification time : Mon Mar 10 20:28:54 2014

@<TRIPOS>MOLECULE
1NW4_3_CAVITY_N1_6.mol2
  113     0     7     0     0
SMALL
NO_CHARGES


@<TRIPOS>ATOM
      1 NZ         49.6308   11.2039  120.2530 N.2       4 LYS4        0.0000 
      2 NZ         50.1236    9.8611  120.7048 N.2       4 LYS4        0.0000 
      3 NZ         45.6397   11.8837  116.6670 N.2       4 LYS4        0.0000 
      4 CZ         44.1451   12.5578  115.3210 C.ar      5 PHE5        0.0000 
      5 NZ         44.6380   11.2151  115.7728 N.2       4 LYS4        0.0000 
      6 NZ         45.1309    9.8724  116.2246 N.2       4 LYS4        0.0000 
      7 CZ         42.6505   13.2320  113.9751 C.ar      5 PHE5        0.0000 
      8 CZ         43.1434   11.8893  114.4269 C.ar      5 PHE5        0.0000 
      9 N          43.6362   10.5465  114.8787 N.2       2 ALA2        0.0000 
     10 CA         41.1558   13.9062  112.6292 C.3       6 GLY6        0.0000 
     11 CA         41.6487   12.5635  113.0810 C.3       6 GLY6        0.0000 
     12 CZ         50.6485   14.5500  119.1272 C.ar      5 PHE5        0.0000 
     13 CZ         51.1414   13.2072  119.5790 C.ar      5 PHE5        0.0000 
     14 N          51.6343   11.8645  120.0308 N.2       2 ALA2        0.0000 
     15 N          52.1272   10.5218  120.4825 N.2       2 ALA2        0.0000 
     16 CZ         50.1397   12.5387  118.6848 C.ar      5 PHE5        0.0000 
     17 NZ         50.6325   11.1959  119.1366 N.2       4 LYS4        0.0000 
     18 DU         51.1254    9.8532  119.5884 H         7 CUB7        0.0000 
     19 CA         51.6183    8.5105  120.0402 C.3       6 GLY6        0.0000 
     20 NZ         49.1379   11.8701  117.7907 N.2       4 LYS4        0.0000 
     21 NZ         49.6308   10.5274  118.2425 N.2       4 LYS4        0.0000 
     22 OG         50.1237    9.1846  118.6942 O.2       1 SER1        0.0000 
     23 OG         50.6165    7.8419  119.1460 O.2       1 SER1        0.0000 
     24 CA         51.1094    6.4991  119.5978 C.3       6 GLY6        0.0000 
     25 CZ         43.1433   12.5658  116.4375 C.ar      5 PHE5        0.0000 
     26 NZ         43.6362   11.2230  116.8892 N.2       4 LYS4        0.0000 
     27 CA         51.6344    9.1586  111.9885 C.3       6 GLY6        0.0000 
     28 O          52.1273    7.8159  112.4403 O.2       2 ALA2        0.0000 
     29 CA         52.6201    6.4731  112.8921 C.3       6 GLY6        0.0000 
     30 N          54.6396   12.5172  118.6921 N.2       2 ALA2        0.0000 
     31 CA         53.1450   13.1914  117.3461 C.3       6 GLY6        0.0000 
     32 O          53.6379   11.8487  117.7979 O.2       2 ALA2        0.0000 
     33 O          54.1307   10.5059  118.2497 O.2       2 ALA2        0.0000 
     34 CA         52.1432   12.5229  116.4520 C.3       6 GLY6        0.0000 
     35 O          52.6361   11.1801  116.9038 O.2       2 ALA2        0.0000 
     36 O          53.1130    6.4833  117.3650 O.2       2 ALA2        0.0000 
     37 N          50.1397   11.1857  114.6637 N.2       2 ALA2        0.0000 
     38 O          50.6326    9.8430  115.1155 O.2       2 ALA2        0.0000 
     39 O          52.1112    5.8148  116.4708 O.2       2 ALA2        0.0000 
     40 CZ         49.1380   10.5172  113.7695 C.ar      5 PHE5        0.0000 
     41 OG         49.6308    9.1744  114.2213 O.2       1 SER1        0.0000 
     42 OG         50.1237    7.8317  114.6731 O.2       1 SER1        0.0000 
     43 OG         50.6166    6.4889  115.1249 O.2       1 SER1        0.0000 
     44 O          51.1095    5.1462  115.5767 O.2       2 ALA2        0.0000 
     45 CA         51.6023    3.8035  116.0285 C.3       6 GLY6        0.0000 
     46 CA         47.6433   11.1914  112.4236 C.3       6 GLY6        0.0000 
     47 CA         48.1362    9.8486  112.8754 C.3       6 GLY6        0.0000 
     48 DU         48.6291    8.5059  113.3272 H         7 CUB7        0.0000 
     49 N          49.1220    7.1631  113.7789 N.2       2 ALA2        0.0000 
     50 O          49.6148    5.8204  114.2307 O.2       2 ALA2        0.0000 
     51 CA         47.1344    9.1801  111.9812 C.3       6 GLY6        0.0000 
     52 O          47.6273    7.8373  112.4330 O.2       2 ALA2        0.0000 
     53 O          48.1202    6.4946  112.8848 O.2       2 ALA2        0.0000 
     54 O          54.1148    6.4754  116.2486 O.2       2 ALA2        0.0000 
     55 N          51.1415   11.1778  113.5473 N.2       2 ALA2        0.0000 
     56 OD1        51.6344    9.8351  113.9991 O.3       3 ASP3        0.0000 
     57 O          53.1130    5.8068  115.3544 O.2       2 ALA2        0.0000 
     58 O          53.6059    4.4641  115.8062 O.2       2 ALA2        0.0000 
     59 CA         50.1397   10.5093  112.6531 C.3       6 GLY6        0.0000 
     60 CA         50.6326    9.1665  113.1049 C.3       6 GLY6        0.0000 
     61 O          51.1255    7.8238  113.5567 O.2       2 ALA2        0.0000 
     62 O          51.6184    6.4810  114.0085 O.2       2 ALA2        0.0000 
     63 CA         52.1112    5.1383  114.4603 C.3       6 GLY6        0.0000 
     64 CA         49.1380    9.8407  111.7590 C.3       6 GLY6        0.0000 
     65 NZ         49.6309    8.4980  112.2107 N.2       4 LYS4        0.0000 
     66 NZ         50.1237    7.1552  112.6625 N.2       4 LYS4        0.0000 
     67 O          50.6166    5.8125  113.1143 O.2       2 ALA2        0.0000 
     68 NZ         48.6291    7.8294  111.3166 N.2       4 LYS4        0.0000 
     69 CZ         46.6415   11.8757  115.5506 C.ar      5 PHE5        0.0000 
     70 NZ         47.1344   10.5330  116.0024 N.2       4 LYS4        0.0000 
     71 OG         47.6273    9.1903  116.4541 O.2       1 SER1        0.0000 
     72 CZ         45.6398   11.2072  114.6564 C.ar      5 PHE5        0.0000 
     73 CA         46.1326    9.8644  115.1082 C.3       6 GLY6        0.0000 
     74 N          46.6255    8.5217  115.5600 N.2       2 ALA2        0.0000 
     75 CZ         43.1594   14.5669  112.4069 C.ar      5 PHE5        0.0000 
     76 CZ         43.6523   13.2241  112.8587 C.ar      5 PHE5        0.0000 
     77 CZ         44.1451   11.8814  113.3105 C.ar      5 PHE5        0.0000 
     78 N          44.6380   10.5386  113.7623 N.2       2 ALA2        0.0000 
     79 N          45.1309    9.1959  114.2140 N.2       2 ALA2        0.0000 
     80 N          42.1576   13.8983  111.5128 N.2       2 ALA2        0.0000 
     81 CA         42.6505   12.5555  111.9645 C.3       6 GLY6        0.0000 
     82 CA         43.1434   11.2128  112.4163 C.3       6 GLY6        0.0000 
     83 CA         40.6630   14.5725  110.1668 C.3       6 GLY6        0.0000 
     84 N          53.1450   13.8679  119.3567 N.2       2 ALA2        0.0000 
     85 N          53.6378   12.5252  119.8085 N.2       2 ALA2        0.0000 
     86 N          51.6503   14.5421  118.0108 N.2       2 ALA2        0.0000 
     87 N          52.1432   13.1993  118.4626 N.2       2 ALA2        0.0000 
     88 DU         52.6361   11.8566  118.9143 H         7 CUB7        0.0000 
     89 O          53.1290   10.5138  119.3661 O.2       2 ALA2        0.0000 
     90 N          50.6486   13.8735  117.1166 N.2       2 ALA2        0.0000 
     91 N          51.1414   12.5308  117.5684 N.2       2 ALA2        0.0000 
     92 O          51.6343   11.1880  118.0202 O.2       2 ALA2        0.0000 
     93 O          52.1272    9.8453  118.4720 O.2       2 ALA2        0.0000 
     94 O          52.6201    8.5025  118.9238 O.2       2 ALA2        0.0000 
     95 N          50.1397   11.8622  116.6743 N.2       2 ALA2        0.0000 
     96 O          50.6326   10.5195  117.1260 O.2       2 ALA2        0.0000 
     97 O          52.1112    6.4912  118.4814 O.2       2 ALA2        0.0000 
     98 CZ         49.1379   11.1937  115.7801 C.ar      5 PHE5        0.0000 
     99 OG         49.6308    9.8509  116.2319 O.2       1 SER1        0.0000 
    100 OG         51.1094    5.8227  117.5872 O.2       1 SER1        0.0000 
    101 CZ         48.1362   10.5251  114.8859 C.ar      5 PHE5        0.0000 
    102 OG         48.6291    9.1823  115.3377 O.2       1 SER1        0.0000 
    103 CZ         46.6415   11.1993  113.5400 C.ar      5 PHE5        0.0000 
    104 CZ         47.1344    9.8565  113.9918 C.ar      5 PHE5        0.0000 
    105 N          47.6273    8.5138  114.4436 N.2       2 ALA2        0.0000 
    106 CZ         44.6540   13.2162  111.7423 C.ar      5 PHE5        0.0000 
    107 CZ         45.1469   11.8735  112.1941 C.ar      5 PHE5        0.0000 
    108 CA         45.6398   10.5307  112.6459 C.3       6 GLY6        0.0000 
    109 CA         46.1327    9.1880  113.0976 C.3       6 GLY6        0.0000 
    110 N          46.6255    7.8452  113.5494 N.2       2 ALA2        0.0000 
    111 N          43.6523   12.5476  110.8481 N.2       2 ALA2        0.0000 
    112 CA         44.1452   11.2049  111.2999 C.3       6 GLY6        0.0000 
    113 CA         44.6380    9.8621  111.7517 C.3       6 GLY6        0.0000 
@<TRIPOS>BOND
@<TRIPOS>SUBSTRUCTURE
     1 SER1       22 GROUP   
     2 ALA2        9 GROUP   
     3 ASP3       56 GROUP   
     4 LYS4        1 GROUP   
     5 PHE5        4 GROUP   
     6 GLY6       10 GROUP   
     7 CUB7       18 GROUP   
@<TRIPOS>SET

