#    Name: 1nw4_IMH_3_INTS_M
#    Modification time : Mon Mar 24 19:04:22 2014

@<TRIPOS>MOLECULE
1nw4_IMH_3_INTS_M
   50     0     9     0     0
SMALL
NO_CHARGES


@<TRIPOS>ATOM
      1 N          50.9040   12.7905  114.6415 N.am      2 SEC2        0.0000 
      2 N          50.4980   11.5210  114.8010 N.am      8 SEL2        0.0000 
      3 N          51.3100   14.0600  114.4820 N.am      5 SEP2        0.0000 
      4 CA         48.5780   12.3920  113.6910 C.3       3 GLC5        0.0000 
      5 CA         50.0430   11.0450  113.5440 C.3       9 GLL5        0.0000 
      6 CA         47.1130   13.7390  113.8380 C.3       6 GLP5        0.0000 
      7 CA         48.9390   11.0920  111.6985 C.3       3 GLC5        0.0000 
      8 CA         47.8350   11.1390  109.8530 C.3       6 GLP5        0.0000 
      9 CA         51.3610   12.5375  113.9565 C.3       3 GLC5        0.0000 
     10 CA         52.6790   14.0300  114.3690 C.3       6 GLP5        0.0000 
     11 CA         48.7145   10.0530  111.0670 C.3       3 GLC5        0.0000 
     12 CA         49.5940    8.9670  112.2810 C.3       9 GLL5        0.0000 
     13 O          50.4430    7.3535  110.7415 O.2       1 ALC1        0.0000 
     14 O          50.4530    7.8550  111.9940 O.2       7 ALL1        0.0000 
     15 O          50.4330    6.8520  109.4890 O.2       4 ALP1        0.0000 
     16 CA         46.4255    7.2365  112.4815 C.3       3 GLC5        0.0000 
     17 CA         48.1950    8.5600  112.6180 C.3       9 GLL5        0.0000 
     18 CA         44.6560    5.9130  112.3450 C.3       6 GLP5        0.0000 
     19 CA         47.4055    9.2160  111.0410 C.3       3 GLC5        0.0000 
     20 CA         46.6160    9.8720  109.4640 C.3       6 GLP5        0.0000 
     21 N          46.8115    7.2465  110.9725 N.am      2 SEC2        0.0000 
     22 N          47.8320    7.3560  111.9490 N.am      8 SEL2        0.0000 
     23 N          45.7910    7.1370  109.9960 N.am      5 SEP2        0.0000 
     24 O          48.4395    6.3430  111.0945 O.2       1 ALC1        0.0000 
     25 O          47.8320    7.3560  111.9490 O.2       7 ALL1        0.0000 
     26 O          49.0470    5.3300  110.2400 O.2       4 ALP1        0.0000 
     27 CA         47.3795    7.8190  117.2290 C.3       3 GLC5        0.0000 
     28 CA         46.6290    9.2300  116.1070 C.3       9 GLL5        0.0000 
     29 CA         48.1300    6.4080  118.3510 C.3       6 GLP5        0.0000 
     30 O          45.2710   10.1920  117.8155 O.2       1 ALC1        0.0000 
     31 O          45.5910    9.9570  116.4230 O.2       7 ALL1        0.0000 
     32 O          44.9510   10.4270  119.2080 O.2       4 ALP1        0.0000 
     33 CA         42.0635   10.5540  114.3810 C.3       3 GLC5        0.0000 
     34 CA         43.9810   11.3220  114.9480 C.3       9 GLL5        0.0000 
     35 CA         40.1460    9.7860  113.8140 C.3       6 GLP5        0.0000 
     36 CA         42.6115   10.4460  111.9570 C.3       3 GLC5        0.0000 
     37 CA         44.6300   11.1300  112.5570 C.3       9 GLL5        0.0000 
     38 CA         40.5930    9.7620  111.3570 C.3       6 GLP5        0.0000 
     39 CA         44.3465    9.1675  112.1535 C.3       3 GLC5        0.0000 
     40 CA         44.0630    7.2050  111.7500 C.3       6 GLP5        0.0000 
     41 CA         45.6230   10.5010  111.0105 C.3       3 GLC5        0.0000 
     42 CA         44.9805    8.6015  112.9535 C.3       3 GLC5        0.0000 
     43 CA         45.8980    9.9980  114.1570 C.3       9 GLL5        0.0000 
     44 CA         50.8805   10.3840  111.4012 C.3       3 GLC5        0.0000 
     45 CA         51.9310   11.1330  109.8830 C.3       6 GLP5        0.0000 
     46 CA         42.9932    9.9962  116.1395 C.3       3 GLC5        0.0000 
     47 CA         45.1120   10.4570  115.2140 C.3       9 GLL5        0.0000 
     48 CA         41.4400    9.1030  117.1980 C.3       6 GLP5        0.0000 
     49 CA         45.1821    8.2061  115.7062 C.3       3 GLC5        0.0000 
     50 CA         44.2250    6.6960  116.3540 C.3       6 GLP5        0.0000 
@<TRIPOS>BOND
@<TRIPOS>SUBSTRUCTURE
     1 ALC1       13 GROUP        1 X    ALC  0     ROOT ALC X 1
     2 SEC2        1 GROUP        1 X    SEC  0     **** SEC X 2
     3 GLC5        4 GROUP        1 X    GLC  0     **** GLC X 6
     4 ALP1       15 GROUP        1 Y    ALP  0     ROOT ALP Y 8
     5 SEP2        3 GROUP        1 Y    SEP  0     **** SEP Y 9
     6 GLP5        6 GROUP        1 Y    GLP  0     **** GLP Y 13
     7 ALL1       14 GROUP        1 Z    ALL  0     ROOT ALL Z 15
     8 SEL2        2 GROUP        1 Z    SEL  0     **** SEL Z 16
     9 GLL5        5 GROUP        1 Z    GLL  0     **** GLL Z 20
@<TRIPOS>SET

