#    Name: 1nw4_IMH_3_ligand
#    Modification time : Mon Mar 24 19:04:22 2014

@<TRIPOS>MOLECULE
1nw4_IMH_3_ligand
   32    34     1     0     0
SMALL
NO_CHARGES


@<TRIPOS>ATOM
      1 O5'        50.4980   11.5210  114.8010 O.3       1 IMH303      0.0000 
      2 C5'        50.0430   11.0450  113.5440 C.3       1 IMH303      0.0000 
      3 C4'        50.0890    9.5610  113.5720 C.3       1 IMH303      0.0000 
      4 N4'        49.2900    9.0150  114.6230 N.4       1 IMH303      0.0000 
      5 C3'        49.5940    8.9670  112.2810 C.3       1 IMH303      0.0000 
      6 O3'        50.4530    7.8550  111.9940 O.3       1 IMH303      0.0000 
      7 C2'        48.1950    8.5600  112.6180 C.3       1 IMH303      0.0000 
      8 O2'        47.8320    7.3560  111.9490 O.3       1 IMH303      0.0000 
      9 C1'        48.0880    8.3950  114.1470 C.3       1 IMH303      0.0000 
     10 C9         46.9180    9.1800  114.7560 C.2       1 IMH303      0.0000 
     11 C8         46.6290    9.2300  116.1070 C.2       1 IMH303      0.0000 
     12 N7         45.5910    9.9570  116.4230 N.pl3     1 IMH303      0.0000 
     13 C5         45.1120   10.4570  115.2140 C.ar      1 IMH303      0.0000 
     14 C6         43.9810   11.3220  114.9480 C.ar      1 IMH303      0.0000 
     15 O6         43.2050   11.7980  115.7700 O.3       1 IMH303      0.0000 
     16 N1         43.8060   11.6160  113.5810 N.ar      1 IMH303      0.0000 
     17 C2         44.6300   11.1300  112.5570 C.ar      1 IMH303      0.0000 
     18 N3         45.7020   10.3110  112.8020 N.ar      1 IMH303      0.0000 
     19 C4         45.8980    9.9980  114.1570 C.ar      1 IMH303      0.0000 
     20 H          50.6762   11.4026  112.7262 H         1 IMH303      0.0000 
     21 H          49.0153   11.3628  113.3425 H         1 IMH303      0.0000 
     22 H          51.1285    9.2393  113.6963 H         1 IMH303      0.0000 
     23 H          49.5982    9.7103  111.5476 H         1 IMH303      0.0000 
     24 H          47.5282    9.3778  112.3441 H         1 IMH303      0.0000 
     25 H          48.0430    7.3892  114.3973 H         1 IMH303      0.0000 
     26 H          47.2024    8.7272  116.7707 H         1 IMH303      0.0000 
     27 H          45.2061   10.1381  117.2686 H         1 IMH303      0.0000 
     28 H          44.4083   11.4099  111.5729 H         1 IMH303      0.0000 
     29 H          49.6661   11.7286  115.3155 H         1 IMH303      0.0000 
     30 H          50.3187    7.6689  111.0207 H         1 IMH303      0.0000 
     31 H          48.6661    7.0555  111.4864 H         1 IMH303      0.0000 
     32 H          42.5836   12.3722  115.2369 H         1 IMH303      0.0000 
@<TRIPOS>BOND
     1    2    1 1    
     2   29    1 1    
     3    3    2 1    
     4   20    2 1    
     5   21    2 1    
     6    4    3 1    
     7    5    3 1    
     8   22    3 1    
     9    9    4 1    
    10    6    5 1    
    11    7    5 1    
    12   23    5 1    
    13   30    6 1    
    14    8    7 1    
    15    9    7 1    
    16   24    7 1    
    17   31    8 1    
    18   10    9 1    
    19   25    9 1    
    20   11   10 2    
    21   19   10 1    
    22   12   11 1    
    23   26   11 1    
    24   13   12 1    
    25   27   12 1    
    26   14   13 ar   
    27   19   13 ar   
    28   15   14 1    
    29   16   14 ar   
    30   32   15 1    
    31   17   16 ar   
    32   18   17 ar   
    33   28   17 1    
    34   19   18 ar   
@<TRIPOS>SUBSTRUCTURE
     1 IMH303      1 GROUP   
@<TRIPOS>SET

