#    Name: 4b4o_NDP_1_INTS_M
#    Modification time : Tue Mar 25 06:39:11 2014

@<TRIPOS>MOLECULE
4b4o_NDP_1_INTS_M
   95     0    12     0     0
SMALL
NO_CHARGES


@<TRIPOS>ATOM
      1 N          37.2865  -54.5280  -38.2905 N.am      2 SEC2        0.0000 
      2 N          37.0060  -54.3560  -39.9800 N.am     10 SEL2        0.0000 
      3 N          37.5670  -54.7000  -36.6010 N.am      6 SEP2        0.0000 
      4 N          37.2005  -50.6800  -41.6170 N.am      2 SEC2        0.0000 
      5 N          37.0640  -51.8140  -40.8320 N.am     10 SEL2        0.0000 
      6 N          37.3370  -49.5460  -42.4020 N.am      6 SEP2        0.0000 
      7 CA         37.5440  -55.1975  -46.0410 C.3       4 GLC5        0.0000 
      8 CA         36.9060  -55.1750  -44.1120 C.3      12 GLL5        0.0000 
      9 CA         38.1820  -55.2200  -47.9700 C.3       8 GLP5        0.0000 
     10 N          38.3630  -57.5765  -44.0500 N.am      2 SEC2        0.0000 
     11 N          37.1730  -56.5090  -44.5390 N.am     10 SEL2        0.0000 
     12 N          39.5530  -58.6440  -43.5610 N.am      6 SEP2        0.0000 
     13 O          34.3725  -53.4305  -45.7060 O.2       1 ALC1        0.0000 
     14 O          34.9020  -53.7350  -44.4960 O.2       9 ALL1        0.0000 
     15 O          33.8430  -53.1260  -46.9160 O.2       5 ALP1        0.0000 
     16 CA         37.0640  -56.1745  -46.4315 C.3       4 GLC5        0.0000 
     17 CA         35.9460  -57.1290  -44.8930 C.3      12 GLL5        0.0000 
     18 CA         38.0430  -57.4865  -45.3425 C.3       4 GLC5        0.0000 
     19 CA         40.1400  -57.8440  -45.7920 C.3       8 GLP5        0.0000 
     20 CA         36.9990  -62.6665  -43.0880 C.3       4 GLC5        0.0000 
     21 CA         35.4380  -61.7550  -43.4410 C.3      12 GLL5        0.0000 
     22 CA         38.5600  -63.5780  -42.7350 C.3       8 GLP5        0.0000 
     23 O          34.6515  -62.1955  -41.0470 O.2       1 ALC1        0.0000 
     24 O          35.1490  -62.6450  -42.4690 O.2       9 ALL1        0.0000 
     25 O          34.1540  -61.7460  -39.6250 O.2       5 ALP1        0.0000 
     26 CA         34.3155  -61.2820  -46.0050 C.3       4 GLC5        0.0000 
     27 CA         36.1040  -61.3030  -45.6510 C.3      12 GLL5        0.0000 
     28 CA         32.5270  -61.2610  -46.3590 C.3       8 GLP5        0.0000 
     29 CA         37.3320  -62.4405  -44.1930 C.3       4 GLC5        0.0000 
     30 CA         37.6670  -61.8810  -46.9150 C.3       4 GLC5        0.0000 
     31 CA         39.2300  -62.4590  -48.1790 C.3       8 GLP5        0.0000 
     32 CA         37.7460  -59.4430  -43.3410 C.3       4 GLC5        0.0000 
     33 CA         35.7680  -59.4580  -44.3370 C.3      12 GLL5        0.0000 
     34 CA         39.7240  -59.4280  -42.3450 C.3       8 GLP5        0.0000 
     35 N          39.9560  -49.9460  -42.1795 N.am      2 SEC2        0.0000 
     36 N          39.8340  -51.2810  -41.8000 N.am     10 SEL2        0.0000 
     37 N          40.0780  -48.6110  -42.5590 N.am      6 SEP2        0.0000 
     38 CA         41.8930  -53.6225  -44.1350 C.3       4 GLC5        0.0000 
     39 CA         41.6940  -53.6400  -42.1250 C.3      12 GLL5        0.0000 
     40 CA         42.0920  -53.6050  -46.1450 C.3       8 GLP5        0.0000 
     41 CA         42.7250  -54.8575  -44.1290 C.3       4 GLC5        0.0000 
     42 CA         42.7830  -54.6930  -42.1240 C.3      12 GLL5        0.0000 
     43 CA         42.6670  -55.0220  -46.1340 C.3       8 GLP5        0.0000 
     44 N          43.4130  -58.4575  -39.6485 N.am      2 SEC2        0.0000 
     45 N          43.6980  -56.8280  -39.2640 N.am     10 SEL2        0.0000 
     46 N          43.1280  -60.0870  -40.0330 N.am      6 SEP2        0.0000 
     47 N          42.6470  -57.8250  -39.0820 N.am      2 SEC2        0.0000 
     48 N          41.5960  -58.8220  -38.9000 N.am      6 SEP2        0.0000 
     49 CA         44.0075  -52.7330  -40.8505 C.3       4 GLC5        0.0000 
     50 CA         44.3060  -54.8560  -40.3450 C.3      12 GLL5        0.0000 
     51 CA         43.7090  -50.6100  -41.3560 C.3       8 GLP5        0.0000 
     52 CA         45.7675  -54.1135  -41.4480 C.3       4 GLC5        0.0000 
     53 CA         47.2290  -53.3710  -42.5510 C.3       8 GLP5        0.0000 
     54 CA         48.4800  -54.6670  -37.8700 C.3       4 GLC5        0.0000 
     55 CA         46.6900  -53.3650  -37.9320 C.3      12 GLL5        0.0000 
     56 CA         50.2700  -55.9690  -37.8080 C.3       8 GLP5        0.0000 
     57 CA         46.6665  -53.7490  -40.7385 C.3       4 GLC5        0.0000 
     58 CA         46.1040  -54.1270  -38.9260 C.3      12 GLL5        0.0000 
     59 NZ         32.8850  -58.8605  -46.4265 N.4       3 LYC4        0.0000 
     60 NZ         33.2970  -57.7460  -47.1620 N.4      11 LYL4        0.0000 
     61 NZ         32.1950  -59.7960  -44.4120 N.4       7 LYP4        0.0000 
     62 N          32.9060  -58.2315  -48.5320 N.am      2 SEC2        0.0000 
     63 N          33.2970  -57.7460  -47.1620 N.am     10 SEL2        0.0000 
     64 N          32.5150  -58.7170  -49.9020 N.am      6 SEP2        0.0000 
     65 N          32.8850  -58.8605  -46.4265 N.am      2 SEC2        0.0000 
     66 N          32.4730  -59.9750  -45.6910 N.am      6 SEP2        0.0000 
     67 NZ         32.0570  -57.3580  -44.8100 N.4       3 LYC4        0.0000 
     68 NZ         31.9510  -56.1520  -45.6810 N.4      11 LYL4        0.0000 
     69 N          32.0570  -57.3580  -44.8100 N.am      2 SEC2        0.0000 
     70 N          31.9510  -56.1520  -45.6810 N.am     10 SEL2        0.0000 
     71 N          32.1630  -58.5640  -43.9390 N.am      6 SEP2        0.0000 
     72 N          33.4420  -54.2200  -47.4365 N.am      2 SEC2        0.0000 
     73 N          33.0410  -55.3140  -47.9570 N.am     10 SEL2        0.0000 
     74 N          33.8430  -53.1260  -46.9160 N.am      6 SEP2        0.0000 
     75 N          32.4470  -55.6160  -49.0460 N.am      2 SEC2        0.0000 
     76 N          31.8530  -55.9180  -50.1350 N.am      6 SEP2        0.0000 
     77 CA         36.1780  -52.9850  -44.0415 C.3       4 GLC5        0.0000 
     78 CA         35.3900  -55.0030  -43.9720 C.3      12 GLL5        0.0000 
     79 CA         36.2080  -50.8810  -44.0410 C.3       8 GLP5        0.0000 
     80 CA         36.2878  -60.7383  -41.5345 C.3       4 GLC5        0.0000 
     81 CA         37.1680  -60.4440  -39.7480 C.3       8 GLP5        0.0000 
     82 CA         34.0574  -60.7531  -45.0940 C.3       4 GLC5        0.0000 
     83 CA         35.3770  -60.3100  -43.2010 C.3      12 GLL5        0.0000 
     84 CA         42.9738  -52.3882  -41.7403 C.3       4 GLC5        0.0000 
     85 CA         44.7045  -57.0209  -40.8390 C.3       4 GLC5        0.0000 
     86 CA         42.4600  -55.9600  -41.3070 C.3      12 GLL5        0.0000 
     87 CA         45.8590  -58.6970  -41.1910 C.3       8 GLP5        0.0000 
     88 CA         43.9785  -51.6575  -39.7488 C.3       4 GLC5        0.0000 
     89 CA         44.0090  -53.1030  -38.6500 C.3      12 GLL5        0.0000 
     90 CA         45.2632  -50.5420  -37.7632 C.3       4 GLC5        0.0000 
     91 CA         44.4870  -52.3070  -37.6330 C.3      12 GLL5        0.0000 
     92 CA         45.3270  -48.7450  -38.1090 C.3       8 GLP5        0.0000 
     93 CA         47.6142  -52.3808  -38.8143 C.3       4 GLC5        0.0000 
     94 CA         45.9120  -52.3710  -37.2020 C.3      12 GLL5        0.0000 
     95 CA         49.0260  -51.2640  -39.3820 C.3       8 GLP5        0.0000 
@<TRIPOS>BOND
@<TRIPOS>SUBSTRUCTURE
     1 ALC1       13 GROUP        1 X    ALC  0     ROOT ALC X 1
     2 SEC2        1 GROUP        1 X    SEC  0     **** SEC X 2
     3 LYC4       59 GROUP        1 X    LYC  0     **** LYC X 4
     4 GLC5        7 GROUP        1 X    GLC  0     **** GLC X 6
     5 ALP1       15 GROUP        1 Y    ALP  0     ROOT ALP Y 8
     6 SEP2        3 GROUP        1 Y    SEP  0     **** SEP Y 9
     7 LYP4       61 GROUP        1 Y    LYP  0     **** LYP Y 11
     8 GLP5        9 GROUP        1 Y    GLP  0     **** GLP Y 13
     9 ALL1       14 GROUP        1 Z    ALL  0     ROOT ALL Z 15
    10 SEL2        2 GROUP        1 Z    SEL  0     **** SEL Z 16
    11 LYL4       60 GROUP        1 Z    LYL  0     **** LYL Z 18
    12 GLL5        8 GROUP        1 Z    GLL  0     **** GLL Z 20
@<TRIPOS>SET

