#    Name: 4b4o_NDP_1_ligand
#    Modification time : Tue Mar 25 06:39:11 2014

@<TRIPOS>MOLECULE
4b4o_NDP_1_ligand
   74    78     1     0     0
SMALL
NO_CHARGES


@<TRIPOS>ATOM
      1 PA         37.6320  -53.2480  -40.8620 P.3       1 NDP999      0.0000 
      2 O1A        37.0060  -54.3560  -39.9800 O.co2     1 NDP999      0.0000 
      3 O2A        37.0640  -51.8140  -40.8320 O.co2     1 NDP999      0.0000 
      4 O5B        37.5500  -53.6040  -42.4520 O.3       1 NDP999      0.0000 
      5 C5B        37.6150  -54.9850  -42.7950 C.3       1 NDP999      0.0000 
      6 C4B        36.9060  -55.1750  -44.1120 C.3       1 NDP999      0.0000 
      7 O4B        37.1730  -56.5090  -44.5390 O.3       1 NDP999      0.0000 
      8 C3B        35.3900  -55.0030  -43.9720 C.3       1 NDP999      0.0000 
      9 O3B        34.9020  -53.7350  -44.4960 O.3       1 NDP999      0.0000 
     10 C2B        34.8110  -56.1580  -44.7750 C.3       1 NDP999      0.0000 
     11 O2B        34.4790  -55.7710  -46.1000 O.3       1 NDP999      0.0000 
     12 C1B        35.9460  -57.1290  -44.8930 C.3       1 NDP999      0.0000 
     13 N9A        35.6650  -58.2010  -43.9350 N.pl3     1 NDP999      0.0000 
     14 C8A        35.2350  -58.1640  -42.6320 C.2       1 NDP999      0.0000 
     15 N7A        35.0610  -59.4760  -42.1750 N.2       1 NDP999      0.0000 
     16 C5A        35.3770  -60.3100  -43.2010 C.ar      1 NDP999      0.0000 
     17 C6A        35.4380  -61.7550  -43.4410 C.ar      1 NDP999      0.0000 
     18 N6A        35.1490  -62.6450  -42.4690 N.pl3     1 NDP999      0.0000 
     19 N1A        35.8110  -62.1950  -44.6610 N.ar      1 NDP999      0.0000 
     20 C2A        36.1040  -61.3030  -45.6510 C.ar      1 NDP999      0.0000 
     21 N3A        36.1000  -59.9620  -45.5040 N.ar      1 NDP999      0.0000 
     22 C4A        35.7680  -59.4580  -44.3370 C.ar      1 NDP999      0.0000 
     23 O3         39.1910  -53.3340  -40.4360 O.3       1 NDP999      0.0000 
     24 PN         40.2330  -52.1140  -40.5920 P.3       1 NDP999      0.0000 
     25 O1N        39.8340  -51.2810  -41.8000 O.co2     1 NDP999      0.0000 
     26 O2N        40.3730  -51.4080  -39.2770 O.co2     1 NDP999      0.0000 
     27 O5D        41.6450  -52.9130  -40.8760 O.3       1 NDP999      0.0000 
     28 C5D        41.6940  -53.6400  -42.1250 C.3       1 NDP999      0.0000 
     29 C4D        42.7830  -54.6930  -42.1240 C.3       1 NDP999      0.0000 
     30 O4D        43.8930  -54.0840  -41.4750 O.3       1 NDP999      0.0000 
     31 C3D        42.4600  -55.9600  -41.3070 C.3       1 NDP999      0.0000 
     32 O3D        42.9760  -57.1500  -41.9850 O.3       1 NDP999      0.0000 
     33 C2D        43.1280  -55.7070  -39.9510 C.3       1 NDP999      0.0000 
     34 O2D        43.6980  -56.8280  -39.2640 O.3       1 NDP999      0.0000 
     35 C1D        44.3060  -54.8560  -40.3450 C.3       1 NDP999      0.0000 
     36 N1N        44.8030  -53.9980  -39.2540 N.pl3     1 NDP999      0.0000 
     37 C2N        44.0090  -53.1030  -38.6500 C.2       1 NDP999      0.0000 
     38 C3N        44.4870  -52.3070  -37.6330 C.2       1 NDP999      0.0000 
     39 C7N        43.5700  -51.3220  -37.0070 C.2       1 NDP999      0.0000 
     40 O7N        42.5410  -51.0310  -37.6130 O.2       1 NDP999      0.0000 
     41 N7N        43.8570  -50.7710  -35.8310 N.am      1 NDP999      0.0000 
     42 C4N        45.9120  -52.3710  -37.2020 C.3       1 NDP999      0.0000 
     43 C5N        46.6900  -53.3650  -37.9320 C.2       1 NDP999      0.0000 
     44 C6N        46.1040  -54.1270  -38.9260 C.2       1 NDP999      0.0000 
     45 P2B        33.0590  -56.3040  -46.7660 P.3       1 NDP999      0.0000 
     46 O1X        33.2970  -57.7460  -47.1620 O.co2     1 NDP999      0.0000 
     47 O2X        31.9510  -56.1520  -45.6810 O.co2     1 NDP999      0.0000 
     48 O3X        33.0410  -55.3140  -47.9570 O.co2     1 NDP999      0.0000 
     49 H          37.1240  -55.6109  -42.0470 H         1 NDP999      0.0000 
     50 H          38.6464  -55.3255  -42.9077 H         1 NDP999      0.0000 
     51 H          37.2732  -54.4635  -44.8182 H         1 NDP999      0.0000 
     52 H          35.1281  -55.1531  -42.9482 H         1 NDP999      0.0000 
     53 H          34.0284  -56.6042  -44.2476 H         1 NDP999      0.0000 
     54 H          35.9612  -57.5267  -45.8808 H         1 NDP999      0.0000 
     55 H          35.0761  -57.3812  -42.1098 H         1 NDP999      0.0000 
     56 H          35.2718  -63.6091  -42.7045 H         1 NDP999      0.0000 
     57 H          34.8377  -62.2614  -41.5995 H         1 NDP999      0.0000 
     58 H          36.3550  -61.7032  -46.6139 H         1 NDP999      0.0000 
     59 H          41.8786  -52.9556  -42.9717 H         1 NDP999      0.0000 
     60 H          40.7311  -54.1417  -42.3264 H         1 NDP999      0.0000 
     61 H          43.0317  -54.9656  -43.1176 H         1 NDP999      0.0000 
     62 H          41.4057  -55.9909  -41.1646 H         1 NDP999      0.0000 
     63 H          42.4980  -55.1071  -39.3517 H         1 NDP999      0.0000 
     64 H          45.1066  -55.5422  -40.6591 H         1 NDP999      0.0000 
     65 H          43.0116  -52.9954  -38.9428 H         1 NDP999      0.0000 
     66 H          43.1672  -50.1524  -35.4549 H         1 NDP999      0.0000 
     67 H          44.7367  -51.0250  -35.4290 H         1 NDP999      0.0000 
     68 H          45.9463  -52.5863  -36.1126 H         1 NDP999      0.0000 
     69 H          46.3680  -51.3654  -37.3256 H         1 NDP999      0.0000 
     70 H          47.6762  -53.4748  -37.6819 H         1 NDP999      0.0000 
     71 H          46.7048  -54.8248  -39.4332 H         1 NDP999      0.0000 
     72 H          34.6667  -53.9226  -45.4497 H         1 NDP999      0.0000 
     73 H          43.4872  -57.6463  -41.2833 H         1 NDP999      0.0000 
     74 H          44.2354  -56.4298  -38.5206 H         1 NDP999      0.0000 
@<TRIPOS>BOND
     1    2    1 ar   
     2    3    1 ar   
     3    4    1 1    
     4   23    1 1    
     5    5    4 1    
     6    6    5 1    
     7   49    5 1    
     8   50    5 1    
     9    7    6 1    
    10    8    6 1    
    11   51    6 1    
    12   12    7 1    
    13    9    8 1    
    14   10    8 1    
    15   52    8 1    
    16   72    9 1    
    17   11   10 1    
    18   12   10 1    
    19   53   10 1    
    20   45   11 1    
    21   13   12 1    
    22   54   12 1    
    23   14   13 1    
    24   22   13 1    
    25   15   14 2    
    26   55   14 1    
    27   16   15 1    
    28   17   16 ar   
    29   22   16 ar   
    30   18   17 1    
    31   19   17 ar   
    32   56   18 1    
    33   57   18 1    
    34   20   19 ar   
    35   21   20 ar   
    36   58   20 1    
    37   22   21 ar   
    38   24   23 1    
    39   25   24 ar   
    40   26   24 ar   
    41   27   24 1    
    42   28   27 1    
    43   29   28 1    
    44   59   28 1    
    45   60   28 1    
    46   30   29 1    
    47   31   29 1    
    48   61   29 1    
    49   35   30 1    
    50   32   31 1    
    51   33   31 1    
    52   62   31 1    
    53   73   32 1    
    54   34   33 1    
    55   35   33 1    
    56   63   33 1    
    57   74   34 1    
    58   36   35 1    
    59   64   35 1    
    60   37   36 1    
    61   44   36 1    
    62   38   37 2    
    63   65   37 1    
    64   39   38 1    
    65   42   38 1    
    66   40   39 2    
    67   41   39 am   
    68   66   41 1    
    69   67   41 1    
    70   43   42 1    
    71   68   42 1    
    72   69   42 1    
    73   44   43 2    
    74   70   43 1    
    75   71   44 1    
    76   46   45 ar   
    77   47   45 ar   
    78   48   45 ar   
@<TRIPOS>SUBSTRUCTURE
     1 NDP999      1 GROUP   
@<TRIPOS>SET

