#    Name: 3bz7_BL4_1_INTS_M
#    Modification time : Mon Mar 24 20:15:49 2014

@<TRIPOS>MOLECULE
3bz7_BL4_1_INTS_M
   65     0     9     0     0
SMALL
NO_CHARGES


@<TRIPOS>ATOM
      1 N          22.8560   37.7100   42.2505 N.am      2 SEC2        0.0000 
      2 N          23.4430   37.4450   40.6530 N.am      8 SEL2        0.0000 
      3 N          22.2690   37.9750   43.8480 N.am      5 SEP2        0.0000 
      4 CA         23.9660   39.4645   40.4530 C.3       3 GLC5        0.0000 
      5 CA         22.7400   38.8710   38.8640 C.3       9 GLL5        0.0000 
      6 CA         25.1920   40.0580   42.0420 C.3       6 GLP5        0.0000 
      7 CA         24.7735   39.1785   38.3480 C.3       3 GLC5        0.0000 
      8 CA         26.8070   39.4860   37.8320 C.3       6 GLP5        0.0000 
      9 N          23.9995   40.4565   39.9740 N.am      2 SEC2        0.0000 
     10 N          23.6870   40.0310   38.6950 N.am      8 SEL2        0.0000 
     11 N          24.3120   40.8820   41.2530 N.am      5 SEP2        0.0000 
     12 O          23.1550   40.9300   37.9305 O.2       1 ALC1        0.0000 
     13 O          23.6870   40.0310   38.6950 O.2       7 ALL1        0.0000 
     14 O          22.6230   41.8290   37.1660 O.2       4 ALP1        0.0000 
     15 CA         20.7935   39.0660   41.2400 C.3       3 GLC5        0.0000 
     16 CA         21.4540   39.3730   39.6150 C.3       9 GLL5        0.0000 
     17 CA         20.1330   38.7590   42.8650 C.3       6 GLP5        0.0000 
     18 CA         21.8600   39.5940   34.6595 C.3       3 GLC5        0.0000 
     19 CA         20.4660   38.4090   34.9940 C.3       9 GLL5        0.0000 
     20 CA         23.2540   40.7790   34.3250 C.3       6 GLP5        0.0000 
     21 CA         27.2380   34.2885   35.8165 C.3       3 GLC5        0.0000 
     22 CA         26.1200   35.8450   36.4880 C.3       9 GLL5        0.0000 
     23 CA         28.3560   32.7320   35.1450 C.3       6 GLP5        0.0000 
     24 CA         26.5365   33.6740   37.6870 C.3       3 GLC5        0.0000 
     25 CA         26.4460   35.7630   37.8970 C.3       9 GLL5        0.0000 
     26 CA         26.6270   31.5850   37.4770 C.3       6 GLP5        0.0000 
     27 CA         27.9390   34.7680   39.1115 C.3       3 GLC5        0.0000 
     28 CA         29.4320   33.7730   40.3260 C.3       6 GLP5        0.0000 
     29 CA         25.6540   38.1235   41.1880 C.3       3 GLC5        0.0000 
     30 CA         26.1160   36.1890   40.3340 C.3       9 GLL5        0.0000 
     31 CA         27.3155   37.3860   39.9025 C.3       3 GLC5        0.0000 
     32 CA         28.5150   38.5830   39.4710 C.3       6 GLP5        0.0000 
     33 CA         25.8470   35.5750   41.9340 C.3       3 GLC5        0.0000 
     34 CA         25.5780   34.9610   43.5340 C.3       6 GLP5        0.0000 
     35 CA         24.9630   34.7445   40.3210 C.3       3 GLC5        0.0000 
     36 CA         23.8100   33.3000   40.3080 C.3       6 GLP5        0.0000 
     37 CA         27.7740   34.9810   40.3300 C.3       3 GLC5        0.0000 
     38 CA         19.4775   38.4858   39.3155 C.3       3 GLC5        0.0000 
     39 CA         17.9440   37.3830   39.5960 C.3       6 GLP5        0.0000 
     40 CA         22.0857   41.1225   39.8396 C.3       3 GLC5        0.0000 
     41 CA         20.5680   39.8040   38.4550 C.3       9 GLL5        0.0000 
     42 CA         22.8390   42.7820   40.8320 C.3       6 GLP5        0.0000 
     43 CA         18.6655   42.4900   35.9750 C.3       3 GLC5        0.0000 
     44 CA         19.6430   40.5770   35.7480 C.3       9 GLL5        0.0000 
     45 CA         18.0280   44.3290   36.8160 C.3       6 GLP5        0.0000 
     46 CA         21.3724   40.5709   34.7602 C.3       3 GLC5        0.0000 
     47 CA         18.9630   40.7250   34.5200 C.3       9 GLL5        0.0000 
     48 CA         21.3182   39.0938   33.0580 C.3       3 GLC5        0.0000 
     49 CA         19.7870   38.5430   33.7650 C.3       9 GLL5        0.0000 
     50 CA         23.2250   39.0660   32.4630 C.3       6 GLP5        0.0000 
     51 CA         17.2733   40.4672   34.5203 C.3       3 GLC5        0.0000 
     52 CA         19.0360   39.7000   33.5410 C.3       9 GLL5        0.0000 
     53 CA         15.3770   40.7590   34.7030 C.3       6 GLP5        0.0000 
     54 CA         19.9102   39.3518   31.6375 C.3       3 GLC5        0.0000 
     55 CA         20.4090   39.5820   29.6220 C.3       6 GLP5        0.0000 
     56 CA         19.5363   36.8545   34.6017 C.3       3 GLC5        0.0000 
     57 CA         18.9460   35.2330   34.8240 C.3       6 GLP5        0.0000 
     58 CA         25.5585   38.2947   37.8158 C.3       3 GLC5        0.0000 
     59 CA         24.1610   37.1360   37.0970 C.3       9 GLL5        0.0000 
     60 CA         26.1747   37.8435   37.0600 C.3       3 GLC5        0.0000 
     61 CA         27.0403   36.5755   34.9445 C.3       3 GLC5        0.0000 
     62 CA         24.9650   36.5570   36.0880 C.3       9 GLL5        0.0000 
     63 CA         28.5380   36.9500   33.6010 C.3       6 GLP5        0.0000 
     64 CA         26.4255   37.7715   38.1090 C.3       3 GLC5        0.0000 
     65 CA         24.7791   34.7685   39.3004 C.3       3 GLC5        0.0000 
@<TRIPOS>BOND
@<TRIPOS>SUBSTRUCTURE
     1 ALC1       12 GROUP        1 X    ALC  0     ROOT ALC X 1
     2 SEC2        1 GROUP        1 X    SEC  0     **** SEC X 2
     3 GLC5        4 GROUP        1 X    GLC  0     **** GLC X 6
     4 ALP1       14 GROUP        1 Y    ALP  0     ROOT ALP Y 8
     5 SEP2        3 GROUP        1 Y    SEP  0     **** SEP Y 9
     6 GLP5        6 GROUP        1 Y    GLP  0     **** GLP Y 13
     7 ALL1       13 GROUP        1 Z    ALL  0     ROOT ALL Z 15
     8 SEL2        2 GROUP        1 Z    SEL  0     **** SEL Z 16
     9 GLL5        5 GROUP        1 Z    GLL  0     **** GLL Z 20
@<TRIPOS>SET

