#    Name: 3bz7_BL4_1_ligand
#    Modification time : Mon Mar 24 20:15:49 2014

@<TRIPOS>MOLECULE
3bz7_BL4_1_ligand
   38    41     1     0     0
SMALL
NO_CHARGES


@<TRIPOS>ATOM
      1 O2         23.4430   37.4450   40.6530 O.2       1 BL4800      0.0000 
      2 C4         23.5610   37.7310   39.4380 C.2       1 BL4800      0.0000 
      3 C3         22.7400   38.8710   38.8640 C.3       1 BL4800      0.0000 
      4 O1         23.6870   40.0310   38.6950 O.3       1 BL4800      0.0000 
      5 C2         21.4540   39.3730   39.6150 C.3       1 BL4800      0.0000 
      6 C1         20.5680   39.8040   38.4550 C.3       1 BL4800      0.0000 
      7 N1         21.0820   39.1510   37.2080 N.pl3     1 BL4800      0.0000 
      8 C12        20.3940   39.4240   35.9940 C.ar      1 BL4800      0.0000 
      9 C17        19.6430   40.5770   35.7480 C.ar      1 BL4800      0.0000 
     10 C16        18.9630   40.7250   34.5200 C.ar      1 BL4800      0.0000 
     11 C15        19.0360   39.7000   33.5410 C.ar      1 BL4800      0.0000 
     12 C14        19.7870   38.5430   33.7650 C.ar      1 BL4800      0.0000 
     13 C13        20.4660   38.4090   34.9940 C.ar      1 BL4800      0.0000 
     14 C11        22.1810   38.4510   37.4830 C.2       1 BL4800      0.0000 
     15 N2         23.0610   37.8050   36.6280 N.2       1 BL4800      0.0000 
     16 C10        24.1610   37.1360   37.0970 C.ar      1 BL4800      0.0000 
     17 C5         24.4590   37.0710   38.5020 C.ar      1 BL4800      0.0000 
     18 C9         24.9650   36.5570   36.0880 C.ar      1 BL4800      0.0000 
     19 C8         26.1200   35.8450   36.4880 C.ar      1 BL4800      0.0000 
     20 C7         26.4460   35.7630   37.8970 C.ar      1 BL4800      0.0000 
     21 C6         25.6420   36.3510   38.8750 C.ar      1 BL4800      0.0000 
     22 C18        26.1160   36.1890   40.3340 C.3       1 BL4800      0.0000 
     23 H          21.7124   40.1963   40.2102 H         1 BL4800      0.0000 
     24 H          21.0270   38.5643   40.1274 H         1 BL4800      0.0000 
     25 H          20.6102   40.8801   38.3562 H         1 BL4800      0.0000 
     26 H          19.5515   39.4894   38.6481 H         1 BL4800      0.0000 
     27 H          19.5825   41.3158   36.4528 H         1 BL4800      0.0000 
     28 H          18.4185   41.5668   34.3329 H         1 BL4800      0.0000 
     29 H          18.5246   39.8196   32.6556 H         1 BL4800      0.0000 
     30 H          19.8462   37.8135   33.0643 H         1 BL4800      0.0000 
     31 H          21.0252   37.5666   35.1794 H         1 BL4800      0.0000 
     32 H          24.7233   36.6485   35.1160 H         1 BL4800      0.0000 
     33 H          26.7188   35.3948   35.8125 H         1 BL4800      0.0000 
     34 H          27.3010   35.2508   38.1625 H         1 BL4800      0.0000 
     35 H          26.9590   35.6543   40.3934 H         1 BL4800      0.0000 
     36 H          26.2983   37.0725   40.7656 H         1 BL4800      0.0000 
     37 H          25.4331   35.7232   40.8968 H         1 BL4800      0.0000 
     38 H          23.4666   40.4165   37.7990 H         1 BL4800      0.0000 
@<TRIPOS>BOND
     1    2    1 2    
     2    3    2 1    
     3   17    2 1    
     4    4    3 1    
     5    5    3 1    
     6   14    3 1    
     7   38    4 1    
     8    6    5 1    
     9   23    5 1    
    10   24    5 1    
    11    7    6 1    
    12   25    6 1    
    13   26    6 1    
    14    8    7 1    
    15   14    7 1    
    16    9    8 ar   
    17   13    8 ar   
    18   10    9 ar   
    19   27    9 1    
    20   11   10 ar   
    21   28   10 1    
    22   12   11 ar   
    23   29   11 1    
    24   13   12 ar   
    25   30   12 1    
    26   31   13 1    
    27   15   14 2    
    28   16   15 1    
    29   17   16 ar   
    30   18   16 ar   
    31   21   17 ar   
    32   19   18 ar   
    33   32   18 1    
    34   20   19 ar   
    35   33   19 1    
    36   21   20 ar   
    37   34   20 1    
    38   22   21 1    
    39   35   22 1    
    40   36   22 1    
    41   37   22 1    
@<TRIPOS>SUBSTRUCTURE
     1 BL4800      1 GROUP   
@<TRIPOS>SET

