#    Name: 3u5j_08H_1_INTS_M
#    Modification time : Mon Mar 24 21:40:44 2014

@<TRIPOS>MOLECULE
3u5j_08H_1_INTS_M
   48     0     6     0     0
SMALL
NO_CHARGES


@<TRIPOS>ATOM
      1 CA         27.8140   13.2345   -0.7335 C.3       2 GLC5        0.0000 
      2 CA         27.8430   15.1590   -1.0530 C.3       6 GLL5        0.0000 
      3 CA         27.7850   11.3100   -0.4140 C.3       4 GLP5        0.0000 
      4 CA         24.6775   15.3775   -0.7060 C.3       2 GLC5        0.0000 
      5 CA         25.7010   14.3890    0.4320 C.3       6 GLL5        0.0000 
      6 CA         23.6540   16.3660   -1.8440 C.3       4 GLP5        0.0000 
      7 CA         25.8335   16.5955    0.8260 C.3       2 GLC5        0.0000 
      8 CA         25.9660   18.8020    1.2200 C.3       4 GLP5        0.0000 
      9 CA         26.7430   12.8495    0.0090 C.3       2 GLC5        0.0000 
     10 CA         26.9405   17.1900    1.2930 C.3       2 GLC5        0.0000 
     11 CA         27.9150   15.5780    1.3660 C.3       6 GLL5        0.0000 
     12 CA         30.6125   16.0830    2.7030 C.3       2 GLC5        0.0000 
     13 CA         29.1920   16.1500    1.2240 C.3       6 GLL5        0.0000 
     14 CA         32.0330   16.0160    4.1820 C.3       4 GLP5        0.0000 
     15 CA         28.8310   18.9085    0.7955 C.3       2 GLC5        0.0000 
     16 CA         30.8060   18.8220    1.6030 C.3       6 GLL5        0.0000 
     17 CA         26.8560   18.9950   -0.0120 C.3       4 GLP5        0.0000 
     18 CA         30.6640   20.6375    1.3780 C.3       2 GLC5        0.0000 
     19 CA         30.5220   22.4530    1.1530 C.3       4 GLP5        0.0000 
     20 CA         31.4195   17.4190    2.8925 C.3       2 GLC5        0.0000 
     21 CA         30.1570   19.3215   -0.2890 C.3       2 GLC5        0.0000 
     22 CA         29.5080   19.8210   -2.1810 C.3       4 GLP5        0.0000 
     23 N          34.2100   17.7135   -1.4245 N.am      1 SEC2        0.0000 
     24 N          33.1510   17.1120   -0.5260 N.am      5 SEL2        0.0000 
     25 N          35.2690   18.3150   -2.3230 N.am      3 SEP2        0.0000 
     26 CA         32.6090   13.5730   -1.0760 C.3       2 GLC5        0.0000 
     27 CA         31.9560   15.2150   -1.7300 C.3       6 GLL5        0.0000 
     28 CA         33.2620   11.9310   -0.4220 C.3       4 GLP5        0.0000 
     29 CA         29.4750   17.8998   -1.3960 C.3       2 GLC5        0.0000 
     30 CA         29.7630   16.2300   -0.0400 C.3       6 GLL5        0.0000 
     31 CA         27.3700   17.1290   -0.2311 C.3       2 GLC5        0.0000 
     32 CA         29.1210   15.7270   -1.1820 C.3       6 GLL5        0.0000 
     33 CA         28.1668   17.5925    0.2900 C.3       2 GLC5        0.0000 
     34 CA         26.6370   18.3920   -2.5003 C.3       2 GLC5        0.0000 
     35 CA         27.6920   16.9910   -3.3980 C.3       6 GLL5        0.0000 
     36 CA         25.9490   19.5220   -1.0740 C.3       4 GLP5        0.0000 
     37 CA         28.4165   18.5415   -3.0537 C.3       2 GLC5        0.0000 
     38 CA         26.8663   19.3293   -4.9865 C.3       2 GLC5        0.0000 
     39 CA         26.9580   17.5330   -4.4550 C.3       6 GLL5        0.0000 
     40 CA         26.5820   21.2280   -4.8570 C.3       4 GLP5        0.0000 
     41 CA         28.3435   18.2363   -7.3768 C.3       2 GLC5        0.0000 
     42 CA         27.3430   17.3280   -5.7770 C.3       6 GLL5        0.0000 
     43 CA         28.7700   19.5120   -8.8670 C.3       4 GLP5        0.0000 
     44 CA         29.9405   17.8560   -4.6361 C.3       2 GLC5        0.0000 
     45 CA         28.4910   16.5930   -5.9960 C.3       6 GLL5        0.0000 
     46 CA         31.1140   19.3330   -4.1360 C.3       4 GLP5        0.0000 
     47 CA         28.9389   14.0087    0.8875 C.3       2 GLC5        0.0000 
     48 CA         29.4190   12.3200    1.2260 C.3       4 GLP5        0.0000 
@<TRIPOS>BOND
@<TRIPOS>SUBSTRUCTURE
     1 SEC2       23 GROUP        1 X    SEC  0     ROOT SEC X 2
     2 GLC5        1 GROUP        1 X    GLC  0     **** GLC X 6
     3 SEP2       25 GROUP        1 Y    SEP  0     ROOT SEP Y 9
     4 GLP5        3 GROUP        1 Y    GLP  0     **** GLP Y 13
     5 SEL2       24 GROUP        1 Z    SEL  0     ROOT SEL Z 16
     6 GLL5        2 GROUP        1 Z    GLL  0     **** GLL Z 20
@<TRIPOS>SET

