#    Name: 3u5j_08H_1_ligand
#    Modification time : Mon Mar 24 21:40:44 2014

@<TRIPOS>MOLECULE
3u5j_08H_1_ligand
   35    38     1     0     0
SMALL
NO_CHARGES


@<TRIPOS>ATOM
      1 CAS        29.1210   15.7270   -1.1820 C.ar      1 08H1        0.0000 
      2 CAJ        27.8430   15.1590   -1.0530 C.ar      1 08H1        0.0000 
      3 CAP        27.2860   15.0830    0.2170 C.ar      1 08H1        0.0000 
      4 CLAB       25.7010   14.3890    0.4320 Cl        1 08H1        0.0000 
      5 CAH        27.9150   15.5780    1.3660 C.ar      1 08H1        0.0000 
      6 CAI        29.1920   16.1500    1.2240 C.ar      1 08H1        0.0000 
      7 CAU        29.7630   16.2300   -0.0400 C.ar      1 08H1        0.0000 
      8 NAV        31.0230   16.8100   -0.0460 N.pl3     1 08H1        0.0000 
      9 CAR        31.5330   17.8720    0.6330 C.2       1 08H1        0.0000 
     10 CAA        30.8060   18.8220    1.6030 C.3       1 08H1        0.0000 
     11 NAM        32.8150   18.0370    0.2990 N.2       1 08H1        0.0000 
     12 NAN        33.1510   17.1120   -0.5260 N.2       1 08H1        0.0000 
     13 CAT        32.0580   16.3490   -0.7580 C.2       1 08H1        0.0000 
     14 CAK        31.9560   15.2150   -1.7300 C.3       1 08H1        0.0000 
     15 NAL        30.9790   15.6910   -2.7460 N.2       1 08H1        0.0000 
     16 CAO        29.6510   15.7770   -2.5090 C.2       1 08H1        0.0000 
     17 CAQ        28.8590   16.2640   -3.6140 C.ar      1 08H1        0.0000 
     18 CAF        27.6920   16.9910   -3.3980 C.ar      1 08H1        0.0000 
     19 CAD        26.9580   17.5330   -4.4550 C.ar      1 08H1        0.0000 
     20 CAC        27.3430   17.3280   -5.7770 C.ar      1 08H1        0.0000 
     21 CAE        28.4910   16.5930   -5.9960 C.ar      1 08H1        0.0000 
     22 CAG        29.2270   16.0660   -4.9390 C.ar      1 08H1        0.0000 
     23 H          27.3475   14.8166   -1.8675 H         1 08H1        0.0000 
     24 H          27.4680   15.5272    2.2698 H         1 08H1        0.0000 
     25 H          29.6872   16.5000    2.0448 H         1 08H1        0.0000 
     26 H          31.5827   14.3427   -1.2354 H         1 08H1        0.0000 
     27 H          32.9082   15.0371   -2.1846 H         1 08H1        0.0000 
     28 H          27.3564   17.1354   -2.4250 H         1 08H1        0.0000 
     29 H          26.1143   18.0960   -4.2504 H         1 08H1        0.0000 
     30 H          26.8000   17.7046   -6.5423 H         1 08H1        0.0000 
     31 H          28.8164   16.4271   -6.9692 H         1 08H1        0.0000 
     32 H          30.0807   15.5055   -5.1489 H         1 08H1        0.0000 
     33 H          31.4197   19.5231    1.9660 H         1 08H1        0.0000 
     34 H          30.0476   19.2982    1.1579 H         1 08H1        0.0000 
     35 H          30.4247   18.3319    2.3869 H         1 08H1        0.0000 
@<TRIPOS>BOND
     1    2    1 ar   
     2    7    1 ar   
     3   16    1 1    
     4    3    2 ar   
     5   23    2 1    
     6    4    3 1    
     7    5    3 ar   
     8    6    5 ar   
     9   24    5 1    
    10    7    6 ar   
    11   25    6 1    
    12    8    7 1    
    13    9    8 1    
    14   13    8 1    
    15   10    9 1    
    16   11    9 2    
    17   33   10 1    
    18   34   10 1    
    19   35   10 1    
    20   12   11 1    
    21   13   12 2    
    22   14   13 1    
    23   15   14 1    
    24   26   14 1    
    25   27   14 1    
    26   16   15 2    
    27   17   16 1    
    28   18   17 ar   
    29   22   17 ar   
    30   19   18 ar   
    31   28   18 1    
    32   20   19 ar   
    33   29   19 1    
    34   21   20 ar   
    35   30   20 1    
    36   22   21 ar   
    37   31   21 1    
    38   32   22 1    
@<TRIPOS>SUBSTRUCTURE
     1 08H1        1 GROUP   
@<TRIPOS>SET

