#    Name: 4mq2_2C4_2_INTS_M
#    Modification time : Tue Mar 25 12:20:15 2014

@<TRIPOS>MOLECULE
4mq2_2C4_2_INTS_M
   57     0     9     0     0
SMALL
NO_CHARGES


@<TRIPOS>ATOM
      1 CA        -15.6870  -14.2500  -67.4465 C.3       3 GLC5        0.0000 
      2 CA        -17.0660  -15.6320  -66.4610 C.3       9 GLL5        0.0000 
      3 CA        -14.3080  -12.8680  -68.4320 C.3       6 GLP5        0.0000 
      4 CA        -16.5070  -16.0605  -64.9015 C.3       3 GLC5        0.0000 
      5 CA        -15.9480  -16.4890  -63.3420 C.3       6 GLP5        0.0000 
      6 CA        -19.1245  -12.0980  -69.4650 C.3       3 GLC5        0.0000 
      7 CA        -18.5900  -11.9640  -67.3970 C.3       9 GLL5        0.0000 
      8 CA        -19.6590  -12.2320  -71.5330 C.3       6 GLP5        0.0000 
      9 CA        -16.4490  -12.4160  -67.9145 C.3       3 GLC5        0.0000 
     10 CA        -21.3600   -6.3230  -68.8300 C.3       3 GLC5        0.0000 
     11 CA        -19.2240   -5.7890  -68.8510 C.3       9 GLL5        0.0000 
     12 CA        -23.4960   -6.8570  -68.8090 C.3       6 GLP5        0.0000 
     13 CA        -17.5005   -6.6305  -67.9920 C.3       3 GLC5        0.0000 
     14 CA        -15.7770   -7.4720  -67.1330 C.3       6 GLP5        0.0000 
     15 CA        -17.1500   -3.9255  -71.6345 C.3       3 GLC5        0.0000 
     16 CA        -18.8170   -3.9490  -70.3550 C.3       9 GLL5        0.0000 
     17 CA        -15.4830   -3.9020  -72.9140 C.3       6 GLP5        0.0000 
     18 N         -17.2985   -9.7985  -70.7525 N.am      2 SEC2        0.0000 
     19 N         -18.1530   -9.2530  -69.6360 N.am      8 SEL2        0.0000 
     20 N         -16.4440  -10.3440  -71.8690 N.am      5 SEP2        0.0000 
     21 O         -17.2900  -11.6530  -69.3005 O.2       1 ALC1        0.0000 
     22 O         -18.1970  -11.2210  -68.5120 O.2       7 ALL1        0.0000 
     23 O         -16.3830  -12.0850  -70.0890 O.2       4 ALP1        0.0000 
     24 CA        -21.8230  -11.8830  -65.9070 C.3       3 GLC5        0.0000 
     25 CA        -19.8120  -12.0550  -65.3490 C.3       9 GLL5        0.0000 
     26 CA        -23.8340  -11.7110  -66.4650 C.3       6 GLP5        0.0000 
     27 CA        -17.5475   -8.3550  -67.3940 C.3       3 GLC5        0.0000 
     28 CA        -19.3180   -9.2380  -67.6550 C.3       9 GLL5        0.0000 
     29 CA        -21.7365   -5.0290  -67.4435 C.3       3 GLC5        0.0000 
     30 CA        -19.6440   -4.8820  -67.8850 C.3       9 GLL5        0.0000 
     31 CA        -23.8290   -5.1760  -67.0020 C.3       6 GLP5        0.0000 
     32 CA        -17.9325   -3.8685  -67.1940 C.3       3 GLC5        0.0000 
     33 CA        -16.2210   -2.8550  -66.5030 C.3       6 GLP5        0.0000 
     34 CA        -16.8540   -5.1200  -72.0940 C.3       3 GLC5        0.0000 
     35 CA        -18.2250   -6.3380  -71.2740 C.3       9 GLL5        0.0000 
     36 CA        -18.9580   -5.5385  -72.7080 C.3       3 GLC5        0.0000 
     37 CA        -19.6910   -4.7390  -74.1420 C.3       6 GLP5        0.0000 
     38 CA        -16.2875   -6.5200  -71.0380 C.3       3 GLC5        0.0000 
     39 CA        -14.3500   -6.7020  -70.8020 C.3       6 GLP5        0.0000 
     40 CA        -22.1055   -1.8530  -64.2395 C.3       3 GLC5        0.0000 
     41 CA        -20.3870   -2.4200  -64.8100 C.3       9 GLL5        0.0000 
     42 CA        -23.8240   -1.2860  -63.6690 C.3       6 GLP5        0.0000 
     43 CA        -19.2295   -0.8810  -65.1375 C.3       3 GLC5        0.0000 
     44 CA        -18.0720    0.6580  -65.4650 C.3       6 GLP5        0.0000 
     45 CA        -21.2752   -2.0448  -68.9128 C.3       3 GLC5        0.0000 
     46 CA        -19.2520   -3.0510  -69.4020 C.3       9 GLL5        0.0000 
     47 CA        -23.0980   -0.8060  -69.0490 C.3       6 GLP5        0.0000 
     48 CA        -17.7107   -2.9352  -68.3752 C.3       3 GLC5        0.0000 
     49 CA        -15.9690   -2.5870  -67.9740 C.3       6 GLP5        0.0000 
     50 CA        -19.2485   -4.6822  -72.1755 C.3       3 GLC5        0.0000 
     51 CA        -17.1241   -4.2716  -69.2795 C.3       3 GLC5        0.0000 
     52 CA        -15.3350   -3.7960  -68.6530 C.3       6 GLP5        0.0000 
     53 CA        -20.1215   -6.9355  -71.3733 C.3       3 GLC5        0.0000 
     54 CA        -18.7950   -5.3020  -70.0630 C.3       9 GLL5        0.0000 
     55 CA        -21.7330   -8.0510  -72.0780 C.3       6 GLP5        0.0000 
     56 CA        -21.2082  -10.4007  -67.8989 C.3       3 GLC5        0.0000 
     57 CA        -22.9800  -10.8550  -68.7170 C.3       6 GLP5        0.0000 
@<TRIPOS>BOND
@<TRIPOS>SUBSTRUCTURE
     1 ALC1       21 GROUP        1 X    ALC  0     ROOT ALC X 1
     2 SEC2       18 GROUP        1 X    SEC  0     **** SEC X 2
     3 GLC5        1 GROUP        1 X    GLC  0     **** GLC X 6
     4 ALP1       23 GROUP        1 Y    ALP  0     ROOT ALP Y 8
     5 SEP2       20 GROUP        1 Y    SEP  0     **** SEP Y 9
     6 GLP5        3 GROUP        1 Y    GLP  0     **** GLP Y 13
     7 ALL1       22 GROUP        1 Z    ALL  0     ROOT ALL Z 15
     8 SEL2       19 GROUP        1 Z    SEL  0     **** SEL Z 16
     9 GLL5        2 GROUP        1 Z    GLL  0     **** GLL Z 20
@<TRIPOS>SET

