#    Name: 4mq2_2C4_2_ligand
#    Modification time : Tue Mar 25 12:20:15 2014

@<TRIPOS>MOLECULE
4mq2_2C4_2_ligand
   40    42     1     0     0
SMALL
NO_CHARGES


@<TRIPOS>ATOM
      1 N3        -19.4490  -13.4170  -65.2410 N.ar      1 2C4501      0.0000 
      2 C4        -18.6850  -13.9740  -66.2040 C.ar      1 2C4501      0.0000 
      3 C6        -17.0660  -15.6320  -66.4610 C.3       1 2C4501      0.0000 
      4 C8        -18.5900  -11.9640  -67.3970 C.ar      1 2C4501      0.0000 
      5 C10       -18.5530   -9.8660  -68.6370 C.2       1 2C4501      0.0000 
      6 C13       -19.7280   -9.9850  -66.5690 C.2       1 2C4501      0.0000 
      7 C17       -19.2240   -5.7890  -68.8510 C.ar      1 2C4501      0.0000 
      8 C20       -19.2520   -3.0510  -69.4020 C.ar      1 2C4501      0.0000 
      9 C21       -18.8170   -3.9490  -70.3550 C.ar      1 2C4501      0.0000 
     10 C22       -18.7950   -5.3020  -70.0630 C.ar      1 2C4501      0.0000 
     11 C24       -20.0740   -2.5760  -67.2040 C.2       1 2C4501      0.0000 
     12 O11       -18.1530   -9.2530  -69.6360 O.2       1 2C4501      0.0000 
     13 N9        -18.1970  -11.2210  -68.5120 N.am      1 2C4501      0.0000 
     14 N7        -18.2460  -13.2650  -67.2740 N.ar      1 2C4501      0.0000 
     15 O5        -18.3810  -15.2860  -66.0350 O.3       1 2C4501      0.0000 
     16 C2        -19.8120  -12.0550  -65.3490 C.ar      1 2C4501      0.0000 
     17 C1        -19.3820  -11.3250  -66.4440 C.ar      1 2C4501      0.0000 
     18 C12       -19.3180   -9.2380  -67.6550 C.2       1 2C4501      0.0000 
     19 C14       -19.6590   -7.8890  -67.7130 C.2       1 2C4501      0.0000 
     20 O15       -20.3760   -7.4460  -66.8220 O.2       1 2C4501      0.0000 
     21 N16       -19.0820   -7.1270  -68.7180 N.am      1 2C4501      0.0000 
     22 C18       -19.6440   -4.8820  -67.8850 C.ar      1 2C4501      0.0000 
     23 CL2       -18.2250   -6.3380  -71.2740 Cl        1 2C4501      0.0000 
     24 C19       -19.6530   -3.5160  -68.1510 C.ar      1 2C4501      0.0000 
     25 O25       -19.9660   -1.3570  -67.4250 O.2       1 2C4501      0.0000 
     26 O26       -20.5380   -3.1330  -66.0450 O.3       1 2C4501      0.0000 
     27 C27       -20.3870   -2.4200  -64.8100 C.3       1 2C4501      0.0000 
     28 H         -20.3062   -9.5407  -65.8291 H         1 2C4501      0.0000 
     29 H         -19.2824   -2.0455  -69.6071 H         1 2C4501      0.0000 
     30 H         -18.5099   -3.6166  -71.2791 H         1 2C4501      0.0000 
     31 H         -17.6392  -11.6668  -69.2549 H         1 2C4501      0.0000 
     32 H         -20.3848  -11.6270  -64.6212 H         1 2C4501      0.0000 
     33 H         -18.4832   -7.6491  -69.4336 H         1 2C4501      0.0000 
     34 H         -19.9524   -5.2243  -66.9609 H         1 2C4501      0.0000 
     35 H         -16.3671  -15.1189  -65.9627 H         1 2C4501      0.0000 
     36 H         -16.8732  -16.6030  -66.3196 H         1 2C4501      0.0000 
     37 H         -16.9294  -15.4447  -67.4338 H         1 2C4501      0.0000 
     38 H         -19.4262   -2.2366  -64.6021 H         1 2C4501      0.0000 
     39 H         -20.8561   -1.5371  -64.8311 H         1 2C4501      0.0000 
     40 H         -20.7614   -2.9324  -64.0372 H         1 2C4501      0.0000 
@<TRIPOS>BOND
     1    2    1 ar   
     2   16    1 ar   
     3   14    2 ar   
     4   15    2 1    
     5   15    3 1    
     6   35    3 1    
     7   36    3 1    
     8   37    3 1    
     9   13    4 1    
    10   14    4 ar   
    11   17    4 ar   
    12   12    5 2    
    13   13    5 am   
    14   18    5 1    
    15   17    6 1    
    16   18    6 2    
    17   28    6 1    
    18   10    7 ar   
    19   21    7 1    
    20   22    7 ar   
    21    9    8 ar   
    22   24    8 ar   
    23   29    8 1    
    24   10    9 ar   
    25   30    9 1    
    26   23   10 1    
    27   24   11 1    
    28   25   11 2    
    29   26   11 1    
    30   31   13 1    
    31   17   16 ar   
    32   32   16 1    
    33   19   18 1    
    34   20   19 2    
    35   21   19 am   
    36   33   21 1    
    37   24   22 ar   
    38   34   22 1    
    39   27   26 1    
    40   38   27 1    
    41   39   27 1    
    42   40   27 1    
@<TRIPOS>SUBSTRUCTURE
     1 2C4501      1 GROUP   
@<TRIPOS>SET

