#    Name: 1k4h_APQ_1_INTS_M
#    Modification time : Mon Apr  7 13:13:10 2014

@<TRIPOS>MOLECULE
1k4h_APQ_1_INTS_M
   35     0     9     0     0
SMALL
NO_CHARGES


@<TRIPOS>ATOM
      1 CA         12.5285   12.7575   18.1165 C.3       3 GLC5        0.0000 
      2 CA         12.9290   14.6350   18.0240 C.3       9 GLL5        0.0000 
      3 CA         12.1280   10.8800   18.2090 C.3       6 GLP5        0.0000 
      4 CA         10.6440   14.4545   14.8820 C.3       3 GLC5        0.0000 
      5 CA         11.7970   15.8360   16.1110 C.3       9 GLL5        0.0000 
      6 CA          9.4910   13.0730   13.6530 C.3       6 GLP5        0.0000 
      7 CA         16.5030   14.2035   19.4505 C.3       3 GLC5        0.0000 
      8 CA         14.6910   14.8460   18.4000 C.3       9 GLL5        0.0000 
      9 CA         18.3150   13.5610   20.5010 C.3       6 GLP5        0.0000 
     10 CA         16.4010   14.7475   17.2210 C.3       3 GLC5        0.0000 
     11 CA         18.1110   14.6490   16.0420 C.3       6 GLP5        0.0000 
     12 CA         14.3930   18.4940   19.3250 C.3       3 GLC5        0.0000 
     13 CA         14.9260   16.5260   19.1510 C.3       9 GLL5        0.0000 
     14 CA         13.8600   20.4620   19.4990 C.3       6 GLP5        0.0000 
     15 CA         15.1040   18.5530   21.4975 C.3       3 GLC5        0.0000 
     16 CA         16.5660   17.1270   21.0140 C.3       9 GLL5        0.0000 
     17 CA         13.6420   19.9790   21.9810 C.3       6 GLP5        0.0000 
     18 N          19.5365   18.0505   25.1385 N.am      2 SEC2        0.0000 
     19 N          19.0240   18.0180   23.5010 N.am      8 SEL2        0.0000 
     20 N          20.0490   18.0830   26.7760 N.am      5 SEP2        0.0000 
     21 N          20.4735   17.9665   23.3765 N.am      2 SEC2        0.0000 
     22 N          21.9230   17.9150   23.2520 N.am      5 SEP2        0.0000 
     23 O          20.9360   17.9790   18.4455 O.2       1 ALC1        0.0000 
     24 O          19.7060   17.7150   18.2950 O.2       7 ALL1        0.0000 
     25 O          22.1660   18.2430   18.5960 O.2       4 ALP1        0.0000 
     26 CA         17.3865   15.2963   20.4103 C.3       3 GLC5        0.0000 
     27 CA         16.3500   16.9360   19.6250 C.3       9 GLL5        0.0000 
     28 CA         18.6410   19.4345   22.1065 C.3       3 GLC5        0.0000 
     29 CA         17.8510   17.5110   21.4910 C.3       9 GLL5        0.0000 
     30 CA         18.8910   21.2540   23.1730 C.3       6 GLP5        0.0000 
     31 CA         18.3530   15.5880   20.7705 C.3       3 GLC5        0.0000 
     32 CA         18.1935   15.4500   19.7362 C.3       3 GLC5        0.0000 
     33 CA         18.7120   17.5300   19.1980 C.3       9 GLL5        0.0000 
     34 CA         18.0915   15.9940   17.5068 C.3       3 GLC5        0.0000 
     35 CA         17.4320   17.1480   18.7450 C.3       9 GLL5        0.0000 
@<TRIPOS>BOND
@<TRIPOS>SUBSTRUCTURE
     1 ALC1       23 GROUP        1 X    ALC  0     ROOT ALC X 1
     2 SEC2       18 GROUP        1 X    SEC  0     **** SEC X 2
     3 GLC5        1 GROUP        1 X    GLC  0     **** GLC X 6
     4 ALP1       25 GROUP        1 Y    ALP  0     ROOT ALP Y 8
     5 SEP2       20 GROUP        1 Y    SEP  0     **** SEP Y 9
     6 GLP5        3 GROUP        1 Y    GLP  0     **** GLP Y 13
     7 ALL1       24 GROUP        1 Z    ALL  0     ROOT ALL Z 15
     8 SEL2       19 GROUP        1 Z    SEL  0     **** SEL Z 16
     9 GLL5        2 GROUP        1 Z    GLL  0     **** GLL Z 20
@<TRIPOS>SET

