#    Name: 1k4h_APQ_1_ligand
#    Modification time : Mon Apr  7 13:13:10 2014

@<TRIPOS>MOLECULE
1k4h_APQ_1_ligand
   34    35     1     0     0
SMALL
NO_CHARGES


@<TRIPOS>ATOM
      1 C10        12.9290   14.6350   18.0240 C.3       1 APQ900      0.0000 
      2 C11        12.3480   15.9970   17.5590 C.3       1 APQ900      0.0000 
      3 C12        11.7970   15.8360   16.1110 C.3       1 APQ900      0.0000 
      4 S1         14.6910   14.8460   18.4000 S.3       1 APQ900      0.0000 
      5 C9         14.9260   16.5260   19.1510 C.3       1 APQ900      0.0000 
      6 C2         16.3500   16.9360   19.6250 C.ar      1 APQ900      0.0000 
      7 C3         16.5660   17.1270   21.0140 C.ar      1 APQ900      0.0000 
      8 N3         15.5460   16.9320   21.9280 N.2       1 APQ900      0.0000 
      9 C8         15.6810   17.0890   23.2010 C.2       1 APQ900      0.0000 
     10 N1         16.8540   17.4550   23.7440 N.am      1 APQ900      0.0000 
     11 C7         17.9440   17.6790   23.0040 C.2       1 APQ900      0.0000 
     12 O1         19.0240   18.0180   23.5010 O.2       1 APQ900      0.0000 
     13 C4         17.8510   17.5110   21.4910 C.ar      1 APQ900      0.0000 
     14 C5         18.9310   17.7190   20.5890 C.ar      1 APQ900      0.0000 
     15 C6         18.7120   17.5300   19.1980 C.ar      1 APQ900      0.0000 
     16 N4         19.7060   17.7150   18.2950 N.pl3     1 APQ900      0.0000 
     17 C1         17.4320   17.1480   18.7450 C.ar      1 APQ900      0.0000 
     18 N2         14.6500   16.8820   23.9810 N.pl3     1 APQ900      0.0000 
     19 H          12.9376   13.9065   17.2640 H         1 APQ900      0.0000 
     20 H          12.5317   14.3062   18.9419 H         1 APQ900      0.0000 
     21 H          13.1281   16.7348   17.5584 H         1 APQ900      0.0000 
     22 H          11.5442   16.2822   18.2114 H         1 APQ900      0.0000 
     23 H          14.1963   16.5046   19.9652 H         1 APQ900      0.0000 
     24 H          14.5377   17.1742   18.3605 H         1 APQ900      0.0000 
     25 H          16.9140   17.5693   24.7968 H         1 APQ900      0.0000 
     26 H          19.8397   17.9969   20.9330 H         1 APQ900      0.0000 
     27 H          20.6381   17.5893   18.6347 H         1 APQ900      0.0000 
     28 H          19.4192   17.9608   17.3691 H         1 APQ900      0.0000 
     29 H          17.2804   17.0179   17.7254 H         1 APQ900      0.0000 
     30 H          14.8068   17.0087   24.9605 H         1 APQ900      0.0000 
     31 H          13.8002   16.6162   23.5258 H         1 APQ900      0.0000 
     32 H          12.5114   15.5526   15.4712 H         1 APQ900      0.0000 
     33 H          11.0719   15.1490   16.0638 H         1 APQ900      0.0000 
     34 H          11.4136   16.6912   15.7623 H         1 APQ900      0.0000 
@<TRIPOS>BOND
     1    2    1 1    
     2    4    1 1    
     3   19    1 1    
     4   20    1 1    
     5    3    2 1    
     6   21    2 1    
     7   22    2 1    
     8   32    3 1    
     9   33    3 1    
    10   34    3 1    
    11    5    4 1    
    12    6    5 1    
    13   23    5 1    
    14   24    5 1    
    15    7    6 ar   
    16   17    6 ar   
    17    8    7 1    
    18   13    7 ar   
    19    9    8 2    
    20   10    9 1    
    21   18    9 1    
    22   11   10 am   
    23   25   10 1    
    24   12   11 2    
    25   13   11 1    
    26   14   13 ar   
    27   15   14 ar   
    28   26   14 1    
    29   16   15 1    
    30   17   15 ar   
    31   27   16 1    
    32   28   16 1    
    33   29   17 1    
    34   30   18 1    
    35   31   18 1    
@<TRIPOS>SUBSTRUCTURE
     1 APQ900      1 GROUP   
@<TRIPOS>SET

