#    Name: 3flq_891_1_INTS_M
#    Modification time : Tue Mar 25 06:03:08 2014

@<TRIPOS>MOLECULE
3flq_891_1_INTS_M
   66     0     9     0     0
SMALL
NO_CHARGES


@<TRIPOS>ATOM
      1 CA         23.2470    6.4980   33.5565 C.3       3 GLC5        0.0000 
      2 CA         23.7320    8.1150   32.4090 C.3       9 GLL5        0.0000 
      3 CA         22.7620    4.8810   34.7040 C.3       6 GLP5        0.0000 
      4 CA         23.9730    7.1390   30.6440 C.3       3 GLC5        0.0000 
      5 CA         24.2140    6.1630   28.8790 C.3       6 GLP5        0.0000 
      6 CA         18.9120    9.1325   31.0950 C.3       3 GLC5        0.0000 
      7 CA         20.3110   10.3110   31.7690 C.3       9 GLL5        0.0000 
      8 CA         17.5130    7.9540   30.4210 C.3       6 GLP5        0.0000 
      9 CA         21.3930   10.3755   34.5325 C.3       3 GLC5        0.0000 
     10 CA         22.5400   10.1260   32.6620 C.3       9 GLL5        0.0000 
     11 CA         20.2460   10.6250   36.4030 C.3       6 GLP5        0.0000 
     12 CA         20.2315   11.1270   34.3210 C.3       3 GLC5        0.0000 
     13 CA         20.2170   11.6290   32.2390 C.3       9 GLL5        0.0000 
     14 CA         25.5680    7.1360   30.2235 C.3       3 GLC5        0.0000 
     15 CA         26.9220    8.1090   31.5680 C.3       9 GLL5        0.0000 
     16 CA         12.6835   10.0315   30.0945 C.3       3 GLC5        0.0000 
     17 CA         14.2110   10.2190   30.7440 C.3       9 GLL5        0.0000 
     18 CA         11.1560    9.8440   29.4450 C.3       6 GLP5        0.0000 
     19 CA         13.6925    8.7690   31.9615 C.3       3 GLC5        0.0000 
     20 CA         13.1740    7.3190   33.1790 C.3       6 GLP5        0.0000 
     21 CA         15.2315    8.8365   30.2130 C.3       3 GLC5        0.0000 
     22 CA         16.2520    7.4540   29.6820 C.3       6 GLP5        0.0000 
     23 CA         16.6485   13.7870   31.8870 C.3       3 GLC5        0.0000 
     24 CA         17.2510   12.1970   30.5230 C.3       9 GLL5        0.0000 
     25 CA         16.0460   15.3770   33.2510 C.3       6 GLP5        0.0000 
     26 CA         14.5910    8.8585   32.7150 C.3       3 GLC5        0.0000 
     27 CA         16.0080   10.3980   32.2510 C.3       9 GLL5        0.0000 
     28 CA         19.0420   10.6120   35.0695 C.3       3 GLC5        0.0000 
     29 CA         17.8380   10.5990   33.7360 C.3       9 GLL5        0.0000 
     30 CA         16.8290    9.4870   35.2565 C.3       3 GLC5        0.0000 
     31 CA         15.8200    8.3750   36.7770 C.3       6 GLP5        0.0000 
     32 CA         17.4640   13.3985   32.9985 C.3       3 GLC5        0.0000 
     33 CA         17.8650   11.8400   31.7180 C.3       9 GLL5        0.0000 
     34 CA         17.0630   14.9570   34.2790 C.3       6 GLP5        0.0000 
     35 CA         19.5395    8.1000   30.9685 C.3       3 GLC5        0.0000 
     36 CA         21.5660    8.2460   31.5160 C.3       9 GLL5        0.0000 
     37 CA         21.4915    6.0565   31.7600 C.3       3 GLC5        0.0000 
     38 CA         21.4170    3.8670   32.0040 C.3       6 GLP5        0.0000 
     39 CA         22.2345    7.3220   29.8170 C.3       3 GLC5        0.0000 
     40 CA         22.9030    6.3980   28.1180 C.3       6 GLP5        0.0000 
     41 N          22.9420    6.1925   31.2120 N.am      2 SEC2        0.0000 
     42 N          22.6920    7.5500   31.7400 N.am      8 SEL2        0.0000 
     43 N          23.1920    4.8350   30.6840 N.am      5 SEP2        0.0000 
     44 CA         21.9260   11.3355   35.1305 C.3       3 GLC5        0.0000 
     45 CA         23.6060   12.0460   33.8580 C.3       9 GLL5        0.0000 
     46 O          25.3545    6.2100   32.0580 O.2       1 ALC1        0.0000 
     47 O          24.8760    7.4140   32.6240 O.2       7 ALL1        0.0000 
     48 O          25.8330    5.0060   31.4920 O.2       4 ALP1        0.0000 
     49 CA         16.6085    9.5775   30.5220 C.3       3 GLC5        0.0000 
     50 CA         16.0120   11.6500   30.1890 C.3       9 GLL5        0.0000 
     51 CA         14.2324   12.2134   29.5064 C.3       3 GLC5        0.0000 
     52 CA         15.3960   10.7520   31.0570 C.3       9 GLL5        0.0000 
     53 CA         13.0570   13.3590   28.4680 C.3       6 GLP5        0.0000 
     54 CA         17.1307   11.1245   28.9415 C.3       3 GLC5        0.0000 
     55 CA         17.7840   10.5500   27.3100 C.3       6 GLP5        0.0000 
     56 CA         17.5355    9.9863   30.7707 C.3       3 GLC5        0.0000 
     57 CA         13.8369   11.1529   32.2369 C.3       3 GLC5        0.0000 
     58 CA         12.2680   11.8640   32.8980 C.3       6 GLP5        0.0000 
     59 CA         18.4913    9.0527   33.6022 C.3       3 GLC5        0.0000 
     60 CA         17.2430   10.9440   32.5810 C.3       9 GLL5        0.0000 
     61 CA         19.4420    7.3340   34.0460 C.3       6 GLP5        0.0000 
     62 CA         16.6109   11.7860   34.2110 C.3       3 GLC5        0.0000 
     63 CA         15.9900   12.9370   35.3460 C.3       6 GLP5        0.0000 
     64 CA         17.3724    9.2945   31.7485 C.3       3 GLC5        0.0000 
     65 CA         20.5410    8.2361   32.9692 C.3       3 GLC5        0.0000 
     66 CA         21.4650    9.5580   31.9820 C.3       9 GLL5        0.0000 
@<TRIPOS>BOND
@<TRIPOS>SUBSTRUCTURE
     1 ALC1       46 GROUP        1 X    ALC  0     ROOT ALC X 1
     2 SEC2       41 GROUP        1 X    SEC  0     **** SEC X 2
     3 GLC5        1 GROUP        1 X    GLC  0     **** GLC X 6
     4 ALP1       48 GROUP        1 Y    ALP  0     ROOT ALP Y 8
     5 SEP2       43 GROUP        1 Y    SEP  0     **** SEP Y 9
     6 GLP5        3 GROUP        1 Y    GLP  0     **** GLP Y 13
     7 ALL1       47 GROUP        1 Z    ALL  0     ROOT ALL Z 15
     8 SEL2       42 GROUP        1 Z    SEL  0     **** SEL Z 16
     9 GLL5        2 GROUP        1 Z    GLL  0     **** GLL Z 20
@<TRIPOS>SET

