#    Name: 3flq_891_1_ligand
#    Modification time : Tue Mar 25 06:03:08 2014

@<TRIPOS>MOLECULE
3flq_891_1_ligand
   47    49     1     0     0
SMALL
NO_CHARGES


@<TRIPOS>ATOM
      1 C16        23.7320    8.1150   32.4090 C.ar      1 891361      0.0000 
      2 C13        21.4650    9.5580   31.9820 C.ar      1 891361      0.0000 
      3 C11        20.3110   10.3110   31.7690 C.2       1 891361      0.0000 
      4 C12        22.5400   10.1260   32.6620 C.ar      1 891361      0.0000 
      5 C10        20.2170   11.6290   32.2390 C.2       1 891361      0.0000 
      6 C1         26.1520    8.0810   32.8910 C.3       1 891361      0.0000 
      7 C2         26.9380    7.3110   33.9470 C.3       1 891361      0.0000 
      8 C5         26.5250   10.8180   31.4180 C.3       1 891361      0.0000 
      9 N8         22.4660   11.4560   33.1390 N.am      1 891361      0.0000 
     10 C3         26.9220    8.1090   31.5680 C.3       1 891361      0.0000 
     11 F29        14.2110   10.2190   30.7440 F         1 891361      0.0000 
     12 C25        15.3960   10.7520   31.0570 C.ar      1 891361      0.0000 
     13 C24        16.0120   11.6500   30.1890 C.ar      1 891361      0.0000 
     14 C23        17.2510   12.1970   30.5230 C.ar      1 891361      0.0000 
     15 C26        16.0080   10.3980   32.2510 C.ar      1 891361      0.0000 
     16 C27        17.2430   10.9440   32.5810 C.ar      1 891361      0.0000 
     17 F28        17.8380   10.5990   33.7360 F         1 891361      0.0000 
     18 C21        17.8650   11.8400   31.7180 C.ar      1 891361      0.0000 
     19 O20        19.0840   12.3860   32.0440 O.3       1 891361      0.0000 
     20 C9         21.2820   12.2080   32.9150 C.2       1 891361      0.0000 
     21 O18        21.1770   13.3890   33.3220 O.2       1 891361      0.0000 
     22 C14        21.5660    8.2460   31.5160 C.ar      1 891361      0.0000 
     23 N15        22.6920    7.5500   31.7400 N.ar      1 891361      0.0000 
     24 N17        23.6500    9.3890   32.8620 N.ar      1 891361      0.0000 
     25 C22        23.6060   12.0460   33.8580 C.3       1 891361      0.0000 
     26 N19        24.8760    7.4140   32.6240 N.pl3     1 891361      0.0000 
     27 S4         26.4480    9.3740   30.5890 S.o2      1 891361      0.0000 
     28 O6         27.3240    9.4080   29.4490 O.2       1 891361      0.0000 
     29 O7         25.1120    9.1640   30.0980 O.2       1 891361      0.0000 
     30 H          19.5152    9.8971   31.2602 H         1 891361      0.0000 
     31 H          25.9950    9.0817   33.2159 H         1 891361      0.0000 
     32 H          26.7476    7.2102   30.9938 H         1 891361      0.0000 
     33 H          27.9812    8.2450   31.7337 H         1 891361      0.0000 
     34 H          15.5572   11.9090   29.3070 H         1 891361      0.0000 
     35 H          17.7064   12.8612   29.8866 H         1 891361      0.0000 
     36 H          15.5513    9.7354   32.8890 H         1 891361      0.0000 
     37 H          20.7679    7.8361   31.0059 H         1 891361      0.0000 
     38 H          24.8928    6.3788   32.6079 H         1 891361      0.0000 
     39 H          27.8317    7.7249   34.1199 H         1 891361      0.0000 
     40 H          26.4544    7.2815   34.8218 H         1 891361      0.0000 
     41 H          27.1020    6.3640   33.6707 H         1 891361      0.0000 
     42 H          27.4510   11.0111   31.7424 H         1 891361      0.0000 
     43 H          26.2479   11.5899   30.8459 H         1 891361      0.0000 
     44 H          25.9275   10.8182   32.2199 H         1 891361      0.0000 
     45 H          24.4323   12.0618   33.2949 H         1 891361      0.0000 
     46 H          23.4223   12.9890   34.1355 H         1 891361      0.0000 
     47 H          23.8268   11.5340   34.6881 H         1 891361      0.0000 
@<TRIPOS>BOND
     1   23    1 ar   
     2   24    1 ar   
     3   26    1 1    
     4    3    2 1    
     5    4    2 ar   
     6   22    2 ar   
     7    5    3 2    
     8   30    3 1    
     9    9    4 1    
    10   24    4 ar   
    11   19    5 1    
    12   20    5 1    
    13    7    6 1    
    14   10    6 1    
    15   26    6 1    
    16   31    6 1    
    17   39    7 1    
    18   40    7 1    
    19   41    7 1    
    20   27    8 1    
    21   42    8 1    
    22   43    8 1    
    23   44    8 1    
    24   20    9 am   
    25   25    9 1    
    26   27   10 1    
    27   32   10 1    
    28   33   10 1    
    29   12   11 1    
    30   13   12 ar   
    31   15   12 ar   
    32   14   13 ar   
    33   34   13 1    
    34   18   14 ar   
    35   35   14 1    
    36   16   15 ar   
    37   36   15 1    
    38   17   16 1    
    39   18   16 ar   
    40   19   18 1    
    41   21   20 2    
    42   23   22 ar   
    43   37   22 1    
    44   45   25 1    
    45   46   25 1    
    46   47   25 1    
    47   38   26 1    
    48   28   27 2    
    49   29   27 2    
@<TRIPOS>SUBSTRUCTURE
     1 891361      1 GROUP   
@<TRIPOS>SET

