#    Name: 4b11_7I1_5_INTS_M
#    Modification time : Tue Mar 25 06:29:05 2014

@<TRIPOS>MOLECULE
4b11_7I1_5_INTS_M
   63     0     6     0     0
SMALL
NO_CHARGES


@<TRIPOS>ATOM
      1 CA          2.8160   -6.7750   91.7290 C.3       2 GLC5        0.0000 
      2 CA          2.9060   -8.7260   92.5340 C.3       6 GLL5        0.0000 
      3 CA          2.7260   -4.8240   90.9240 C.3       4 GLP5        0.0000 
      4 CA          1.9705  -15.3265   92.0085 C.3       2 GLC5        0.0000 
      5 CA          3.3380  -13.6380   92.1390 C.3       6 GLL5        0.0000 
      6 CA          0.6030  -17.0150   91.8780 C.3       4 GLP5        0.0000 
      7 CA          0.9125  -14.8910   92.3785 C.3       2 GLC5        0.0000 
      8 CA          1.2220  -12.7670   92.8790 C.3       6 GLL5        0.0000 
      9 CA          4.6905  -10.8335   87.6430 C.3       2 GLC5        0.0000 
     10 CA          5.2880   -9.1080   87.2180 C.3       6 GLL5        0.0000 
     11 CA          4.0930  -12.5590   88.0680 C.3       4 GLP5        0.0000 
     12 CA          6.3290   -7.8565   85.7860 C.3       2 GLC5        0.0000 
     13 CA          7.3700   -6.6050   84.3540 C.3       4 GLP5        0.0000 
     14 CA          4.2675   -7.1380   83.8400 C.3       2 GLC5        0.0000 
     15 CA          2.9470   -8.4490   85.0480 C.3       6 GLL5        0.0000 
     16 CA          5.5880   -5.8270   82.6320 C.3       4 GLP5        0.0000 
     17 CA          1.4920   -6.2760   83.5685 C.3       2 GLC5        0.0000 
     18 CA          1.7690   -8.0640   84.3490 C.3       6 GLL5        0.0000 
     19 CA          1.2150   -4.4880   82.7880 C.3       4 GLP5        0.0000 
     20 CA          1.9595  -11.7430   82.0355 C.3       2 GLC5        0.0000 
     21 CA          3.4030  -10.8120   83.4350 C.3       6 GLL5        0.0000 
     22 CA          0.5160  -12.6740   80.6360 C.3       4 GLP5        0.0000 
     23 CA          1.3650  -10.8645   83.9850 C.3       2 GLC5        0.0000 
     24 CA         -0.6730  -10.9170   84.5350 C.3       4 GLP5        0.0000 
     25 CA          4.7975  -12.3855   85.9490 C.3       2 GLC5        0.0000 
     26 CA          4.2520  -11.7380   84.2180 C.3       6 GLL5        0.0000 
     27 CA          5.3430  -13.0330   87.6800 C.3       4 GLP5        0.0000 
     28 OD1         5.6970  -12.1650   82.2205 O.co2     1 ASC3        0.0000 
     29 OD1         5.6310  -11.7930   83.7360 O.co2     5 ASL3        0.0000 
     30 OD1         5.7630  -12.5370   80.7050 O.co2     3 ASP3        0.0000 
     31 OD1         4.7975  -12.7050   82.5155 O.co2     1 ASC3        0.0000 
     32 OD1         3.9640  -13.6170   81.2950 O.co2     3 ASP3        0.0000 
     33 CA          6.8715   -8.6515   83.7430 C.3       2 GLC5        0.0000 
     34 CA          6.3730  -10.6980   83.1320 C.3       6 GLL5        0.0000 
     35 CA          6.7005  -12.6255   90.8780 C.3       2 GLC5        0.0000 
     36 CA          5.1810  -12.1350   91.6330 C.3       6 GLL5        0.0000 
     37 CA          8.4710  -12.4690   90.0670 C.3       4 GLP5        0.0000 
     38 CA          6.3805  -13.5540   92.8215 C.3       2 GLC5        0.0000 
     39 CA          7.8310  -14.3260   93.9540 C.3       4 GLP5        0.0000 
     40 CA          5.3365  -11.8834   93.4760 C.3       2 GLC5        0.0000 
     41 CA          4.6790  -13.4290   91.7450 C.3       6 GLL5        0.0000 
     42 CA          5.9450  -11.2580   95.1840 C.3       4 GLP5        0.0000 
     43 CA          3.7985  -11.9895   94.0024 C.3       2 GLC5        0.0000 
     44 CA          3.0800  -11.2520   92.3860 C.3       6 GLL5        0.0000 
     45 CA          4.5230  -11.2110   95.7180 C.3       4 GLP5        0.0000 
     46 CA          2.5615  -14.1455   93.7980 C.3       2 GLC5        0.0000 
     47 CA          2.5400  -12.5440   92.4830 C.3       6 GLL5        0.0000 
     48 CA          2.1840  -15.2000   95.2850 C.3       4 GLP5        0.0000 
     49 CA          1.5060  -13.7018   94.1587 C.3       2 GLC5        0.0000 
     50 CA          3.1652  -10.5516   94.2830 C.3       2 GLC5        0.0000 
     51 CA          1.0080  -10.3580   93.0800 C.3       6 GLL5        0.0000 
     52 CA          0.8634   -6.0427   86.7893 C.3       2 GLC5        0.0000 
     53 CA          1.7860   -7.9580   87.1020 C.3       6 GLL5        0.0000 
     54 CA          0.8180   -4.3800   87.6830 C.3       4 GLP5        0.0000 
     55 CA         -1.2880   -8.3412   86.1385 C.3       2 GLC5        0.0000 
     56 CA          0.6110   -7.5700   86.4520 C.3       6 GLL5        0.0000 
     57 CA         -3.1910   -9.0740   86.5440 C.3       4 GLP5        0.0000 
     58 CA          1.3005   -5.8703   84.9215 C.3       2 GLC5        0.0000 
     59 CA          1.9860   -4.1320   84.1100 C.3       4 GLP5        0.0000 
     60 CA          5.1993   -7.6963   82.7350 C.3       2 GLC5        0.0000 
     61 CA          4.1240   -9.4890   83.1650 C.3       6 GLL5        0.0000 
     62 CA          3.0263  -13.0570   84.3742 C.3       2 GLC5        0.0000 
     63 CA          2.2250  -14.8390   84.9220 C.3       4 GLP5        0.0000 
@<TRIPOS>BOND
@<TRIPOS>SUBSTRUCTURE
     1 ASC3       28 GROUP        1 X    ASC  0     ROOT ASC X 3
     2 GLC5        1 GROUP        1 X    GLC  0     **** GLC X 6
     3 ASP3       30 GROUP        1 Y    ASP  0     ROOT ASP Y 10
     4 GLP5        3 GROUP        1 Y    GLP  0     **** GLP Y 13
     5 ASL3       29 GROUP        1 Z    ASL  0     ROOT ASL Z 17
     6 GLL5        2 GROUP        1 Z    GLL  0     **** GLL Z 20
@<TRIPOS>SET

