#    Name: 4b11_7I1_5_ligand
#    Modification time : Tue Mar 25 06:29:05 2014

@<TRIPOS>MOLECULE
4b11_7I1_5_ligand
   56    60     1     0     0
SMALL
NO_CHARGES


@<TRIPOS>ATOM
      1 O2          4.8870   -8.5280   90.2840 O.2       1 7I1999      0.0000 
      2 C14         3.6590   -8.4250   90.1180 C.2       1 7I1999      0.0000 
      3 N1          2.7540   -8.3280   91.1200 N.am      1 7I1999      0.0000 
      4 C15         2.9060   -8.7260   92.5340 C.3       1 7I1999      0.0000 
      5 C16         2.3080  -10.1270   92.6980 C.ar      1 7I1999      0.0000 
      6 C25         3.0800  -11.2520   92.3860 C.ar      1 7I1999      0.0000 
      7 C24         4.3730  -11.0420   91.9490 C.ar      1 7I1999      0.0000 
      8 C23         5.1810  -12.1350   91.6330 C.ar      1 7I1999      0.0000 
      9 C22         4.6790  -13.4290   91.7450 C.ar      1 7I1999      0.0000 
     10 C21         3.3380  -13.6380   92.1390 C.ar      1 7I1999      0.0000 
     11 C20         2.5400  -12.5440   92.4830 C.ar      1 7I1999      0.0000 
     12 C19         1.2220  -12.7670   92.8790 C.ar      1 7I1999      0.0000 
     13 C18         0.4340  -11.6400   93.1860 C.ar      1 7I1999      0.0000 
     14 C17         1.0080  -10.3580   93.0800 C.ar      1 7I1999      0.0000 
     15 C2          3.1840   -8.3580   88.6850 C.2       1 7I1999      0.0000 
     16 O           2.0260   -7.9800   88.4270 O.3       1 7I1999      0.0000 
     17 C3          1.7860   -7.9580   87.1020 C.ar      1 7I1999      0.0000 
     18 C13         2.9450   -8.3710   86.4460 C.ar      1 7I1999      0.0000 
     19 C1          3.8860   -8.6090   87.5050 C.2       1 7I1999      0.0000 
     20 C           5.2880   -9.1080   87.2180 C.3       1 7I1999      0.0000 
     21 C7          2.9470   -8.4490   85.0480 C.ar      1 7I1999      0.0000 
     22 C6          1.7690   -8.0640   84.3490 C.ar      1 7I1999      0.0000 
     23 C5          0.6190   -7.6470   85.0140 C.ar      1 7I1999      0.0000 
     24 C4          0.6110   -7.5700   86.4520 C.ar      1 7I1999      0.0000 
     25 O1          4.1370   -8.8460   84.4760 O.3       1 7I1999      0.0000 
     26 C8          4.1240   -9.4890   83.1650 C.3       1 7I1999      0.0000 
     27 C12         3.4030  -10.8120   83.4350 C.3       1 7I1999      0.0000 
     28 C11         4.2520  -11.7380   84.2180 C.3       1 7I1999      0.0000 
     29 N           5.6310  -11.7930   83.7360 N.4       1 7I1999      0.0000 
     30 C10         6.3730  -10.6980   83.1320 C.3       1 7I1999      0.0000 
     31 C9          5.4970   -9.6420   82.5110 C.3       1 7I1999      0.0000 
     32 H           1.7798   -7.9107   90.9016 H         1 7I1999      0.0000 
     33 H           2.3735   -8.0449   93.1852 H         1 7I1999      0.0000 
     34 H           3.9510   -8.7617   92.8139 H         1 7I1999      0.0000 
     35 H           4.7440  -10.0894   91.8549 H         1 7I1999      0.0000 
     36 H           6.1471  -11.9834   91.3175 H         1 7I1999      0.0000 
     37 H           5.2759  -14.2377   91.5433 H         1 7I1999      0.0000 
     38 H           2.9610  -14.5864   92.1698 H         1 7I1999      0.0000 
     39 H           0.8404  -13.6971   92.9454 H         1 7I1999      0.0000 
     40 H          -0.5312  -11.7502   93.4787 H         1 7I1999      0.0000 
     41 H           0.3904   -9.5327   93.3112 H         1 7I1999      0.0000 
     42 H           1.7803   -8.0995   83.3126 H         1 7I1999      0.0000 
     43 H          -0.2254   -7.3924   84.5039 H         1 7I1999      0.0000 
     44 H          -0.1969   -7.2552   86.9373 H         1 7I1999      0.0000 
     45 H           3.4674   -8.9120   82.5032 H         1 7I1999      0.0000 
     46 H           3.1344  -11.2619   82.4723 H         1 7I1999      0.0000 
     47 H           2.4746  -10.5955   83.9758 H         1 7I1999      0.0000 
     48 H           3.8029  -12.7532   84.1904 H         1 7I1999      0.0000 
     49 H           4.2382  -11.4290   85.2845 H         1 7I1999      0.0000 
     50 H           7.0615  -11.0841   82.3488 H         1 7I1999      0.0000 
     51 H           7.0242  -10.2091   83.8892 H         1 7I1999      0.0000 
     52 H           6.0158   -8.6644   82.5514 H         1 7I1999      0.0000 
     53 H           5.3507   -9.8713   81.4374 H         1 7I1999      0.0000 
     54 H           5.9841   -8.4996   87.5992 H         1 7I1999      0.0000 
     55 H           5.4464  -10.0152   87.6078 H         1 7I1999      0.0000 
     56 H           5.4642   -9.1761   86.2360 H         1 7I1999      0.0000 
@<TRIPOS>BOND
     1    2    1 2    
     2    3    2 am   
     3   15    2 1    
     4    4    3 1    
     5   32    3 1    
     6    5    4 1    
     7   33    4 1    
     8   34    4 1    
     9    6    5 ar   
    10   14    5 ar   
    11    7    6 ar   
    12   11    6 ar   
    13    8    7 ar   
    14   35    7 1    
    15    9    8 ar   
    16   36    8 1    
    17   10    9 ar   
    18   37    9 1    
    19   11   10 ar   
    20   38   10 1    
    21   12   11 ar   
    22   13   12 ar   
    23   39   12 1    
    24   14   13 ar   
    25   40   13 1    
    26   41   14 1    
    27   16   15 1    
    28   19   15 2    
    29   17   16 1    
    30   18   17 ar   
    31   24   17 ar   
    32   19   18 1    
    33   21   18 ar   
    34   20   19 1    
    35   54   20 1    
    36   55   20 1    
    37   56   20 1    
    38   22   21 ar   
    39   25   21 1    
    40   23   22 ar   
    41   42   22 1    
    42   24   23 ar   
    43   43   23 1    
    44   44   24 1    
    45   26   25 1    
    46   27   26 1    
    47   31   26 1    
    48   45   26 1    
    49   28   27 1    
    50   46   27 1    
    51   47   27 1    
    52   29   28 1    
    53   48   28 1    
    54   49   28 1    
    55   30   29 1    
    56   31   30 1    
    57   50   30 1    
    58   51   30 1    
    59   52   31 1    
    60   53   31 1    
@<TRIPOS>SUBSTRUCTURE
     1 7I1999      1 GROUP   
@<TRIPOS>SET

