#    Name: 4ite_TEY_1_INTS_M
#    Modification time : Tue Mar 25 04:33:32 2014

@<TRIPOS>MOLECULE
4ite_TEY_1_INTS_M
  135     0     9     0     0
SMALL
NO_CHARGES


@<TRIPOS>ATOM
      1 N           4.9210    1.9715  -31.6780 N.am      2 SEC2        0.0000 
      2 N           4.2960    0.8560  -31.1150 N.am      8 SEL2        0.0000 
      3 N           5.5460    3.0870  -32.2410 N.am      5 SEP2        0.0000 
      4 N           4.7235    0.9910  -29.8275 N.am      2 SEC2        0.0000 
      5 N           5.1510    1.1260  -28.5400 N.am      5 SEP2        0.0000 
      6 CA          4.9690    1.7970  -31.5390 C.3       3 GLC5        0.0000 
      7 CA          4.6400   -0.3700  -31.7940 C.3       9 GLL5        0.0000 
      8 CA          5.2980    3.9640  -31.2840 C.3       6 GLP5        0.0000 
      9 CA          2.1365   -0.2650  -30.6505 C.3       3 GLC5        0.0000 
     10 CA          3.6640   -1.4870  -31.4590 C.3       9 GLL5        0.0000 
     11 CA          0.6090    0.9570  -29.8420 C.3       6 GLP5        0.0000 
     12 CA          2.1930   -2.6755  -31.2560 C.3       3 GLC5        0.0000 
     13 CA          0.7220   -3.8640  -31.0530 C.3       6 GLP5        0.0000 
     14 CA          3.3840   -2.3035  -29.5775 C.3       3 GLC5        0.0000 
     15 CA          3.1040   -3.1200  -27.6960 C.3       6 GLP5        0.0000 
     16 CA          3.7790   -0.1290  -34.8255 C.3       3 GLC5        0.0000 
     17 CA          4.5370   -0.1600  -33.2850 C.3       9 GLL5        0.0000 
     18 CA          3.0210   -0.0980  -36.3660 C.3       6 GLP5        0.0000 
     19 CA          5.4545    1.7505  -33.2295 C.3       3 GLC5        0.0000 
     20 CA          6.3720    3.6610  -33.1740 C.3       6 GLP5        0.0000 
     21 CA          3.0990    1.2720  -33.5875 C.3       3 GLC5        0.0000 
     22 CA          1.6610    2.7040  -33.8900 C.3       6 GLP5        0.0000 
     23 CA          6.7645    1.8995  -32.4240 C.3       3 GLC5        0.0000 
     24 CA          7.1570    0.1380  -31.6740 C.3       9 GLL5        0.0000 
     25 CA          8.1440   -0.8580  -28.9455 C.3       3 GLC5        0.0000 
     26 CA          8.4200   -0.3470  -30.9730 C.3       9 GLL5        0.0000 
     27 CA          7.8680   -1.3690  -26.9180 C.3       6 GLP5        0.0000 
     28 CA          7.9565    2.8055  -31.9460 C.3       3 GLC5        0.0000 
     29 CA          9.5410    1.9500  -30.7180 C.3       9 GLL5        0.0000 
     30 CA          9.2065    3.5195  -29.9145 C.3       3 GLC5        0.0000 
     31 CA          8.8720    5.0890  -29.1110 C.3       6 GLP5        0.0000 
     32 CA         11.5880    2.1815  -30.1340 C.3       3 GLC5        0.0000 
     33 CA         13.6350    2.4130  -29.5500 C.3       6 GLP5        0.0000 
     34 CA          7.7975    2.0350  -29.4860 C.3       3 GLC5        0.0000 
     35 CA          6.0540    2.1200  -28.2540 C.3       6 GLP5        0.0000 
     36 CA          9.5345   -1.0635  -28.3140 C.3       3 GLC5        0.0000 
     37 CA         11.2010   -0.7580  -29.7100 C.3       9 GLL5        0.0000 
     38 CA          9.2405   -3.3390  -32.0495 C.3       3 GLC5        0.0000 
     39 CA         10.7650   -2.3800  -32.2700 C.3       9 GLL5        0.0000 
     40 CA          7.7160   -4.2980  -31.8290 C.3       6 GLP5        0.0000 
     41 CA         11.6900   -2.0680  -35.7795 C.3       3 GLC5        0.0000 
     42 CA         12.8990   -1.3930  -34.2930 C.3       9 GLL5        0.0000 
     43 CA         10.4810   -2.7430  -37.2660 C.3       6 GLP5        0.0000 
     44 CA         14.9785   -0.6925  -34.0950 C.3       3 GLC5        0.0000 
     45 CA         17.0580    0.0080  -33.8970 C.3       6 GLP5        0.0000 
     46 CA         15.7095   -1.5700  -33.3115 C.3       3 GLC5        0.0000 
     47 CA         14.0830   -2.0390  -33.5380 C.3       9 GLL5        0.0000 
     48 CA         17.3360   -1.1010  -33.0850 C.3       6 GLP5        0.0000 
     49 CA         14.8445   -0.5900  -31.2195 C.3       3 GLC5        0.0000 
     50 CA         12.8840   -1.4050  -31.3670 C.3       9 GLL5        0.0000 
     51 CA         16.8050    0.2250  -31.0720 C.3       6 GLP5        0.0000 
     52 CA         15.4150   -1.7210  -31.9165 C.3       3 GLC5        0.0000 
     53 CA         13.6210   -2.4750  -32.1550 C.3       9 GLL5        0.0000 
     54 CA         17.2090   -0.9670  -31.6780 C.3       6 GLP5        0.0000 
     55 CA         14.6290   -8.6535  -34.5685 C.3       3 GLC5        0.0000 
     56 CA         15.1820   -7.0190  -33.1310 C.3       9 GLL5        0.0000 
     57 CA         14.0760  -10.2880  -36.0060 C.3       6 GLP5        0.0000 
     58 CA         13.3240   -7.6155  -34.0020 C.3       3 GLC5        0.0000 
     59 CA         11.4660   -8.2120  -34.8730 C.3       6 GLP5        0.0000 
     60 CA         12.4640   -7.4595  -33.0655 C.3       3 GLC5        0.0000 
     61 CA         13.4620   -6.7070  -31.2580 C.3       9 GLL5        0.0000 
     62 CA         11.4745   -6.6075  -32.9385 C.3       3 GLC5        0.0000 
     63 CA         12.1950   -6.2970  -31.0560 C.3       9 GLL5        0.0000 
     64 CA         10.7540   -6.9180  -34.8210 C.3       6 GLP5        0.0000 
     65 CA         10.9525   -7.7565  -30.3090 C.3       3 GLC5        0.0000 
     66 CA          9.7100   -9.2160  -29.5620 C.3       6 GLP5        0.0000 
     67 CA         11.5180   -5.4250  -29.5605 C.3       3 GLC5        0.0000 
     68 CA         10.8410   -4.5530  -28.0650 C.3       6 GLP5        0.0000 
     69 CA         14.2025   -8.1365  -28.5470 C.3       3 GLC5        0.0000 
     70 CA         14.0260   -7.8880  -30.5010 C.3       9 GLL5        0.0000 
     71 CA         14.3790   -8.3850  -26.5930 C.3       6 GLP5        0.0000 
     72 CA         15.4815   -6.7770  -29.6695 C.3       3 GLC5        0.0000 
     73 CA         16.9370   -5.6660  -28.8380 C.3       6 GLP5        0.0000 
     74 N          13.0970   -9.8390  -28.9900 N.am      2 SEC2        0.0000 
     75 N          13.0380   -8.5660  -29.7120 N.am      8 SEL2        0.0000 
     76 N          13.1560  -11.1120  -28.2680 N.am      5 SEP2        0.0000 
     77 O          11.7960   -8.8725  -30.2090 O.2       1 ALC1        0.0000 
     78 O          13.0380   -8.5660  -29.7120 O.2       7 ALL1        0.0000 
     79 O          10.5540   -9.1790  -30.7060 O.2       4 ALP1        0.0000 
     80 CA         15.9165   -9.9190  -30.2420 C.3       3 GLC5        0.0000 
     81 CA         14.6080   -8.8860  -31.4860 C.3       9 GLL5        0.0000 
     82 CA         17.2250  -10.9520  -28.9980 C.3       6 GLP5        0.0000 
     83 CA         16.9645   -9.6040  -31.1125 C.3       3 GLC5        0.0000 
     84 CA         15.7130   -8.1850  -32.2770 C.3       9 GLL5        0.0000 
     85 CA         18.2160  -11.0230  -29.9480 C.3       6 GLP5        0.0000 
     86 CA         16.8775   -9.6650  -33.1510 C.3       3 GLC5        0.0000 
     87 CA         18.0420  -11.1450  -34.0250 C.3       6 GLP5        0.0000 
     88 CA         16.3250   -6.9255  -30.5575 C.3       3 GLC5        0.0000 
     89 N          17.6525   -8.8075  -31.0060 N.am      2 SEC2        0.0000 
     90 N          16.7240   -7.7260  -31.3540 N.am      8 SEL2        0.0000 
     91 N          18.5810   -9.8890  -30.6580 N.am      5 SEP2        0.0000 
     92 O          17.5860   -6.9340  -32.0345 O.2       1 ALC1        0.0000 
     93 O          16.7240   -7.7260  -31.3540 O.2       7 ALL1        0.0000 
     94 O          18.4480   -6.1420  -32.7150 O.2       4 ALP1        0.0000 
     95 CA         11.9545  -12.3765  -32.5280 C.3       3 GLC5        0.0000 
     96 CA         12.9500  -10.8580  -32.1980 C.3       9 GLL5        0.0000 
     97 CA         10.9590  -13.8950  -32.8580 C.3       6 GLP5        0.0000 
     98 CA         11.3300  -10.0370  -30.8800 C.3       3 GLC5        0.0000 
     99 N          15.7625  -14.8075  -30.8520 N.am      2 SEC2        0.0000 
    100 N          15.0300  -13.4470  -30.8310 N.am      8 SEL2        0.0000 
    101 N          16.4950  -16.1680  -30.8730 N.am      5 SEP2        0.0000 
    102 N          13.5110  -11.8880  -29.4930 N.am      2 SEC2        0.0000 
    103 N          13.8660  -12.6640  -30.7180 N.am      8 SEL2        0.0000 
    104 CA          7.6102   -2.3201  -31.5336 C.3       3 GLC5        0.0000 
    105 CA          6.0210   -0.8130  -31.3330 C.3       9 GLL5        0.0000 
    106 CA          6.7793    0.8889  -29.7461 C.3       3 GLC5        0.0000 
    107 CA         10.1485    2.2492  -32.7523 C.3       3 GLC5        0.0000 
    108 CA         10.7220    3.2520  -34.4720 C.3       6 GLP5        0.0000 
    109 CA         11.3435   -2.8682  -28.9330 C.3       3 GLC5        0.0000 
    110 CA         12.1545   -0.8807  -27.6875 C.3       3 GLC5        0.0000 
    111 CA         12.4910   -1.6090  -29.8920 C.3       9 GLL5        0.0000 
    112 CA         12.4630   -0.5780  -25.5740 C.3       6 GLP5        0.0000 
    113 CA         12.5850    0.7417  -34.7837 C.3       3 GLC5        0.0000 
    114 CA         11.9490   -0.5040  -33.4540 C.3       9 GLL5        0.0000 
    115 CA         12.7460    2.4320  -35.6940 C.3       6 GLP5        0.0000 
    116 CA         14.3220   -1.6835  -35.8347 C.3       3 GLC5        0.0000 
    117 CA         15.1530   -1.6510  -37.7540 C.3       6 GLP5        0.0000 
    118 CA         14.8412   -3.8265  -30.6003 C.3       3 GLC5        0.0000 
    119 CA         15.9690   -4.5540  -29.2770 C.3       6 GLP5        0.0000 
    120 CA         16.0175   -3.6430  -32.1003 C.3       3 GLC5        0.0000 
    121 CA         13.8060   -3.7230  -31.6920 C.3       9 GLL5        0.0000 
    122 CA         17.8780   -3.0510  -32.1240 C.3       6 GLP5        0.0000 
    123 CA         13.0180   -5.6423  -33.9365 C.3       3 GLC5        0.0000 
    124 CA         14.5080   -4.7470  -32.4610 C.3       9 GLL5        0.0000 
    125 CA         11.6040   -5.8680  -35.5110 C.3       6 GLP5        0.0000 
    126 CA         17.4597   -7.2950  -32.9730 C.3       3 GLC5        0.0000 
    127 CA         19.4720   -6.9880  -33.2420 C.3       6 GLP5        0.0000 
    128 CA         16.3107   -7.6510  -34.3505 C.3       3 GLC5        0.0000 
    129 CA         17.1740   -7.7000  -35.9970 C.3       6 GLP5        0.0000 
    130 CA         14.9580   -5.3079  -30.5435 C.3       3 GLC5        0.0000 
    131 CA         14.3560   -6.0860  -32.2630 C.3       9 GLL5        0.0000 
    132 CA         13.6638  -10.2255  -34.1650 C.3       3 GLC5        0.0000 
    133 CA         13.5530   -9.4680  -32.4500 C.3       9 GLL5        0.0000 
    134 CA         12.3587   -9.1875  -33.5985 C.3       3 GLC5        0.0000 
    135 CA         12.7629    0.7217  -30.0315 C.3       3 GLC5        0.0000 
@<TRIPOS>BOND
@<TRIPOS>SUBSTRUCTURE
     1 ALC1       77 GROUP        1 X    ALC  0     ROOT ALC X 1
     2 SEC2        1 GROUP        1 X    SEC  0     **** SEC X 2
     3 GLC5        6 GROUP        1 X    GLC  0     **** GLC X 6
     4 ALP1       79 GROUP        1 Y    ALP  0     ROOT ALP Y 8
     5 SEP2        3 GROUP        1 Y    SEP  0     **** SEP Y 9
     6 GLP5        8 GROUP        1 Y    GLP  0     **** GLP Y 13
     7 ALL1       78 GROUP        1 Z    ALL  0     ROOT ALL Z 15
     8 SEL2        2 GROUP        1 Z    SEL  0     **** SEL Z 16
     9 GLL5        7 GROUP        1 Z    GLL  0     **** GLL Z 20
@<TRIPOS>SET

