#    Name: 4ite_TEY_1_ligand
#    Modification time : Tue Mar 25 04:33:32 2014

@<TRIPOS>MOLECULE
4ite_TEY_1_ligand
   83    86     1     0     0
SMALL
NO_CHARGES


@<TRIPOS>ATOM
      1 O20         4.2960    0.8560  -31.1150 O.3       1 TEY501      0.0000 
      2 C17         4.6400   -0.3700  -31.7940 C.3       1 TEY501      0.0000 
      3 C19         3.6640   -1.4870  -31.4590 C.3       1 TEY501      0.0000 
      4 C18         4.5370   -0.1600  -33.2850 C.3       1 TEY501      0.0000 
      5 C16         6.0210   -0.8130  -31.3330 C.3       1 TEY501      0.0000 
      6 C15         7.1570    0.1380  -31.6740 C.3       1 TEY501      0.0000 
      7 C14         8.4200   -0.3470  -30.9730 C.3       1 TEY501      0.0000 
      8 C12         9.6090    0.5430  -31.3470 C.3       1 TEY501      0.0000 
      9 C13         9.5410    1.9500  -30.7180 C.3       1 TEY501      0.0000 
     10 C9         10.9870   -0.1060  -31.0830 C.3       1 TEY501      0.0000 
     11 C8         11.2010   -0.7580  -29.7100 C.3       1 TEY501      0.0000 
     12 C7         12.4910   -1.6090  -29.8920 C.3       1 TEY501      0.0000 
     13 C5         11.5800   -1.0980  -32.0940 C.3       1 TEY501      0.0000 
     14 C10        10.7650   -2.3800  -32.2700 C.3       1 TEY501      0.0000 
     15 C2         11.9490   -0.5040  -33.4540 C.3       1 TEY501      0.0000 
     16 C3         12.8990   -1.3930  -34.2930 C.3       1 TEY501      0.0000 
     17 C4         14.0830   -2.0390  -33.5380 C.3       1 TEY501      0.0000 
     18 C6         12.8840   -1.4050  -31.3670 C.3       1 TEY501      0.0000 
     19 C1         13.6210   -2.4750  -32.1550 C.2       1 TEY501      0.0000 
     20 C21        13.8060   -3.7230  -31.6920 C.2       1 TEY501      0.0000 
     21 C22        14.5080   -4.7470  -32.4610 C.2       1 TEY501      0.0000 
     22 C23        14.3560   -6.0860  -32.2630 C.2       1 TEY501      0.0000 
     23 C24        15.1820   -7.0190  -33.1310 C.3       1 TEY501      0.0000 
     24 C28        13.4620   -6.7070  -31.2580 C.2       1 TEY501      0.0000 
     25 C29        12.1950   -6.2970  -31.0560 C.2       1 TEY501      0.0000 
     26 C27        14.0260   -7.8880  -30.5010 C.3       1 TEY501      0.0000 
     27 O30        13.0380   -8.5660  -29.7120 O.3       1 TEY501      0.0000 
     28 C26        14.6080   -8.8860  -31.4860 C.3       1 TEY501      0.0000 
     29 C25        15.7130   -8.1850  -32.2770 C.3       1 TEY501      0.0000 
     30 O32        16.7240   -7.7260  -31.3540 O.3       1 TEY501      0.0000 
     31 C31        13.5530   -9.4680  -32.4500 C.3       1 TEY501      0.0000 
     32 C33        12.9500  -10.8580  -32.1980 C.3       1 TEY501      0.0000 
     33 N34        13.9650  -11.8720  -31.8470 N.pl3     1 TEY501      0.0000 
     34 N35        15.0890  -12.1560  -32.6230 N.2       1 TEY501      0.0000 
     35 C36        15.7280  -13.1360  -31.9530 C.2       1 TEY501      0.0000 
     36 N37        15.0300  -13.4470  -30.8310 N.2       1 TEY501      0.0000 
     37 N38        13.8660  -12.6640  -30.7180 N.2       1 TEY501      0.0000 
     38 H           6.2423   -1.8077  -31.7732 H         1 TEY501      0.0000 
     39 H           5.9988   -0.9647  -30.2336 H         1 TEY501      0.0000 
     40 H           6.9132    1.1322  -31.3291 H         1 TEY501      0.0000 
     41 H           7.3175    0.1426  -32.7422 H         1 TEY501      0.0000 
     42 H           8.6313   -1.3693  -31.2737 H         1 TEY501      0.0000 
     43 H           8.2732   -0.3124  -29.8972 H         1 TEY501      0.0000 
     44 H           9.5569    0.7057  -32.4610 H         1 TEY501      0.0000 
     45 H          11.7599    0.7648  -31.0752 H         1 TEY501      0.0000 
     46 H          10.3911   -1.3988  -29.4828 H         1 TEY501      0.0000 
     47 H          11.3756   -0.0143  -28.9788 H         1 TEY501      0.0000 
     48 H          12.2641   -2.6282  -29.7173 H         1 TEY501      0.0000 
     49 H          13.2514   -1.2293  -29.2608 H         1 TEY501      0.0000 
     50 H          12.4296    0.4742  -33.3034 H         1 TEY501      0.0000 
     51 H          11.0306   -0.3308  -34.0346 H         1 TEY501      0.0000 
     52 H          13.3033   -0.7841  -35.1278 H         1 TEY501      0.0000 
     53 H          12.2999   -2.1989  -34.7648 H         1 TEY501      0.0000 
     54 H          14.8781   -1.3121  -33.4469 H         1 TEY501      0.0000 
     55 H          14.4277   -2.8977  -34.0972 H         1 TEY501      0.0000 
     56 H          13.4623   -0.4552  -31.4275 H         1 TEY501      0.0000 
     57 H          13.4543   -4.0191  -30.7561 H         1 TEY501      0.0000 
     58 H          15.1609   -4.3890  -33.2026 H         1 TEY501      0.0000 
     59 H          16.0224   -6.4803  -33.5521 H         1 TEY501      0.0000 
     60 H          14.5671   -7.4187  -33.9284 H         1 TEY501      0.0000 
     61 H          14.8440   -7.5399  -29.8762 H         1 TEY501      0.0000 
     62 H          15.0613   -9.7000  -30.9348 H         1 TEY501      0.0000 
     63 H          16.1476   -8.9237  -32.9579 H         1 TEY501      0.0000 
     64 H          13.9939   -9.4604  -33.4905 H         1 TEY501      0.0000 
     65 H          12.7042   -8.7254  -32.5227 H         1 TEY501      0.0000 
     66 H          12.4021  -11.1619  -33.1058 H         1 TEY501      0.0000 
     67 H          12.2050  -10.7653  -31.3900 H         1 TEY501      0.0000 
     68 H          16.5591  -13.5576  -32.2263 H         1 TEY501      0.0000 
     69 H           3.9005   -2.3392  -31.9257 H         1 TEY501      0.0000 
     70 H           3.6477   -1.6844  -30.4788 H         1 TEY501      0.0000 
     71 H           2.7287   -1.2558  -31.7270 H         1 TEY501      0.0000 
     72 H           5.1565    0.5579  -33.6026 H         1 TEY501      0.0000 
     73 H           4.7651   -0.9902  -33.7936 H         1 TEY501      0.0000 
     74 H           3.6133    0.1074  -33.5595 H         1 TEY501      0.0000 
     75 H           9.5246    1.9098  -29.7189 H         1 TEY501      0.0000 
     76 H          10.3279    2.5105  -30.9759 H         1 TEY501      0.0000 
     77 H           8.7213    2.4458  -31.0049 H         1 TEY501      0.0000 
     78 H          11.1825   -2.9968  -32.9372 H         1 TEY501      0.0000 
     79 H          10.6823   -2.8882  -31.4127 H         1 TEY501      0.0000 
     80 H           9.8364   -2.1890  -32.5883 H         1 TEY501      0.0000 
     81 H           3.4208    1.3399  -31.1046 H         1 TEY501      0.0000 
     82 H          12.2411   -8.6485  -30.3104 H         1 TEY501      0.0000 
     83 H          17.4743   -7.4040  -31.9314 H         1 TEY501      0.0000 
@<TRIPOS>BOND
     1    2    1 1    
     2   81    1 1    
     3    3    2 1    
     4    4    2 1    
     5    5    2 1    
     6   69    3 1    
     7   70    3 1    
     8   71    3 1    
     9   72    4 1    
    10   73    4 1    
    11   74    4 1    
    12    6    5 1    
    13   38    5 1    
    14   39    5 1    
    15    7    6 1    
    16   40    6 1    
    17   41    6 1    
    18    8    7 1    
    19   42    7 1    
    20   43    7 1    
    21    9    8 1    
    22   10    8 1    
    23   44    8 1    
    24   75    9 1    
    25   76    9 1    
    26   77    9 1    
    27   11   10 1    
    28   13   10 1    
    29   45   10 1    
    30   12   11 1    
    31   46   11 1    
    32   47   11 1    
    33   18   12 1    
    34   48   12 1    
    35   49   12 1    
    36   14   13 1    
    37   15   13 1    
    38   18   13 1    
    39   78   14 1    
    40   79   14 1    
    41   80   14 1    
    42   16   15 1    
    43   50   15 1    
    44   51   15 1    
    45   17   16 1    
    46   52   16 1    
    47   53   16 1    
    48   19   17 1    
    49   54   17 1    
    50   55   17 1    
    51   19   18 1    
    52   56   18 1    
    53   20   19 2    
    54   21   20 1    
    55   57   20 1    
    56   22   21 2    
    57   58   21 1    
    58   23   22 1    
    59   24   22 1    
    60   29   23 1    
    61   59   23 1    
    62   60   23 1    
    63   25   24 2    
    64   26   24 1    
    65   27   26 1    
    66   28   26 1    
    67   61   26 1    
    68   82   27 1    
    69   29   28 1    
    70   31   28 1    
    71   62   28 1    
    72   30   29 1    
    73   63   29 1    
    74   83   30 1    
    75   32   31 1    
    76   64   31 1    
    77   65   31 1    
    78   33   32 1    
    79   66   32 1    
    80   67   32 1    
    81   34   33 1    
    82   37   33 1    
    83   35   34 2    
    84   36   35 1    
    85   68   35 1    
    86   37   36 2    
@<TRIPOS>SUBSTRUCTURE
     1 TEY501      1 GROUP   
@<TRIPOS>SET

