#    Name: 3grv_ADN_1_INTS_M
#    Modification time : Tue Mar 25 12:54:22 2014

@<TRIPOS>MOLECULE
3grv_ADN_1_INTS_M
   56     0     9     0     0
SMALL
NO_CHARGES


@<TRIPOS>ATOM
      1 O          21.6230   22.1030   12.2140 O.2       1 ALC1        0.0000 
      2 O          21.1290   22.8550   13.1540 O.2       7 ALL1        0.0000 
      3 O          22.1170   21.3510   11.2740 O.2       4 ALP1        0.0000 
      4 CA         19.2245   25.7155   14.4915 C.3       3 GLC5        0.0000 
      5 CA         20.5920   25.1720   13.2030 C.3       9 GLL5        0.0000 
      6 CA         17.8570   26.2590   15.7800 C.3       6 GLP5        0.0000 
      7 CA         20.0220   24.8120    9.9285 C.3       3 GLC5        0.0000 
      8 CA         20.5760   25.8280   11.8330 C.3       9 GLL5        0.0000 
      9 CA         19.4680   23.7960    8.0240 C.3       6 GLP5        0.0000 
     10 N          17.7675   25.3450   11.5835 N.am      2 SEC2        0.0000 
     11 N          19.2000   26.0340   11.4740 N.am      8 SEL2        0.0000 
     12 N          16.3350   24.6560   11.6930 N.am      5 SEP2        0.0000 
     13 O          18.4380   26.9610   12.1760 O.2       1 ALC1        0.0000 
     14 O          19.2000   26.0340   11.4740 O.2       7 ALL1        0.0000 
     15 O          17.6760   27.8880   12.8780 O.2       4 ALP1        0.0000 
     16 O          19.0100   27.7450   11.6695 O.2       1 ALC1        0.0000 
     17 O          18.8200   29.4560   11.8650 O.2       4 ALP1        0.0000 
     18 O          19.8545   28.8160   11.5160 O.2       1 ALC1        0.0000 
     19 O          20.8890   28.1760   11.1670 O.2       7 ALL1        0.0000 
     20 CA         19.4105   26.8685   14.6305 C.3       3 GLC5        0.0000 
     21 CA         20.9640   27.4780   13.4810 C.3       9 GLL5        0.0000 
     22 CA         21.4390   29.5825   13.1970 C.3       3 GLC5        0.0000 
     23 CA         21.9140   31.6870   12.9130 C.3       6 GLP5        0.0000 
     24 CA         22.1345   26.7400   15.0605 C.3       3 GLC5        0.0000 
     25 CA         23.3050   26.0020   16.6400 C.3       6 GLP5        0.0000 
     26 CA         22.0915   31.6540   15.3300 C.3       3 GLC5        0.0000 
     27 CA         22.9320   30.5600   16.8370 C.3       9 GLL5        0.0000 
     28 CA         21.2510   32.7480   13.8230 C.3       6 GLP5        0.0000 
     29 CA         22.2315   32.5450   17.4070 C.3       3 GLC5        0.0000 
     30 CA         21.5310   34.5300   17.9770 C.3       6 GLP5        0.0000 
     31 CA         23.4990   29.2220   18.4615 C.3       3 GLC5        0.0000 
     32 CA         24.0660   27.8840   20.0860 C.3       6 GLP5        0.0000 
     33 O          24.0120   32.2490   18.1645 O.2       1 ALC1        0.0000 
     34 O          24.0910   31.0710   17.3410 O.2       7 ALL1        0.0000 
     35 O          23.9330   33.4270   18.9880 O.2       4 ALP1        0.0000 
     36 N          21.3995   31.8305   18.4810 N.am      2 SEC2        0.0000 
     37 N          21.7160   30.8890   17.3390 N.am      8 SEL2        0.0000 
     38 N          21.0830   32.7720   19.6230 N.am      5 SEP2        0.0000 
     39 CA         20.2815   28.7415   18.3125 C.3       3 GLC5        0.0000 
     40 CA         20.5630   30.3700   16.8600 C.3       9 GLL5        0.0000 
     41 CA         20.0000   27.1130   19.7650 C.3       6 GLP5        0.0000 
     42 CA         18.9740   31.2890   18.0270 C.3       3 GLC5        0.0000 
     43 CA         17.3850   32.2080   19.1940 C.3       6 GLP5        0.0000 
     44 CA         18.7470   30.5485   15.8305 C.3       3 GLC5        0.0000 
     45 CA         16.9310   30.7270   14.8010 C.3       6 GLP5        0.0000 
     46 CA         20.9070   31.5590   15.3415 C.3       3 GLC5        0.0000 
     47 CA         21.0470   32.4500   17.4185 C.3       3 GLC5        0.0000 
     48 CA         20.5150   30.5560   18.8825 C.3       3 GLC5        0.0000 
     49 CA         20.4670   30.7420   20.9050 C.3       6 GLP5        0.0000 
     50 N          19.7210   30.6600   14.8805 N.am      2 SEC2        0.0000 
     51 N          20.5280   29.4890   15.8390 N.am      8 SEL2        0.0000 
     52 N          18.9140   31.8310   13.9220 N.am      5 SEP2        0.0000 
     53 CA         22.2285   25.3302   14.9490 C.3       3 GLC5        0.0000 
     54 CA         22.1178   30.5110   14.1970 C.3       3 GLC5        0.0000 
     55 CA         21.6770   29.0760   15.2400 C.3       9 GLL5        0.0000 
     56 CA         22.8133   27.6685   16.0605 C.3       3 GLC5        0.0000 
@<TRIPOS>BOND
@<TRIPOS>SUBSTRUCTURE
     1 ALC1        1 GROUP        1 X    ALC  0     ROOT ALC X 1
     2 SEC2       10 GROUP        1 X    SEC  0     **** SEC X 2
     3 GLC5        4 GROUP        1 X    GLC  0     **** GLC X 6
     4 ALP1        3 GROUP        1 Y    ALP  0     ROOT ALP Y 8
     5 SEP2       12 GROUP        1 Y    SEP  0     **** SEP Y 9
     6 GLP5        6 GROUP        1 Y    GLP  0     **** GLP Y 13
     7 ALL1        2 GROUP        1 Z    ALL  0     ROOT ALL Z 15
     8 SEL2       11 GROUP        1 Z    SEL  0     **** SEL Z 16
     9 GLL5        5 GROUP        1 Z    GLL  0     **** GLL Z 20
@<TRIPOS>SET

