#    Name: 3grv_ADN_1_ligand
#    Modification time : Tue Mar 25 12:54:22 2014

@<TRIPOS>MOLECULE
3grv_ADN_1_ligand
   32    34     1     0     0
SMALL
NO_CHARGES


@<TRIPOS>ATOM
      1 O5'        21.1290   22.8550   13.1540 O.3       1 ADN300      0.0000 
      2 C5'        21.7120   24.1450   13.3130 C.3       1 ADN300      0.0000 
      3 C4'        20.5920   25.1720   13.2030 C.3       1 ADN300      0.0000 
      4 O4'        20.8060   26.2230   14.1490 O.3       1 ADN300      0.0000 
      5 C3'        20.5760   25.8280   11.8330 C.3       1 ADN300      0.0000 
      6 O3'        19.2000   26.0340   11.4740 O.3       1 ADN300      0.0000 
      7 C2'        21.3310   27.1420   12.0390 C.3       1 ADN300      0.0000 
      8 O2'        20.8890   28.1760   11.1670 O.3       1 ADN300      0.0000 
      9 C1'        20.9640   27.4780   13.4810 C.3       1 ADN300      0.0000 
     10 N9         21.9750   28.2450   14.2410 N.pl3     1 ADN300      0.0000 
     11 C8         23.3080   28.2190   14.0780 C.2       1 ADN300      0.0000 
     12 N7         23.9240   29.0310   14.9650 N.2       1 ADN300      0.0000 
     13 C5         22.9660   29.5940   15.7220 C.ar      1 ADN300      0.0000 
     14 C6         22.9320   30.5600   16.8370 C.ar      1 ADN300      0.0000 
     15 N6         24.0910   31.0710   17.3410 N.pl3     1 ADN300      0.0000 
     16 N1         21.7160   30.8890   17.3390 N.ar      1 ADN300      0.0000 
     17 C2         20.5630   30.3700   16.8600 C.ar      1 ADN300      0.0000 
     18 N3         20.5280   29.4890   15.8390 N.ar      1 ADN300      0.0000 
     19 C4         21.6770   29.0760   15.2400 C.ar      1 ADN300      0.0000 
     20 H          22.4437   24.3608   12.5371 H         1 ADN300      0.0000 
     21 H          22.1824   24.2632   14.2870 H         1 ADN300      0.0000 
     22 H          19.6515   24.6928   13.3649 H         1 ADN300      0.0000 
     23 H          21.1039   25.2182   11.1632 H         1 ADN300      0.0000 
     24 H          22.3651   26.9433   12.0045 H         1 ADN300      0.0000 
     25 H          20.0195   28.0005   13.4815 H         1 ADN300      0.0000 
     26 H          23.7788   27.6803   13.4021 H         1 ADN300      0.0000 
     27 H          24.9375   30.7164   16.9439 H         1 ADN300      0.0000 
     28 H          23.9926   31.7554   18.0634 H         1 ADN300      0.0000 
     29 H          19.6487   30.6688   17.3064 H         1 ADN300      0.0000 
     30 H          21.6554   22.4216   12.4225 H         1 ADN300      0.0000 
     31 H          18.8745   26.7469   12.0952 H         1 ADN300      0.0000 
     32 H          19.9028   28.2394   11.3199 H         1 ADN300      0.0000 
@<TRIPOS>BOND
     1    2    1 1    
     2   30    1 1    
     3    3    2 1    
     4   20    2 1    
     5   21    2 1    
     6    4    3 1    
     7    5    3 1    
     8   22    3 1    
     9    9    4 1    
    10    6    5 1    
    11    7    5 1    
    12   23    5 1    
    13   31    6 1    
    14    8    7 1    
    15    9    7 1    
    16   24    7 1    
    17   32    8 1    
    18   10    9 1    
    19   25    9 1    
    20   11   10 1    
    21   19   10 1    
    22   12   11 2    
    23   26   11 1    
    24   13   12 1    
    25   14   13 ar   
    26   19   13 ar   
    27   15   14 1    
    28   16   14 ar   
    29   27   15 1    
    30   28   15 1    
    31   17   16 ar   
    32   18   17 ar   
    33   29   17 1    
    34   19   18 ar   
@<TRIPOS>SUBSTRUCTURE
     1 ADN300      1 GROUP   
@<TRIPOS>SET

