#    Name: 3d15_AK2_1_INTS_M
#    Modification time : Mon Mar 24 22:33:07 2014

@<TRIPOS>MOLECULE
3d15_AK2_1_INTS_M
   93     0     9     0     0
SMALL
NO_CHARGES


@<TRIPOS>ATOM
      1 CA         10.4220   19.0275    5.3305 C.3       3 GLC5        0.0000 
      2 CA         11.1390   19.3570    7.2360 C.3       9 GLL5        0.0000 
      3 CA          9.7050   18.6980    3.4250 C.3       6 GLP5        0.0000 
      4 CA         14.1510   21.0790   10.2100 C.3       3 GLC5        0.0000 
      5 CA         12.5550   20.0860    9.5270 C.3       9 GLL5        0.0000 
      6 CA         15.7470   22.0720   10.8930 C.3       6 GLP5        0.0000 
      7 CA          9.5510   21.1850   10.1830 C.3       3 GLC5        0.0000 
      8 CA         11.4960   20.8720    9.1010 C.3       9 GLL5        0.0000 
      9 CA          7.6060   21.4980   11.2650 C.3       6 GLP5        0.0000 
     10 CA          8.0655   28.8295   11.3450 C.3       3 GLC5        0.0000 
     11 CA          8.9300   27.1730   10.6170 C.3       9 GLL5        0.0000 
     12 CA          7.2010   30.4860   12.0730 C.3       6 GLP5        0.0000 
     13 CA          7.8695   26.7935   11.9840 C.3       3 GLC5        0.0000 
     14 CA          6.8090   26.4140   13.3510 C.3       6 GLP5        0.0000 
     15 CA          7.4800   29.3075   10.3680 C.3       3 GLC5        0.0000 
     16 CA          7.7590   28.1290    8.6630 C.3       9 GLL5        0.0000 
     17 CA          7.4760   30.2040    8.6580 C.3       3 GLC5        0.0000 
     18 CA          7.1930   32.2790    8.6530 C.3       6 GLP5        0.0000 
     19 CA          5.4345   26.6240    6.9365 C.3       3 GLC5        0.0000 
     20 CA          6.4460   27.5690    8.0990 C.3       9 GLL5        0.0000 
     21 CA          4.4230   25.6790    5.7740 C.3       6 GLP5        0.0000 
     22 CA          2.7155   29.4520   10.0210 C.3       3 GLC5        0.0000 
     23 CA          4.0590   30.5990    9.6260 C.3       9 GLL5        0.0000 
     24 CA          1.3720   28.3050   10.4160 C.3       6 GLP5        0.0000 
     25 CA          5.6300   30.5425   10.8495 C.3       3 GLC5        0.0000 
     26 CA          2.7490   31.4725   10.8365 C.3       3 GLC5        0.0000 
     27 CA          1.4390   32.3460   12.0470 C.3       6 GLP5        0.0000 
     28 CA          4.3785   32.7610    9.6780 C.3       3 GLC5        0.0000 
     29 CA          4.6980   34.9230    9.7300 C.3       6 GLP5        0.0000 
     30 CA          5.6260   31.4390    9.1395 C.3       3 GLC5        0.0000 
     31 CA         15.0155   16.4165    8.4810 C.3       3 GLC5        0.0000 
     32 CA         14.2580   17.9460    9.4040 C.3       9 GLL5        0.0000 
     33 CA         15.7730   14.8870    7.5580 C.3       6 GLP5        0.0000 
     34 CA         15.9880   17.6250   10.2865 C.3       3 GLC5        0.0000 
     35 CA         17.7180   17.3040   11.1690 C.3       6 GLP5        0.0000 
     36 CA         13.3500   17.2465   10.8640 C.3       3 GLC5        0.0000 
     37 CA         12.4420   16.5470   12.3240 C.3       6 GLP5        0.0000 
     38 O          11.8120   21.8830   11.0620 O.2       1 ALC1        0.0000 
     39 O          11.1830   22.0160    9.8640 O.2       7 ALL1        0.0000 
     40 O          12.4410   21.7500   12.2600 O.2       4 ALP1        0.0000 
     41 O          11.5875   22.9365   11.2600 O.2       1 ALC1        0.0000 
     42 O          11.9920   23.8570   12.6560 O.2       4 ALP1        0.0000 
     43 N           9.4350   23.1270    7.1170 N.am      2 SEC2        0.0000 
     44 N          10.0760   23.1260    8.2810 N.am      8 SEL2        0.0000 
     45 N           8.7940   23.1280    5.9530 N.am      5 SEP2        0.0000 
     46 O          11.1600   23.9545   11.4995 O.2       1 ALC1        0.0000 
     47 O          10.3280   24.0520   10.3430 O.2       7 ALL1        0.0000 
     48 N          10.9510   27.1140   10.8655 N.am      2 SEC2        0.0000 
     49 N           9.5400   26.1440   11.0630 N.am      8 SEL2        0.0000 
     50 N          12.3620   28.0840   10.6680 N.am      5 SEP2        0.0000 
     51 CA          7.8610   24.2135    8.0425 C.3       3 GLC5        0.0000 
     52 CA          9.0040   25.6870    8.7970 C.3       9 GLL5        0.0000 
     53 CA          6.7180   22.7400    7.2880 C.3       6 GLP5        0.0000 
     54 CA          7.2630   25.7715   10.0335 C.3       3 GLC5        0.0000 
     55 CA          5.5220   25.8560   11.2700 C.3       6 GLP5        0.0000 
     56 CA         10.9645   26.2260    8.7190 C.3       3 GLC5        0.0000 
     57 CA         12.9250   26.7650    8.6410 C.3       6 GLP5        0.0000 
     58 N           3.1105   32.7375    9.7965 N.am      2 SEC2        0.0000 
     59 N           3.5040   31.5750    8.8830 N.am      8 SEL2        0.0000 
     60 N           2.7170   33.9000   10.7100 N.am      5 SEP2        0.0000 
     61 CA          6.1000   32.0830    4.3070 C.3       3 GLC5        0.0000 
     62 CA          4.5630   30.9100    5.2770 C.3       9 GLL5        0.0000 
     63 CA          7.6370   33.2560    3.3370 C.3       6 GLP5        0.0000 
     64 CA          5.8780   31.5945    6.9650 C.3       3 GLC5        0.0000 
     65 CA          9.2647   19.4700    7.3870 C.3       3 GLC5        0.0000 
     66 CA         10.7920   20.5010    7.9500 C.3       9 GLL5        0.0000 
     67 CA          7.5640   19.0110    7.1810 C.3       6 GLP5        0.0000 
     68 CA         11.2127   17.0263    7.5962 C.3       3 GLC5        0.0000 
     69 CA         10.7570   15.0930    7.7370 C.3       6 GLP5        0.0000 
     70 CA         11.3867   19.2814   10.7089 C.3       3 GLC5        0.0000 
     71 CA         12.8950   18.9370    8.8180 C.3       9 GLL5        0.0000 
     72 CA         10.6630   18.3710   12.2810 C.3       6 GLP5        0.0000 
     73 CA         10.8340   26.9685   10.0980 C.3       3 GLC5        0.0000 
     74 CA         12.9280   26.8210   10.1810 C.3       6 GLP5        0.0000 
     75 CA          9.5092   29.1217    9.7995 C.3       3 GLC5        0.0000 
     76 CA         10.7690   30.6210   10.2600 C.3       6 GLP5        0.0000 
     77 CA          6.4111   26.7188    9.9192 C.3       3 GLC5        0.0000 
     78 CA          8.5500   27.0590    9.4130 C.3       9 GLL5        0.0000 
     79 CA          1.7383   30.9720    7.2242 C.3       3 GLC5        0.0000 
     80 CA          3.7130   31.5800    7.5480 C.3       9 GLL5        0.0000 
     81 CA         -0.0060   29.9260    7.3110 C.3       6 GLP5        0.0000 
     82 CA          4.0903   33.4705    8.4337 C.3       3 GLC5        0.0000 
     83 CA          3.8427   34.3747    5.5062 C.3       3 GLC5        0.0000 
     84 CA          3.2520   32.4560    6.7270 C.3       9 GLL5        0.0000 
     85 CA          4.2120   36.3610    4.8740 C.3       6 GLP5        0.0000 
     86 CA          5.3377   32.1485    7.8953 C.3       3 GLC5        0.0000 
     87 CA          3.6700   28.4710    7.1753 C.3       3 GLC5        0.0000 
     88 CA          4.4870   30.6120    6.9490 C.3       9 GLL5        0.0000 
     89 CA          2.5610   26.8350    7.0090 C.3       6 GLP5        0.0000 
     90 CA          5.9860   31.1930    7.9973 C.3       3 GLC5        0.0000 
     91 CA          5.0710   29.6020    7.7340 C.3       9 GLL5        0.0000 
     92 CA          2.5275   30.3604    5.5416 C.3       3 GLC5        0.0000 
     93 CA          0.7470   29.6070    4.9020 C.3       6 GLP5        0.0000 
@<TRIPOS>BOND
@<TRIPOS>SUBSTRUCTURE
     1 ALC1       38 GROUP        1 X    ALC  0     ROOT ALC X 1
     2 SEC2       43 GROUP        1 X    SEC  0     **** SEC X 2
     3 GLC5        1 GROUP        1 X    GLC  0     **** GLC X 6
     4 ALP1       40 GROUP        1 Y    ALP  0     ROOT ALP Y 8
     5 SEP2       45 GROUP        1 Y    SEP  0     **** SEP Y 9
     6 GLP5        3 GROUP        1 Y    GLP  0     **** GLP Y 13
     7 ALL1       39 GROUP        1 Z    ALL  0     ROOT ALL Z 15
     8 SEL2       44 GROUP        1 Z    SEL  0     **** SEL Z 16
     9 GLL5        2 GROUP        1 Z    GLL  0     **** GLL Z 20
@<TRIPOS>SET

