#    Name: 3d15_AK2_1_ligand
#    Modification time : Mon Mar 24 22:33:07 2014

@<TRIPOS>MOLECULE
3d15_AK2_1_ligand
   43    46     1     0     0
SMALL
NO_CHARGES


@<TRIPOS>ATOM
      1 C27        10.7920   20.5010    7.9500 C.ar      1 AK21        0.0000 
      2 C26        11.1390   19.3570    7.2360 C.ar      1 AK21        0.0000 
      3 C24        12.8950   18.9370    8.8180 C.ar      1 AK21        0.0000 
      4 C23        12.5550   20.0860    9.5270 C.ar      1 AK21        0.0000 
      5 C22        11.4960   20.8720    9.1010 C.ar      1 AK21        0.0000 
      6 C17         8.9300   27.1730   10.6170 C.2       1 AK21        0.0000 
      7 C15         9.6760   25.2100   10.1300 C.2       1 AK21        0.0000 
      8 C12         7.7590   28.1290    8.6630 C.3       1 AK21        0.0000 
      9 C13         8.5500   27.0590    9.4130 C.2       1 AK21        0.0000 
     10 C11         6.4460   27.5690    8.0990 C.3       1 AK21        0.0000 
     11 C9          3.2520   32.4560    6.7270 C.2       1 AK21        0.0000 
     12 C8          3.6950   32.3210    5.5500 C.2       1 AK21        0.0000 
     13 C4          4.0590   30.5990    9.6260 C.ar      1 AK21        0.0000 
     14 C6          5.0710   29.6020    7.7340 C.ar      1 AK21        0.0000 
     15 C2          3.7130   31.5800    7.5480 C.ar      1 AK21        0.0000 
     16 C1          4.4870   30.6120    6.9490 C.ar      1 AK21        0.0000 
     17 CL28       14.2580   17.9460    9.4040 Cl        1 AK21        0.0000 
     18 C25        12.1980   18.5620    7.6750 C.ar      1 AK21        0.0000 
     19 N20        11.1830   22.0160    9.8640 N.am      1 AK21        0.0000 
     20 C19        10.5040   23.0780    9.4340 C.2       1 AK21        0.0000 
     21 O21        10.0760   23.1260    8.2810 O.2       1 AK21        0.0000 
     22 N18        10.3280   24.0520   10.3430 N.am      1 AK21        0.0000 
     23 N16         9.5400   26.1440   11.0630 N.2       1 AK21        0.0000 
     24 S14         9.0040   25.6870    8.7970 S.3       1 AK21        0.0000 
     25 N10         5.8640   28.6080    7.2380 N.pl3     1 AK21        0.0000 
     26 N5          4.8260   29.6360    9.0710 N.ar      1 AK21        0.0000 
     27 N3          3.5040   31.5750    8.8830 N.ar      1 AK21        0.0000 
     28 S7          4.5630   30.9100    5.2770 S.3       1 AK21        0.0000 
     29 H          10.0039   21.0863    7.6278 H         1 AK21        0.0000 
     30 H          10.6190   19.0989    6.3908 H         1 AK21        0.0000 
     31 H          13.0902   20.3484   10.3644 H         1 AK21        0.0000 
     32 H           8.7647   28.0138   11.1854 H         1 AK21        0.0000 
     33 H           8.3636   28.5143    7.8403 H         1 AK21        0.0000 
     34 H           7.5316   28.9522    9.3424 H         1 AK21        0.0000 
     35 H           5.7905   27.3355    8.9249 H         1 AK21        0.0000 
     36 H           6.6691   26.6757    7.5347 H         1 AK21        0.0000 
     37 H           2.5916   33.1865    7.0097 H         1 AK21        0.0000 
     38 H           3.6484   32.8655    4.7335 H         1 AK21        0.0000 
     39 H           3.8919   30.5847   10.6659 H         1 AK21        0.0000 
     40 H          12.4558   17.7173    7.1628 H         1 AK21        0.0000 
     41 H          11.5376   22.0001   10.8799 H         1 AK21        0.0000 
     42 H          10.7446   23.8929   11.3277 H         1 AK21        0.0000 
     43 H           6.0889   28.5456    6.2288 H         1 AK21        0.0000 
@<TRIPOS>BOND
     1    2    1 ar   
     2    5    1 ar   
     3   29    1 1    
     4   18    2 ar   
     5   30    2 1    
     6    4    3 ar   
     7   17    3 1    
     8   18    3 ar   
     9    5    4 ar   
    10   31    4 1    
    11   19    5 1    
    12    9    6 2    
    13   23    6 1    
    14   32    6 1    
    15   22    7 1    
    16   23    7 2    
    17   24    7 1    
    18    9    8 1    
    19   10    8 1    
    20   33    8 1    
    21   34    8 1    
    22   24    9 1    
    23   25   10 1    
    24   35   10 1    
    25   36   10 1    
    26   12   11 2    
    27   15   11 1    
    28   37   11 1    
    29   28   12 1    
    30   38   12 1    
    31   26   13 ar   
    32   27   13 ar   
    33   39   13 1    
    34   16   14 ar   
    35   25   14 1    
    36   26   14 ar   
    37   16   15 ar   
    38   27   15 ar   
    39   28   16 1    
    40   40   18 1    
    41   20   19 am   
    42   41   19 1    
    43   21   20 2    
    44   22   20 am   
    45   42   22 1    
    46   43   25 1    
@<TRIPOS>SUBSTRUCTURE
     1 AK21        1 GROUP   
@<TRIPOS>SET

