#    Name: 3k23_JZN_3_INTS_M
#    Modification time : Mon Mar 24 18:00:02 2014

@<TRIPOS>MOLECULE
3k23_JZN_3_INTS_M
  100     0     6     0     0
SMALL
NO_CHARGES


@<TRIPOS>ATOM
      1 CA         13.4420   -0.4325  -60.2135 C.3       2 GLC5        0.0000 
      2 CA         14.8400   -0.0970  -59.5520 C.3       6 GLL5        0.0000 
      3 CA         12.0440   -0.7680  -60.8750 C.3       4 GLP5        0.0000 
      4 CA         12.9710    5.8765  -55.1860 C.3       2 GLC5        0.0000 
      5 CA         13.2880    4.3650  -53.8980 C.3       6 GLL5        0.0000 
      6 CA         12.6540    7.3880  -56.4740 C.3       4 GLP5        0.0000 
      7 CA         11.3565    5.1575  -54.0850 C.3       2 GLC5        0.0000 
      8 CA          9.4250    5.9500  -54.2720 C.3       4 GLP5        0.0000 
      9 O          13.2825    1.7790  -53.8975 O.2       1 ALC1        0.0000 
     10 O          14.9330    2.0120  -53.4630 O.2       5 ALL1        0.0000 
     11 O          11.6320    1.5460  -54.3320 O.2       3 ALP1        0.0000 
     12 CA         15.6490    3.7515  -50.9885 C.3       2 GLC5        0.0000 
     13 CA         15.0530    4.3310  -52.6400 C.3       6 GLL5        0.0000 
     14 CA         16.2450    3.1720  -49.3370 C.3       4 GLP5        0.0000 
     15 CA         17.6215    2.8900  -61.5330 C.3       2 GLC5        0.0000 
     16 CA         17.0610    3.2010  -59.4970 C.3       6 GLL5        0.0000 
     17 CA         18.1820    2.5790  -63.5690 C.3       4 GLP5        0.0000 
     18 CA         15.5995    7.0305  -53.2525 C.3       2 GLC5        0.0000 
     19 CA         15.1810    5.3060  -54.5360 C.3       6 GLL5        0.0000 
     20 CA         16.0180    8.7550  -51.9690 C.3       4 GLP5        0.0000 
     21 CA         16.0620    7.1035  -54.9120 C.3       2 GLC5        0.0000 
     22 CA         16.9430    8.9010  -55.2880 C.3       4 GLP5        0.0000 
     23 CA         13.9175    6.3470  -55.5050 C.3       2 GLC5        0.0000 
     24 CA         14.3905    6.0390  -58.0125 C.3       2 GLC5        0.0000 
     25 CA         15.4970    4.1630  -57.9650 C.3       6 GLL5        0.0000 
     26 CA         13.2840    7.9150  -58.0600 C.3       4 GLP5        0.0000 
     27 CA         12.8725    5.7960  -56.5575 C.3       2 GLC5        0.0000 
     28 CA         13.0910    4.2040  -56.6410 C.3       6 GLL5        0.0000 
     29 CA         11.0700    4.6735  -55.9875 C.3       2 GLC5        0.0000 
     30 CA          9.0490    5.1430  -55.3340 C.3       4 GLP5        0.0000 
     31 CA         11.9175    0.6330  -57.8370 C.3       2 GLC5        0.0000 
     32 CA         12.6680    2.0210  -57.4790 C.3       6 GLL5        0.0000 
     33 CA         11.1670   -0.7550  -58.1950 C.3       4 GLP5        0.0000 
     34 CA         22.9840    5.6685  -55.2975 C.3       2 GLC5        0.0000 
     35 CA         21.4820    4.6580  -55.3700 C.3       6 GLL5        0.0000 
     36 CA         24.4860    6.6790  -55.2250 C.3       4 GLP5        0.0000 
     37 CA         24.0050    0.7380  -52.4745 C.3       2 GLC5        0.0000 
     38 CA         23.3570    1.1940  -50.4940 C.3       6 GLL5        0.0000 
     39 CA         24.6530    0.2820  -54.4550 C.3       4 GLP5        0.0000 
     40 CA         23.1475   -0.6880  -51.2920 C.3       2 GLC5        0.0000 
     41 CA         22.9380   -2.5700  -52.0900 C.3       4 GLP5        0.0000 
     42 CA         25.3690    2.0930  -51.5295 C.3       2 GLC5        0.0000 
     43 CA         24.3760    1.6010  -49.6580 C.3       6 GLL5        0.0000 
     44 CA         26.3620    2.5850  -53.4010 C.3       4 GLP5        0.0000 
     45 CA         26.0110    0.4505  -49.1410 C.3       2 GLC5        0.0000 
     46 CA         27.6460   -0.7000  -48.6240 C.3       4 GLP5        0.0000 
     47 CA         23.0660    5.2470  -50.4685 C.3       2 GLC5        0.0000 
     48 CA         23.1830    3.5930  -49.1670 C.3       6 GLL5        0.0000 
     49 CA         22.9490    6.9010  -51.7700 C.3       4 GLP5        0.0000 
     50 CA         21.8180    4.9045  -51.0365 C.3       2 GLC5        0.0000 
     51 CA         22.1590    3.2000  -49.9950 C.3       6 GLL5        0.0000 
     52 CA         21.4770    6.6090  -52.0780 C.3       4 GLP5        0.0000 
     53 CA         24.0170    8.6695  -48.4045 C.3       2 GLC5        0.0000 
     54 CA         24.1060    6.7340  -47.4720 C.3       6 GLL5        0.0000 
     55 CA         23.9280   10.6050  -49.3370 C.3       4 GLP5        0.0000 
     56 CA         23.5275    6.8175  -49.6210 C.3       2 GLC5        0.0000 
     57 CA         25.3220    6.0535  -48.5540 C.3       2 GLC5        0.0000 
     58 CA         26.5380    5.3730  -49.6360 C.3       4 GLP5        0.0000 
     59 CA         22.3325    8.4415  -45.3360 C.3       2 GLC5        0.0000 
     60 CA         23.7050    7.0970  -46.0600 C.3       6 GLL5        0.0000 
     61 CA         20.9600    9.7860  -44.6120 C.3       4 GLP5        0.0000 
     62 CA         24.3920    6.0605  -43.5220 C.3       2 GLC5        0.0000 
     63 CA         23.5430    5.7950  -45.3190 C.3       6 GLL5        0.0000 
     64 CA         25.2410    6.3260  -41.7250 C.3       4 GLP5        0.0000 
     65 CA         22.2620    5.4470  -43.5620 C.3       2 GLC5        0.0000 
     66 CA         20.9810    5.0990  -41.8050 C.3       4 GLP5        0.0000 
     67 CA         25.2545    5.0450  -47.9610 C.3       2 GLC5        0.0000 
     68 CA         23.9710    4.7170  -46.2860 C.3       6 GLL5        0.0000 
     69 CA         18.5795    3.7857  -58.4947 C.3       2 GLC5        0.0000 
     70 CA         16.5660    4.2840  -58.8090 C.3       6 GLL5        0.0000 
     71 CA         20.3180    2.6790  -58.1130 C.3       4 GLP5        0.0000 
     72 CA         17.9835    5.9087  -60.0528 C.3       2 GLC5        0.0000 
     73 CA         19.1260    6.9250  -61.2290 C.3       4 GLP5        0.0000 
     74 CA         18.5435    2.6322  -58.7647 C.3       2 GLC5        0.0000 
     75 CA         16.4770    1.9700  -59.3360 C.3       6 GLL5        0.0000 
     76 CA         13.4141    2.7620  -52.4574 C.3       2 GLC5        0.0000 
     77 CA         14.6390    4.2290  -53.9290 C.3       6 GLL5        0.0000 
     78 CA         12.3200    1.2100  -51.6380 C.3       4 GLP5        0.0000 
     79 CA         13.2831    4.7175  -51.9229 C.3       2 GLC5        0.0000 
     80 CA         12.0580    5.1210  -50.5690 C.3       4 GLP5        0.0000 
     81 CA         13.4767    1.8840  -53.3413 C.3       2 GLC5        0.0000 
     82 CA         14.1810    2.2080  -55.5480 C.3       6 GLL5        0.0000 
     83 CA         15.6081    0.7820  -54.3894 C.3       2 GLC5        0.0000 
     84 CA         15.0860    2.9080  -54.5410 C.3       6 GLL5        0.0000 
     85 CA         15.6150   -1.1630  -53.8300 C.3       4 GLP5        0.0000 
     86 CA         19.0882    4.6418  -52.4103 C.3       2 GLC5        0.0000 
     87 CA         18.6520    2.9980  -53.5430 C.3       6 GLL5        0.0000 
     88 CA         19.1570    5.9080  -50.8330 C.3       4 GLP5        0.0000 
     89 CA         20.5479    3.4512  -56.4994 C.3       2 GLC5        0.0000 
     90 CA         21.3912    5.1536  -53.1114 C.3       2 GLC5        0.0000 
     91 CA         20.7600    3.8250  -54.3710 C.3       6 GLL5        0.0000 
     92 CA         22.4688    2.7481  -55.1339 C.3       2 GLC5        0.0000 
     93 CA         23.6320    1.7980  -56.1230 C.3       4 GLP5        0.0000 
     94 CA         19.6155    4.1368  -51.6947 C.3       2 GLC5        0.0000 
     95 CA         20.7620    2.4070  -52.5340 C.3       6 GLL5        0.0000 
     96 CA         25.1487    4.1354  -49.4405 C.3       2 GLC5        0.0000 
     97 CA         21.9776    3.1466  -47.9761 C.3       2 GLC5        0.0000 
     98 CA         24.2960    2.8040  -48.9880 C.3       6 GLL5        0.0000 
     99 CA         21.0060    3.0940  -46.4160 C.3       4 GLP5        0.0000 
    100 CA         22.3815    4.1750  -46.1093 C.3       2 GLC5        0.0000 
@<TRIPOS>BOND
@<TRIPOS>SUBSTRUCTURE
     1 ALC1        9 GROUP        1 X    ALC  0     ROOT ALC X 1
     2 GLC5        1 GROUP        1 X    GLC  0     **** GLC X 6
     3 ALP1       11 GROUP        1 Y    ALP  0     ROOT ALP Y 8
     4 GLP5        3 GROUP        1 Y    GLP  0     **** GLP Y 13
     5 ALL1       10 GROUP        1 Z    ALL  0     ROOT ALL Z 15
     6 GLL5        2 GROUP        1 Z    GLL  0     **** GLL Z 20
@<TRIPOS>SET

