#    Name: 3k23_JZN_3_ligand
#    Modification time : Mon Mar 24 18:00:02 2014

@<TRIPOS>MOLECULE
3k23_JZN_3_ligand
   84    88     1     0     0
SMALL
NO_CHARGES


@<TRIPOS>ATOM
      1 C1         14.8400   -0.0970  -59.5520 C.3       1 JZN3        0.0000 
      2 F1         17.1160    5.5010  -58.9440 F         1 JZN3        0.0000 
      3 N1         17.2470    2.9030  -53.5620 N.pl3     1 JZN3        0.0000 
      4 O1         14.8110    0.5990  -58.3140 O.3       1 JZN3        0.0000 
      5 C2         15.4010    1.8450  -58.4860 C.ar      1 JZN3        0.0000 
      6 F2         13.2880    4.3650  -53.8980 F         1 JZN3        0.0000 
      7 N2         21.1850    1.6390  -51.4810 N.pl3     1 JZN3        0.0000 
      8 O2         14.9330    2.0120  -53.4630 O.3       1 JZN3        0.0000 
      9 C3         16.4770    1.9700  -59.3360 C.ar      1 JZN3        0.0000 
     10 F3         15.0530    4.3310  -52.6400 F         1 JZN3        0.0000 
     11 N3         20.1480    1.0420  -50.8630 N.2       1 JZN3        0.0000 
     12 O3         21.9710    5.4950  -48.7580 O.2       1 JZN3        0.0000 
     13 C4         17.0610    3.2010  -59.4970 C.ar      1 JZN3        0.0000 
     14 F4         15.1810    5.3060  -54.5360 F         1 JZN3        0.0000 
     15 N4         23.9520    5.3030  -47.6010 N.am      1 JZN3        0.0000 
     16 O4         25.6280    3.2430  -45.4360 O.2       1 JZN3        0.0000 
     17 C5         16.5660    4.2840  -58.8090 C.ar      1 JZN3        0.0000 
     18 N5         26.3260    5.2080  -46.3920 N.am      1 JZN3        0.0000 
     19 C6         15.4970    4.1630  -57.9650 C.ar      1 JZN3        0.0000 
     20 C7         14.9040    2.9380  -57.7930 C.ar      1 JZN3        0.0000 
     21 C8         13.7470    2.8630  -56.8510 C.3       1 JZN3        0.0000 
     22 C9         13.0910    4.2040  -56.6410 C.3       1 JZN3        0.0000 
     23 C10        12.6680    2.0210  -57.4790 C.3       1 JZN3        0.0000 
     24 C11        14.1810    2.2080  -55.5480 C.3       1 JZN3        0.0000 
     25 C12        15.0860    2.9080  -54.5410 C.3       1 JZN3        0.0000 
     26 C13        16.5690    2.8960  -54.8530 C.3       1 JZN3        0.0000 
     27 C14        18.6520    2.9980  -53.5430 C.ar      1 JZN3        0.0000 
     28 C15        19.3870    3.7530  -54.4320 C.ar      1 JZN3        0.0000 
     29 C16        20.7600    3.8250  -54.3710 C.ar      1 JZN3        0.0000 
     30 C17        21.4820    4.6580  -55.3700 C.3       1 JZN3        0.0000 
     31 C18        21.4900    3.1550  -53.4190 C.ar      1 JZN3        0.0000 
     32 C19        20.7620    2.4070  -52.5340 C.ar      1 JZN3        0.0000 
     33 C20        19.0590    1.4640  -51.5070 C.2       1 JZN3        0.0000 
     34 C21        19.3860    2.3240  -52.5790 C.ar      1 JZN3        0.0000 
     35 C22        22.2550    2.0030  -50.6560 C.ar      1 JZN3        0.0000 
     36 C23        23.3570    1.1940  -50.4940 C.ar      1 JZN3        0.0000 
     37 C24        24.3760    1.6010  -49.6580 C.ar      1 JZN3        0.0000 
     38 C25        24.2960    2.8040  -48.9880 C.ar      1 JZN3        0.0000 
     39 C26        23.1830    3.5930  -49.1670 C.ar      1 JZN3        0.0000 
     40 C27        22.1590    3.2000  -49.9950 C.ar      1 JZN3        0.0000 
     41 C28        22.9960    4.8800  -48.4980 C.2       1 JZN3        0.0000 
     42 C29        24.1060    6.7340  -47.4720 C.3       1 JZN3        0.0000 
     43 C30        23.7050    7.0970  -46.0600 C.3       1 JZN3        0.0000 
     44 C31        23.5430    5.7950  -45.3190 C.3       1 JZN3        0.0000 
     45 C32        23.9710    4.7170  -46.2860 C.3       1 JZN3        0.0000 
     46 C33        25.3810    4.3000  -45.9910 C.2       1 JZN3        0.0000 
     47 C34        14.6390    4.2290  -53.9290 C.3       1 JZN3        0.0000 
     48 H          16.7050    2.8406  -52.7203 H         1 JZN3        0.0000 
     49 H          16.8361    1.1509  -59.8419 H         1 JZN3        0.0000 
     50 H          17.8671    3.3151  -60.1304 H         1 JZN3        0.0000 
     51 H          27.2782    4.9602  -46.2131 H         1 JZN3        0.0000 
     52 H          25.9807    6.0389  -46.8284 H         1 JZN3        0.0000 
     53 H          15.1366    4.9879  -57.4590 H         1 JZN3        0.0000 
     54 H          14.6617    1.2033  -55.8062 H         1 JZN3        0.0000 
     55 H          13.2377    1.8757  -54.9939 H         1 JZN3        0.0000 
     56 H          16.8011    2.0036  -55.4110 H         1 JZN3        0.0000 
     57 H          16.8122    3.7755  -55.4265 H         1 JZN3        0.0000 
     58 H          18.8831    4.2890  -55.1778 H         1 JZN3        0.0000 
     59 H          22.4921    3.2123  -53.3777 H         1 JZN3        0.0000 
     60 H          18.1318    1.2318  -51.2968 H         1 JZN3        0.0000 
     61 H          23.4211    0.2963  -50.9899 H         1 JZN3        0.0000 
     62 H          25.2089    0.9976  -49.5323 H         1 JZN3        0.0000 
     63 H          25.0545    3.1041  -48.3669 H         1 JZN3        0.0000 
     64 H          21.3308    3.7983  -50.1162 H         1 JZN3        0.0000 
     65 H          23.4613    7.2654  -48.1635 H         1 JZN3        0.0000 
     66 H          25.1354    7.0371  -47.6294 H         1 JZN3        0.0000 
     67 H          22.7720    7.6291  -46.0736 H         1 JZN3        0.0000 
     68 H          24.4795    7.6845  -45.6030 H         1 JZN3        0.0000 
     69 H          22.5150    5.6535  -45.0488 H         1 JZN3        0.0000 
     70 H          24.1801    5.7833  -44.4566 H         1 JZN3        0.0000 
     71 H          23.3199    3.8931  -46.2165 H         1 JZN3        0.0000 
     72 H          15.7747   -0.2286  -59.8823 H         1 JZN3        0.0000 
     73 H          14.4249   -1.0037  -59.4781 H         1 JZN3        0.0000 
     74 H          14.3432    0.3954  -60.2666 H         1 JZN3        0.0000 
     75 H          13.7278    4.8730  -56.2578 H         1 JZN3        0.0000 
     76 H          12.7447    4.5863  -57.4977 H         1 JZN3        0.0000 
     77 H          12.3157    4.1438  -56.0123 H         1 JZN3        0.0000 
     78 H          12.9853    1.0919  -57.6690 H         1 JZN3        0.0000 
     79 H          11.8666    1.9416  -56.8861 H         1 JZN3        0.0000 
     80 H          12.3537    2.4065  -58.3465 H         1 JZN3        0.0000 
     81 H          22.4714    4.6359  -55.2265 H         1 JZN3        0.0000 
     82 H          21.3144    4.3453  -56.3049 H         1 JZN3        0.0000 
     83 H          21.2009    5.6167  -55.3268 H         1 JZN3        0.0000 
     84 H          13.9841    1.7011  -53.5177 H         1 JZN3        0.0000 
@<TRIPOS>BOND
     1    4    1 1    
     2   72    1 1    
     3   73    1 1    
     4   74    1 1    
     5   17    2 1    
     6   26    3 1    
     7   27    3 1    
     8   48    3 1    
     9    5    4 1    
    10    9    5 ar   
    11   20    5 ar   
    12   47    6 1    
    13   11    7 1    
    14   32    7 1    
    15   35    7 1    
    16   25    8 1    
    17   84    8 1    
    18   13    9 ar   
    19   49    9 1    
    20   47   10 1    
    21   33   11 2    
    22   41   12 2    
    23   17   13 ar   
    24   50   13 1    
    25   47   14 1    
    26   41   15 am   
    27   42   15 1    
    28   45   15 1    
    29   46   16 2    
    30   19   17 ar   
    31   46   18 am   
    32   51   18 1    
    33   52   18 1    
    34   20   19 ar   
    35   53   19 1    
    36   21   20 1    
    37   22   21 1    
    38   23   21 1    
    39   24   21 1    
    40   75   22 1    
    41   76   22 1    
    42   77   22 1    
    43   78   23 1    
    44   79   23 1    
    45   80   23 1    
    46   25   24 1    
    47   54   24 1    
    48   55   24 1    
    49   26   25 1    
    50   47   25 1    
    51   56   26 1    
    52   57   26 1    
    53   28   27 ar   
    54   34   27 ar   
    55   29   28 ar   
    56   58   28 1    
    57   30   29 1    
    58   31   29 ar   
    59   81   30 1    
    60   82   30 1    
    61   83   30 1    
    62   32   31 ar   
    63   59   31 1    
    64   34   32 ar   
    65   34   33 1    
    66   60   33 1    
    67   36   35 ar   
    68   40   35 ar   
    69   37   36 ar   
    70   61   36 1    
    71   38   37 ar   
    72   62   37 1    
    73   39   38 ar   
    74   63   38 1    
    75   40   39 ar   
    76   41   39 1    
    77   64   40 1    
    78   43   42 1    
    79   65   42 1    
    80   66   42 1    
    81   44   43 1    
    82   67   43 1    
    83   68   43 1    
    84   45   44 1    
    85   69   44 1    
    86   70   44 1    
    87   46   45 1    
    88   71   45 1    
@<TRIPOS>SUBSTRUCTURE
     1 JZN3        1 GROUP   
@<TRIPOS>SET

