#    Name: 3gd3_FAD_3_INTS_M
#    Modification time : Tue Mar 25 07:31:45 2014

@<TRIPOS>MOLECULE
3gd3_FAD_3_INTS_M
  100     0    12     0     0
SMALL
NO_CHARGES


@<TRIPOS>ATOM
      1 NZ        -13.0765    9.3415   12.7500 N.4       3 LYC4        0.0000 
      2 NZ        -13.7790   10.6220   13.7540 N.4      11 LYL4        0.0000 
      3 NZ        -12.3740    8.0610   11.7460 N.4       7 LYP4        0.0000 
      4 NZ        -14.2215   12.2170   11.6180 N.4       3 LYC4        0.0000 
      5 NZ        -15.4690   12.1550   12.4970 N.4      11 LYL4        0.0000 
      6 NZ        -11.9850   13.1390   11.0070 N.4       7 LYP4        0.0000 
      7 N         -14.2215   12.2170   11.6180 N.am      2 SEC2        0.0000 
      8 N         -15.4690   12.1550   12.4970 N.am     10 SEL2        0.0000 
      9 N         -12.9740   12.2790   10.7390 N.am      6 SEP2        0.0000 
     10 CA        -14.8430   11.1235   17.8520 C.3       4 GLC5        0.0000 
     11 CA        -14.2640   12.0020   16.1080 C.3      12 GLL5        0.0000 
     12 CA        -15.4220   10.2450   19.5960 C.3       8 GLP5        0.0000 
     13 CA        -14.6320   10.1645   16.2360 C.3       4 GLC5        0.0000 
     14 CA        -15.0000    8.3270   16.3640 C.3       8 GLP5        0.0000 
     15 CA        -14.5465   14.2420   18.2505 C.3       4 GLC5        0.0000 
     16 CA        -13.6560   13.3050   16.6280 C.3      12 GLL5        0.0000 
     17 CA        -15.4370   15.1790   19.8730 C.3       8 GLP5        0.0000 
     18 CA        -13.8960   14.4475   19.2150 C.3       4 GLC5        0.0000 
     19 CA        -12.3550   13.7160   18.5570 C.3      12 GLL5        0.0000 
     20 CA        -13.6095   11.3950   22.0665 C.3       4 GLC5        0.0000 
     21 CA        -11.9330   12.5510   22.0320 C.3      12 GLL5        0.0000 
     22 CA        -15.2860   10.2390   22.1010 C.3       8 GLP5        0.0000 
     23 CA        -13.6925   13.4300   23.9160 C.3       4 GLC5        0.0000 
     24 CA        -11.8800   12.9130   23.3660 C.3      12 GLL5        0.0000 
     25 CA        -15.5050   13.9470   24.4660 C.3       8 GLP5        0.0000 
     26 CA        -10.1775   13.5155   23.9930 C.3       4 GLC5        0.0000 
     27 CA         -8.4750   14.1180   24.6200 C.3       8 GLP5        0.0000 
     28 O         -11.3800   12.3565   25.7440 O.2       1 ALC1        0.0000 
     29 O         -11.6910   11.9950   24.3300 O.2       9 ALL1        0.0000 
     30 O         -11.0690   12.7180   27.1580 O.2       5 ALP1        0.0000 
     31 N         -11.5845   14.8270   25.0220 N.am      2 SEC2        0.0000 
     32 N         -12.0200   14.2140   23.6880 N.am     10 SEL2        0.0000 
     33 N         -11.1490   15.4400   26.3560 N.am      6 SEP2        0.0000 
     34 CA        -13.8575   14.5575   23.6100 C.3       4 GLC5        0.0000 
     35 CA        -12.2100   15.1680   22.7540 C.3      12 GLL5        0.0000 
     36 CA        -13.8235   15.1735   21.3135 C.3       4 GLC5        0.0000 
     37 CA        -12.3485   16.9745   21.5375 C.3       4 GLC5        0.0000 
     38 CA        -12.4870   18.7810   20.3210 C.3       8 GLP5        0.0000 
     39 CA        -10.4775   15.4675   21.6210 C.3       4 GLC5        0.0000 
     40 CA         -8.7450   15.7670   20.4880 C.3       8 GLP5        0.0000 
     41 CA        -10.7705   15.8235   23.9180 C.3       4 GLC5        0.0000 
     42 CA         -9.3310   16.4790   25.0820 C.3       8 GLP5        0.0000 
     43 N         -11.3620   16.1995   20.8530 N.am      2 SEC2        0.0000 
     44 N         -12.2720   14.8870   21.4370 N.am     10 SEL2        0.0000 
     45 N         -10.4520   17.5120   20.2690 N.am      6 SEP2        0.0000 
     46 CA        -13.7905   14.3990   20.4510 C.3       4 GLC5        0.0000 
     47 CA        -12.1440   13.6190   21.0290 C.3      12 GLL5        0.0000 
     48 CA        -10.4445   14.6930   20.7585 C.3       4 GLC5        0.0000 
     49 N         -18.9805    7.6640    5.8860 N.am      2 SEC2        0.0000 
     50 N         -17.7000    7.4970    4.8290 N.am     10 SEL2        0.0000 
     51 N         -20.2610    7.8310    6.9430 N.am      6 SEP2        0.0000 
     52 N         -19.9900    7.4625    5.4295 N.am      2 SEC2        0.0000 
     53 N         -19.7190    7.0940    3.9160 N.am     10 SEL2        0.0000 
     54 N         -15.6185    9.1420    0.4410 N.am      2 SEC2        0.0000 
     55 N         -16.2620    8.2560    1.1920 N.am     10 SEL2        0.0000 
     56 N         -14.9750   10.0280   -0.3100 N.am      6 SEP2        0.0000 
     57 CA         -9.8090   11.3985    4.2440 C.3       4 GLC5        0.0000 
     58 CA        -10.1960    9.4210    4.7020 C.3      12 GLL5        0.0000 
     59 CA         -9.4220   13.3760    3.7860 C.3       8 GLP5        0.0000 
     60 CA         -9.7365    9.3225    2.7590 C.3       4 GLC5        0.0000 
     61 CA         -9.2770    9.2240    0.8160 C.3       8 GLP5        0.0000 
     62 CA         -8.3360    9.4220    4.5295 C.3       4 GLC5        0.0000 
     63 CA         -6.4760    9.4230    4.3570 C.3       8 GLP5        0.0000 
     64 CA        -12.0560   10.2625    8.5520 C.3       4 GLC5        0.0000 
     65 CA        -10.9200    8.9290    7.6410 C.3      12 GLL5        0.0000 
     66 CA        -13.1920   11.5960    9.4630 C.3       8 GLP5        0.0000 
     67 CA        -10.1915    9.3265    9.2520 C.3       4 GLC5        0.0000 
     68 CA         -9.4630    9.7240   10.8630 C.3       8 GLP5        0.0000 
     69 CA        -18.7495    9.0435    7.4205 C.3       4 GLC5        0.0000 
     70 CA        -16.7950    8.8610    7.8880 C.3      12 GLL5        0.0000 
     71 CA        -20.7040    9.2260    6.9530 C.3       8 GLP5        0.0000 
     72 N         -17.2710    6.9835   11.0580 N.am      2 SEC2        0.0000 
     73 N         -16.4790    7.5880    9.9690 N.am     10 SEL2        0.0000 
     74 N         -18.0630    6.3790   12.1470 N.am      6 SEP2        0.0000 
     75 O         -16.2230    7.3160   11.2045 O.2       1 ALC1        0.0000 
     76 O         -16.4790    7.5880    9.9690 O.2       9 ALL1        0.0000 
     77 O         -15.9670    7.0440   12.4400 O.2       5 ALP1        0.0000 
     78 N         -19.5305   12.5590   13.8305 N.am      2 SEC2        0.0000 
     79 N         -18.2430   11.9150   14.2370 N.am     10 SEL2        0.0000 
     80 N         -20.8180   13.2030   13.4240 N.am      6 SEP2        0.0000 
     81 N         -18.9850    8.0050   14.5485 N.am      2 SEC2        0.0000 
     82 N         -18.6610    9.3570   14.2770 N.am     10 SEL2        0.0000 
     83 N         -19.3090    6.6530   14.8200 N.am      6 SEP2        0.0000 
     84 CA        -15.4210   13.8508   15.4130 C.3       4 GLC5        0.0000 
     85 CA        -16.8820   15.0480   14.4580 C.3       8 GLP5        0.0000 
     86 CA        -13.8178   10.2715    3.4310 C.3       4 GLC5        0.0000 
     87 CA        -12.5810    8.8380    4.4890 C.3      12 GLL5        0.0000 
     88 CA        -14.4460   11.8540    2.4310 C.3       8 GLP5        0.0000 
     89 CA        -10.1279    7.7192    4.0539 C.3       4 GLC5        0.0000 
     90 CA         -9.1230    6.2630    3.3340 C.3       8 GLP5        0.0000 
     91 CA        -14.9695   10.5072    9.5882 C.3       4 GLC5        0.0000 
     92 CA        -16.3480    8.8830    9.3530 C.3      12 GLL5        0.0000 
     93 CA        -18.4720   11.6330   10.6963 C.3       4 GLC5        0.0000 
     94 CA        -17.1460    9.9540   10.0740 C.3      12 GLL5        0.0000 
     95 CA        -19.4520   13.5590   10.6940 C.3       8 GLP5        0.0000 
     96 CA        -19.3085    9.6210   10.7833 C.3       4 GLC5        0.0000 
     97 CA        -21.1250    9.5350   10.8680 C.3       8 GLP5        0.0000 
     98 CA        -13.1258   10.3852    6.2932 C.3       4 GLC5        0.0000 
     99 CA        -13.2900    8.4140    6.7980 C.3      12 GLL5        0.0000 
    100 CA        -13.6380   12.0590    6.9760 C.3       8 GLP5        0.0000 
@<TRIPOS>BOND
@<TRIPOS>SUBSTRUCTURE
     1 ALC1       28 GROUP        1 X    ALC  0     ROOT ALC X 1
     2 SEC2        7 GROUP        1 X    SEC  0     **** SEC X 2
     3 LYC4        1 GROUP        1 X    LYC  0     **** LYC X 4
     4 GLC5       10 GROUP        1 X    GLC  0     **** GLC X 6
     5 ALP1       30 GROUP        1 Y    ALP  0     ROOT ALP Y 8
     6 SEP2        9 GROUP        1 Y    SEP  0     **** SEP Y 9
     7 LYP4        3 GROUP        1 Y    LYP  0     **** LYP Y 11
     8 GLP5       12 GROUP        1 Y    GLP  0     **** GLP Y 13
     9 ALL1       29 GROUP        1 Z    ALL  0     ROOT ALL Z 15
    10 SEL2        8 GROUP        1 Z    SEL  0     **** SEL Z 16
    11 LYL4        2 GROUP        1 Z    LYL  0     **** LYL Z 18
    12 GLL5       11 GROUP        1 Z    GLL  0     **** GLL Z 20
@<TRIPOS>SET

