#    Name: 3gd3_FAD_3_ligand
#    Modification time : Tue Mar 25 07:31:45 2014

@<TRIPOS>MOLECULE
3gd3_FAD_3_ligand
   84    89     1     0     0
SMALL
NO_CHARGES


@<TRIPOS>ATOM
      1 PA        -15.1190   11.3130   13.7040 P.3       1 FAD1611     0.0000 
      2 O1A       -13.7790   10.6220   13.7540 O.co2     1 FAD1611     0.0000 
      3 O2A       -15.4690   12.1550   12.4970 O.co2     1 FAD1611     0.0000 
      4 O5B       -15.1460   12.2450   15.0150 O.3       1 FAD1611     0.0000 
      5 C5B       -14.2640   12.0020   16.1080 C.3       1 FAD1611     0.0000 
      6 C4B       -13.6560   13.3050   16.6280 C.3       1 FAD1611     0.0000 
      7 O4B       -13.6310   13.3320   18.0640 O.3       1 FAD1611     0.0000 
      8 C3B       -12.2160   13.4690   16.2030 C.3       1 FAD1611     0.0000 
      9 O3B       -12.0670   14.8110   15.7440 O.3       1 FAD1611     0.0000 
     10 C2B       -11.4140   13.2500   17.4720 C.3       1 FAD1611     0.0000 
     11 O2B       -10.2040   14.0020   17.4760 O.3       1 FAD1611     0.0000 
     12 C1B       -12.3550   13.7160   18.5570 C.3       1 FAD1611     0.0000 
     13 N9A       -12.1560   13.0230   19.8440 N.pl3     1 FAD1611     0.0000 
     14 C8A       -11.9800   11.6990   20.0330 C.2       1 FAD1611     0.0000 
     15 N7A       -11.8410   11.3930   21.3460 N.2       1 FAD1611     0.0000 
     16 C5A       -11.9330   12.5510   22.0320 C.ar      1 FAD1611     0.0000 
     17 C6A       -11.8800   12.9130   23.3660 C.ar      1 FAD1611     0.0000 
     18 N6A       -11.6910   11.9950   24.3300 N.pl3     1 FAD1611     0.0000 
     19 N1A       -12.0200   14.2140   23.6880 N.ar      1 FAD1611     0.0000 
     20 C2A       -12.2100   15.1680   22.7540 C.ar      1 FAD1611     0.0000 
     21 N3A       -12.2720   14.8870   21.4370 N.ar      1 FAD1611     0.0000 
     22 C4A       -12.1440   13.6190   21.0290 C.ar      1 FAD1611     0.0000 
     23 N1        -17.7000    7.4970    4.8290 N.2       1 FAD1611     0.0000 
     24 C2        -18.5120    7.4070    3.7490 C.2       1 FAD1611     0.0000 
     25 O2        -19.7190    7.0940    3.9160 O.2       1 FAD1611     0.0000 
     26 N3        -18.0210    7.6710    2.5050 N.am      1 FAD1611     0.0000 
     27 C4        -16.7110    8.0200    2.3430 C.2       1 FAD1611     0.0000 
     28 O4        -16.2620    8.2560    1.1920 O.2       1 FAD1611     0.0000 
     29 C4X       -15.8710    8.1140    3.4560 C.2       1 FAD1611     0.0000 
     30 N5        -14.5820    8.4550    3.2950 N.2       1 FAD1611     0.0000 
     31 C5X       -13.7980    8.5400    4.3730 C.ar      1 FAD1611     0.0000 
     32 C6        -12.5810    8.8380    4.4890 C.ar      1 FAD1611     0.0000 
     33 C7        -11.5580    9.0220    5.2020 C.ar      1 FAD1611     0.0000 
     34 C7M       -10.1960    9.4210    4.7020 C.3       1 FAD1611     0.0000 
     35 C8        -11.9340    8.7900    6.5300 C.ar      1 FAD1611     0.0000 
     36 C8M       -10.9200    8.9290    7.6410 C.3       1 FAD1611     0.0000 
     37 C9        -13.2900    8.4140    6.7980 C.ar      1 FAD1611     0.0000 
     38 C9A       -14.2560    8.2760    5.7590 C.ar      1 FAD1611     0.0000 
     39 N10       -15.6110    7.9180    5.8910 N.pl3     1 FAD1611     0.0000 
     40 C10       -16.4000    7.8440    4.7210 C.2       1 FAD1611     0.0000 
     41 C1'       -16.2170    7.6240    7.1850 C.3       1 FAD1611     0.0000 
     42 C2'       -16.7950    8.8610    7.8880 C.3       1 FAD1611     0.0000 
     43 O2'       -16.4490   10.1100    7.2350 O.3       1 FAD1611     0.0000 
     44 C3'       -16.3480    8.8830    9.3530 C.3       1 FAD1611     0.0000 
     45 O3'       -16.4790    7.5880    9.9690 O.3       1 FAD1611     0.0000 
     46 C4'       -17.1460    9.9540   10.0740 C.3       1 FAD1611     0.0000 
     47 O4'       -16.2190   10.9670   10.4520 O.3       1 FAD1611     0.0000 
     48 C5'       -17.8380    9.4600   11.3230 C.3       1 FAD1611     0.0000 
     49 O5'       -18.0760   10.5980   12.1490 O.3       1 FAD1611     0.0000 
     50 P         -17.8940   10.5400   13.7390 P.3       1 FAD1611     0.0000 
     51 O1P       -18.2430   11.9150   14.2370 O.co2     1 FAD1611     0.0000 
     52 O2P       -18.6610    9.3570   14.2770 O.co2     1 FAD1611     0.0000 
     53 O3P       -16.3090   10.2400   13.9030 O.3       1 FAD1611     0.0000 
     54 H         -13.4317   11.3388   15.8202 H         1 FAD1611     0.0000 
     55 H         -14.7839   11.5184   16.9513 H         1 FAD1611     0.0000 
     56 H         -14.2184   14.1380   16.2462 H         1 FAD1611     0.0000 
     57 H         -11.9766   12.7454   15.4953 H         1 FAD1611     0.0000 
     58 H         -11.2645   12.2003   17.5914 H         1 FAD1611     0.0000 
     59 H         -12.2894   14.7628   18.6575 H         1 FAD1611     0.0000 
     60 H         -11.9550   11.0323   19.3068 H         1 FAD1611     0.0000 
     61 H         -11.6291   11.0443   24.0262 H         1 FAD1611     0.0000 
     62 H         -11.6291   12.3449   25.2648 H         1 FAD1611     0.0000 
     63 H         -12.3142   16.1741   23.0666 H         1 FAD1611     0.0000 
     64 H         -18.6447    7.6067    1.6771 H         1 FAD1611     0.0000 
     65 H         -12.1875    9.0675    3.2937 H         1 FAD1611     0.0000 
     66 H         -13.5729    8.2385    7.7730 H         1 FAD1611     0.0000 
     67 H         -15.4765    7.1643    7.8688 H         1 FAD1611     0.0000 
     68 H         -17.0363    6.8865    7.0752 H         1 FAD1611     0.0000 
     69 H         -17.8928    8.7400    7.9010 H         1 FAD1611     0.0000 
     70 H         -15.2980    9.2060    9.3541 H         1 FAD1611     0.0000 
     71 H         -17.8784   10.3553    9.3951 H         1 FAD1611     0.0000 
     72 H         -17.1903    8.7349   11.8100 H         1 FAD1611     0.0000 
     73 H         -18.7644    8.9710   11.0313 H         1 FAD1611     0.0000 
     74 H          -9.5365    9.5063    5.4488 H         1 FAD1611     0.0000 
     75 H          -9.8255    8.7509    4.0589 H         1 FAD1611     0.0000 
     76 H         -10.2176   10.3013    4.2281 H         1 FAD1611     0.0000 
     77 H         -10.1491    8.3035    7.5207 H         1 FAD1611     0.0000 
     78 H         -10.5426    9.8540    7.6858 H         1 FAD1611     0.0000 
     79 H         -11.3203    8.7321    8.5360 H         1 FAD1611     0.0000 
     80 H         -11.3668   15.2105   16.3357 H         1 FAD1611     0.0000 
     81 H         -10.2130   14.5019   18.3420 H         1 FAD1611     0.0000 
     82 H         -16.2937   10.7576    7.9810 H         1 FAD1611     0.0000 
     83 H         -16.1803    7.7197   10.9142 H         1 FAD1611     0.0000 
     84 H         -16.3446   11.0777   11.4379 H         1 FAD1611     0.0000 
@<TRIPOS>BOND
     1    2    1 ar   
     2    3    1 ar   
     3    4    1 1    
     4   53    1 1    
     5    5    4 1    
     6    6    5 1    
     7   54    5 1    
     8   55    5 1    
     9    7    6 1    
    10    8    6 1    
    11   56    6 1    
    12   12    7 1    
    13    9    8 1    
    14   10    8 1    
    15   57    8 1    
    16   80    9 1    
    17   11   10 1    
    18   12   10 1    
    19   58   10 1    
    20   81   11 1    
    21   13   12 1    
    22   59   12 1    
    23   14   13 1    
    24   22   13 1    
    25   15   14 2    
    26   60   14 1    
    27   16   15 1    
    28   17   16 ar   
    29   22   16 ar   
    30   18   17 1    
    31   19   17 ar   
    32   61   18 1    
    33   62   18 1    
    34   20   19 ar   
    35   21   20 ar   
    36   63   20 1    
    37   22   21 ar   
    38   24   23 1    
    39   40   23 2    
    40   25   24 2    
    41   26   24 am   
    42   27   26 am   
    43   64   26 1    
    44   28   27 2    
    45   29   27 1    
    46   30   29 2    
    47   40   29 1    
    48   31   30 1    
    49   32   31 ar   
    50   38   31 ar   
    51   33   32 ar   
    52   65   32 1    
    53   34   33 1    
    54   35   33 ar   
    55   74   34 1    
    56   75   34 1    
    57   76   34 1    
    58   36   35 1    
    59   37   35 ar   
    60   77   36 1    
    61   78   36 1    
    62   79   36 1    
    63   38   37 ar   
    64   66   37 1    
    65   39   38 1    
    66   40   39 1    
    67   41   39 1    
    68   42   41 1    
    69   67   41 1    
    70   68   41 1    
    71   43   42 1    
    72   44   42 1    
    73   69   42 1    
    74   82   43 1    
    75   45   44 1    
    76   46   44 1    
    77   70   44 1    
    78   83   45 1    
    79   47   46 1    
    80   48   46 1    
    81   71   46 1    
    82   84   47 1    
    83   49   48 1    
    84   72   48 1    
    85   73   48 1    
    86   50   49 1    
    87   51   50 ar   
    88   52   50 ar   
    89   53   50 1    
@<TRIPOS>SUBSTRUCTURE
     1 FAD1611     1 GROUP   
@<TRIPOS>SET

