#    Name: 2vos_ADP_1_INTS_M
#    Modification time : Tue Mar 25 02:17:23 2014

@<TRIPOS>MOLECULE
2vos_ADP_1_INTS_M
   81     0    15     0     0
SMALL
NO_CHARGES


@<TRIPOS>ATOM
      1 NZ         26.1640   11.5675   61.9495 N.4       3 LYC4        0.0000 
      2 NZ         24.3830   11.4320   61.0610 N.4      13 LYL4        0.0000 
      3 NZ         27.9450   11.7030   62.8380 N.4       8 LYP4        0.0000 
      4 Zn         23.7930   11.6305   61.8545 Zn        4 ZIC7        0.0000 
      5 Zn         24.3830   11.4320   61.0610 Zn       14 ZIL7        0.0000 
      6 Zn         23.2030   11.8290   62.6480 Zn        9 ZIP7        0.0000 
      7 N          23.9975   10.1870   60.6940 N.am      2 SEC2        0.0000 
      8 N          24.3830   11.4320   61.0610 N.am     12 SEL2        0.0000 
      9 N          23.6120    8.9420   60.3270 N.am      7 SEP2        0.0000 
     10 NZ         26.6855   12.6995   61.8030 N.4       3 LYC4        0.0000 
     11 NZ         25.4260   13.6960   60.7680 N.4      13 LYL4        0.0000 
     12 NZ         27.3765   11.6790   61.5650 N.4       3 LYC4        0.0000 
     13 NZ         26.8080   11.6550   60.2920 N.4      13 LYL4        0.0000 
     14 N          26.5545   10.3820   59.7720 N.am      2 SEC2        0.0000 
     15 N          26.8080   11.6550   60.2920 N.am     12 SEL2        0.0000 
     16 N          26.3010    9.1090   59.2520 N.am      7 SEP2        0.0000 
     17 N          27.3765   11.6790   61.5650 N.am      2 SEC2        0.0000 
     18 N          27.9450   11.7030   62.8380 N.am      7 SEP2        0.0000 
     19 NZ         21.3500   13.2905   59.3650 N.4       3 LYC4        0.0000 
     20 NZ         22.5960   12.8860   58.8670 N.4      13 LYL4        0.0000 
     21 NZ         19.5090   13.8570   58.6950 N.4       8 LYP4        0.0000 
     22 N          21.3925   13.2560   58.2145 N.am      2 SEC2        0.0000 
     23 N          22.5960   12.8860   58.8670 N.am     12 SEL2        0.0000 
     24 N          20.1890   13.6260   57.5620 N.am      7 SEP2        0.0000 
     25 N          21.3500   13.2905   59.3650 N.am      2 SEC2        0.0000 
     26 N          20.1040   13.6950   59.8630 N.am      7 SEP2        0.0000 
     27 N          22.7820    9.7525   57.5150 N.am      2 SEC2        0.0000 
     28 N          23.4160   11.0380   57.0840 N.am     12 SEL2        0.0000 
     29 N          22.1480    8.4670   57.9460 N.am      7 SEP2        0.0000 
     30 N          22.6125   10.3870   56.1545 N.am      2 SEC2        0.0000 
     31 N          21.8090    9.7360   55.2250 N.am      7 SEP2        0.0000 
     32 N          26.1435   11.5110   58.0085 N.am      2 SEC2        0.0000 
     33 N          25.0920   12.1980   58.7680 N.am     12 SEL2        0.0000 
     34 N          27.1950   10.8240   57.2490 N.am      7 SEP2        0.0000 
     35 CA         22.3800   14.1045   56.1835 C.3       5 GLC5        0.0000 
     36 CA         24.1640   14.8060   57.2670 C.3      15 GLL5        0.0000 
     37 CA         20.5960   13.4030   55.1000 C.3      10 GLP5        0.0000 
     38 CA         22.5500   16.2410   57.5125 C.3       5 GLC5        0.0000 
     39 CA         20.9360   17.6760   57.7580 C.3      10 GLP5        0.0000 
     40 CA         24.5840   17.6140   55.7565 C.3       5 GLC5        0.0000 
     41 CA         24.5320   15.5150   55.9450 C.3      15 GLL5        0.0000 
     42 CA         24.6360   19.7130   55.5680 C.3      10 GLP5        0.0000 
     43 N          27.3100   15.1380   56.0280 N.am      2 SEC2        0.0000 
     44 N          25.8260   15.0270   55.4950 N.am     12 SEL2        0.0000 
     45 N          28.7940   15.2490   56.5610 N.am      7 SEP2        0.0000 
     46 CA         22.1145   14.2795   54.9320 C.3       5 GLC5        0.0000 
     47 CA         23.6330   15.1560   54.7640 C.3      15 GLL5        0.0000 
     48 O          22.0020   16.6145   53.3150 O.2       1 ALC1        0.0000 
     49 O          22.6540   16.1520   54.5480 O.2      11 ALL1        0.0000 
     50 O          21.3500   17.0770   52.0820 O.2       6 ALP1        0.0000 
     51 O          23.6535   17.5485   53.0185 O.2       1 ALC1        0.0000 
     52 O          24.6750   16.5600   53.1430 O.2      11 ALL1        0.0000 
     53 O          22.6320   18.5370   52.8940 O.2       6 ALP1        0.0000 
     54 CA         27.1700   16.1455   53.8495 C.3       5 GLC5        0.0000 
     55 CA         25.8210   14.7900   54.0650 C.3      15 GLL5        0.0000 
     56 CA         28.5190   17.5010   53.6340 C.3      10 GLP5        0.0000 
     57 N          25.9370    9.7625   53.7560 N.am      2 SEC2        0.0000 
     58 N          26.4120   11.1300   54.0830 N.am     12 SEL2        0.0000 
     59 N          25.4620    8.3950   53.4290 N.am      7 SEP2        0.0000 
     60 CA         27.0300   10.6310   55.2225 C.3       5 GLC5        0.0000 
     61 CA         27.5940   11.6280   53.6140 C.3      15 GLL5        0.0000 
     62 CA         26.4660    9.6340   56.8310 C.3      10 GLP5        0.0000 
     63 CA         28.3125   11.0940   51.4750 C.3       5 GLC5        0.0000 
     64 CA         28.8830   11.0800   53.1770 C.3      15 GLL5        0.0000 
     65 CA         27.7420   11.1080   49.7730 C.3      10 GLP5        0.0000 
     66 O          28.2775    8.5560   53.4365 O.2       1 ALC1        0.0000 
     67 O          29.1070    9.7490   53.1860 O.2      11 ALL1        0.0000 
     68 O          27.4480    7.3630   53.6870 O.2       6 ALP1        0.0000 
     69 CA         29.6000   13.0975   54.5620 C.3       5 GLC5        0.0000 
     70 CA         29.6150   13.3030   52.6250 C.3      15 GLL5        0.0000 
     71 CA         29.5850   12.8920   56.4990 C.3      10 GLP5        0.0000 
     72 CA         28.6785   12.2055   51.1990 C.3       5 GLC5        0.0000 
     73 CA         29.0670   15.4020   53.1295 C.3       5 GLC5        0.0000 
     74 CA         28.8800   14.3455   51.2200 C.3       5 GLC5        0.0000 
     75 CA         28.1450   15.3880   49.8150 C.3      10 GLP5        0.0000 
     76 CA         27.8035   14.2390   51.6605 C.3       5 GLC5        0.0000 
     77 CA         27.4620   13.0900   53.5060 C.3      15 GLL5        0.0000 
     78 CA         25.3240   13.5665   52.2087 C.3       5 GLC5        0.0000 
     79 CA         25.5040   12.1610   50.6280 C.3      10 GLP5        0.0000 
     80 CA         26.5160   12.2600   52.0940 C.3       5 GLC5        0.0000 
     81 CA         28.7176   12.5570   54.9749 C.3       5 GLC5        0.0000 
@<TRIPOS>BOND
@<TRIPOS>SUBSTRUCTURE
     1 ALC1       48 GROUP        1 X    ALC  0     ROOT ALC X 1
     2 SEC2        7 GROUP        1 X    SEC  0     **** SEC X 2
     3 LYC4        1 GROUP        1 X    LYC  0     **** LYC X 4
     4 ZIC7        4 GROUP        1 X    ZIC  0     **** ZIC X 5
     5 GLC5       35 GROUP        1 X    GLC  0     **** GLC X 6
     6 ALP1       50 GROUP        1 Y    ALP  0     ROOT ALP Y 8
     7 SEP2        9 GROUP        1 Y    SEP  0     **** SEP Y 9
     8 LYP4        3 GROUP        1 Y    LYP  0     **** LYP Y 11
     9 ZIP7        6 GROUP        1 Y    ZIP  0     **** ZIP Y 12
    10 GLP5       37 GROUP        1 Y    GLP  0     **** GLP Y 13
    11 ALL1       49 GROUP        1 Z    ALL  0     ROOT ALL Z 15
    12 SEL2        8 GROUP        1 Z    SEL  0     **** SEL Z 16
    13 LYL4        2 GROUP        1 Z    LYL  0     **** LYL Z 18
    14 ZIL7        5 GROUP        1 Z    ZIL  0     **** ZIL Z 19
    15 GLL5       36 GROUP        1 Z    GLL  0     **** GLL Z 20
@<TRIPOS>SET

