#    Name: 2vos_ADP_1_ligand
#    Modification time : Tue Mar 25 02:17:23 2014

@<TRIPOS>MOLECULE
2vos_ADP_1_ligand
   39    41     1     0     0
SMALL
NO_CHARGES


@<TRIPOS>ATOM
      1 PB         25.4340   12.2500   60.3570 P.3       1 ADP1490     0.0000 
      2 O1B        24.3830   11.4320   61.0610 O.co2     1 ADP1490     0.0000 
      3 O2B        25.4260   13.6960   60.7680 O.co2     1 ADP1490     0.0000 
      4 O3B        26.8080   11.6550   60.2920 O.co2     1 ADP1490     0.0000 
      5 PA         23.6540   12.2380   57.9860 P.3       1 ADP1490     0.0000 
      6 O1A        22.5960   12.8860   58.8670 O.co2     1 ADP1490     0.0000 
      7 O2A        23.4160   11.0380   57.0840 O.co2     1 ADP1490     0.0000 
      8 O3A        25.0920   12.1980   58.7680 O.3       1 ADP1490     0.0000 
      9 O5'        23.9890   13.4230   56.9260 O.3       1 ADP1490     0.0000 
     10 C5'        24.1640   14.8060   57.2670 C.3       1 ADP1490     0.0000 
     11 C4'        24.5320   15.5150   55.9450 C.3       1 ADP1490     0.0000 
     12 O4'        25.8260   15.0270   55.4950 O.3       1 ADP1490     0.0000 
     13 C3'        23.6330   15.1560   54.7640 C.3       1 ADP1490     0.0000 
     14 O3'        22.6540   16.1520   54.5480 O.3       1 ADP1490     0.0000 
     15 C2'        24.4670   15.1540   53.5140 C.3       1 ADP1490     0.0000 
     16 O2'        24.6750   16.5600   53.1430 O.3       1 ADP1490     0.0000 
     17 C1'        25.8210   14.7900   54.0650 C.3       1 ADP1490     0.0000 
     18 N9         26.2310   13.3610   53.9490 N.pl3     1 ADP1490     0.0000 
     19 C8         25.6090   12.2020   54.3510 C.2       1 ADP1490     0.0000 
     20 N7         26.4120   11.1300   54.0830 N.2       1 ADP1490     0.0000 
     21 C5         27.5940   11.6280   53.6140 C.ar      1 ADP1490     0.0000 
     22 C6         28.8830   11.0800   53.1770 C.ar      1 ADP1490     0.0000 
     23 N6         29.1070    9.7490   53.1860 N.pl3     1 ADP1490     0.0000 
     24 N1         29.7840   11.9590   52.7230 N.ar      1 ADP1490     0.0000 
     25 C2         29.6150   13.3030   52.6250 C.ar      1 ADP1490     0.0000 
     26 N3         28.4660   13.9010   53.0360 N.ar      1 ADP1490     0.0000 
     27 C4         27.4620   13.0900   53.5060 C.ar      1 ADP1490     0.0000 
     28 H          24.9754   14.9566   57.9586 H         1 ADP1490     0.0000 
     29 H          23.2578   15.2527   57.6392 H         1 ADP1490     0.0000 
     30 H          24.5550   16.5583   56.0687 H         1 ADP1490     0.0000 
     31 H          23.2190   14.1966   54.9050 H         1 ADP1490     0.0000 
     32 H          24.1622   14.5577   52.8131 H         1 ADP1490     0.0000 
     33 H          26.5833   15.4129   53.6160 H         1 ADP1490     0.0000 
     34 H          24.7352   12.1583   54.7609 H         1 ADP1490     0.0000 
     35 H          28.3396    9.1756   53.4731 H         1 ADP1490     0.0000 
     36 H          30.0203    9.4546   52.9049 H         1 ADP1490     0.0000 
     37 H          30.3848   13.8902   52.2250 H         1 ADP1490     0.0000 
     38 H          22.4709   16.1260   53.5653 H         1 ADP1490     0.0000 
     39 H          23.7591   16.9609   53.1246 H         1 ADP1490     0.0000 
@<TRIPOS>BOND
     1    2    1 ar   
     2    3    1 ar   
     3    4    1 ar   
     4    8    1 1    
     5    6    5 ar   
     6    7    5 ar   
     7    8    5 1    
     8    9    5 1    
     9   10    9 1    
    10   11   10 1    
    11   28   10 1    
    12   29   10 1    
    13   12   11 1    
    14   13   11 1    
    15   30   11 1    
    16   17   12 1    
    17   14   13 1    
    18   15   13 1    
    19   31   13 1    
    20   38   14 1    
    21   16   15 1    
    22   17   15 1    
    23   32   15 1    
    24   39   16 1    
    25   18   17 1    
    26   33   17 1    
    27   19   18 1    
    28   27   18 1    
    29   20   19 2    
    30   34   19 1    
    31   21   20 1    
    32   22   21 ar   
    33   27   21 ar   
    34   23   22 1    
    35   24   22 ar   
    36   35   23 1    
    37   36   23 1    
    38   25   24 ar   
    39   26   25 ar   
    40   37   25 1    
    41   27   26 ar   
@<TRIPOS>SUBSTRUCTURE
     1 ADP1490     1 GROUP   
@<TRIPOS>SET

