#    Name: 1a8p_FAD_1_INTS_M
#    Modification time : Mon Mar 24 18:04:05 2014

@<TRIPOS>MOLECULE
1a8p_FAD_1_INTS_M
   84     0    12     0     0
SMALL
NO_CHARGES


@<TRIPOS>ATOM
      1 NZ         32.1490  -29.9175    9.9435 N.4       3 LYC4        0.0000 
      2 NZ         30.7800  -30.3800   11.0240 N.4      11 LYL4        0.0000 
      3 NZ         33.5180  -29.4550    8.8630 N.4       7 LYP4        0.0000 
      4 NZ         33.2260  -30.4140   10.1190 N.4       3 LYC4        0.0000 
      5 NZ         32.9340  -31.3730   11.3750 N.4      11 LYL4        0.0000 
      6 N          33.2260  -30.4140   10.1190 N.am      2 SEC2        0.0000 
      7 N          32.9340  -31.3730   11.3750 N.am     10 SEL2        0.0000 
      8 N          33.5180  -29.4550    8.8630 N.am      6 SEP2        0.0000 
      9 O          24.9620  -24.1665   12.5235 O.2       1 ALC1        0.0000 
     10 O          25.8080  -25.2630   12.5970 O.2       9 ALL1        0.0000 
     11 O          24.1160  -23.0700   12.4500 O.2       5 ALP1        0.0000 
     12 CA         24.1305  -27.7045   14.1210 C.3       4 GLC5        0.0000 
     13 CA         23.5130  -27.9610   12.1180 C.3      12 GLL5        0.0000 
     14 CA         24.7480  -27.4480   16.1240 C.3       8 GLP5        0.0000 
     15 N          27.2735  -23.8580   15.7870 N.am      2 SEC2        0.0000 
     16 N          27.8760  -23.3660   14.2990 N.am     10 SEL2        0.0000 
     17 N          26.6710  -24.3500   17.2750 N.am      6 SEP2        0.0000 
     18 O          27.4100  -20.6640   14.7585 O.2       1 ALC1        0.0000 
     19 O          27.8950  -21.3430   13.4140 O.2       9 ALL1        0.0000 
     20 O          26.9250  -19.9850   16.1030 O.2       5 ALP1        0.0000 
     21 N          29.0555  -18.3875   11.8490 N.am      2 SEC2        0.0000 
     22 N          27.9300  -19.3230   12.4720 N.am     10 SEL2        0.0000 
     23 N          30.1810  -17.4520   11.2260 N.am      6 SEP2        0.0000 
     24 N          29.5605  -18.9105   10.6600 N.am      2 SEC2        0.0000 
     25 N          28.9400  -20.3690   10.0940 N.am     10 SEL2        0.0000 
     26 CA         30.6410  -20.0560   10.3530 C.3       4 GLC5        0.0000 
     27 CA         29.4370  -20.9890    8.9760 C.3      12 GLL5        0.0000 
     28 CA         31.8450  -19.1230   11.7300 C.3       8 GLP5        0.0000 
     29 CA         30.7790  -18.3100    7.9280 C.3       4 GLC5        0.0000 
     30 CA         29.6810  -20.2000    7.8570 C.3      12 GLL5        0.0000 
     31 CA         31.8770  -16.4200    7.9990 C.3       8 GLP5        0.0000 
     32 CA         31.3810  -18.5635    4.9225 C.3       4 GLC5        0.0000 
     33 CA         30.4250  -19.8590    5.5240 C.3      12 GLL5        0.0000 
     34 CA         32.3370  -17.2680    4.3210 C.3       8 GLP5        0.0000 
     35 CA         28.9450  -19.0195    4.3935 C.3       4 GLC5        0.0000 
     36 CA         27.4650  -18.1800    3.2630 C.3       8 GLP5        0.0000 
     37 CA         30.6520  -24.7550    4.9235 C.3       4 GLC5        0.0000 
     38 CA         30.9850  -22.7680    5.3730 C.3      12 GLL5        0.0000 
     39 CA         30.3190  -26.7420    4.4740 C.3       8 GLP5        0.0000 
     40 CA         28.2575  -25.4045    9.2640 C.3       4 GLC5        0.0000 
     41 CA         29.7610  -24.5380    9.8860 C.3      12 GLL5        0.0000 
     42 CA         26.7540  -26.2710    8.6420 C.3       8 GLP5        0.0000 
     43 O          31.8680  -22.9145   11.1135 O.2       1 ALC1        0.0000 
     44 O          31.5390  -24.0820   11.4030 O.2       9 ALL1        0.0000 
     45 O          32.1970  -21.7470   10.8240 O.2       5 ALP1        0.0000 
     46 NZ         35.1745  -30.1780   13.0135 N.4       3 LYC4        0.0000 
     47 NZ         34.0590  -30.0170   14.0150 N.4      11 LYL4        0.0000 
     48 NZ         36.2970  -29.0580   11.6790 N.4       7 LYP4        0.0000 
     49 N          34.6220  -29.1765   12.9030 N.am      2 SEC2        0.0000 
     50 N          34.0590  -30.0170   14.0150 N.am     10 SEL2        0.0000 
     51 N          35.1850  -28.3360   11.7910 N.am      6 SEP2        0.0000 
     52 N          35.1745  -30.1780   13.0135 N.am      2 SEC2        0.0000 
     53 N          36.2900  -30.3390   12.0120 N.am      6 SEP2        0.0000 
     54 N          34.8090  -30.0845   15.4670 N.am      2 SEC2        0.0000 
     55 N          35.5590  -30.1520   16.9190 N.am      6 SEP2        0.0000 
     56 N          32.6400  -29.3920   16.8300 N.am      2 SEC2        0.0000 
     57 N          32.0620  -30.1510   15.5170 N.am     10 SEL2        0.0000 
     58 N          33.2180  -28.6330   18.1430 N.am      6 SEP2        0.0000 
     59 N          31.2385  -29.7660   16.5995 N.am      2 SEC2        0.0000 
     60 N          30.4150  -29.3810   17.6820 N.am      6 SEP2        0.0000 
     61 CA         28.4825  -32.6532   13.7205 C.3       4 GLC5        0.0000 
     62 CA         29.4890  -32.3100   12.5350 C.3      12 GLL5        0.0000 
     63 CA         28.0300  -32.9200   15.4560 C.3       8 GLP5        0.0000 
     64 CA         26.0527  -29.7470    9.1412 C.3       4 GLC5        0.0000 
     65 CA         26.4790  -31.0890   10.9530 C.3      12 GLL5        0.0000 
     66 CA         25.2960  -28.2050    7.9770 C.3       8 GLP5        0.0000 
     67 CA         26.3970  -26.8867   13.7758 C.3       4 GLC5        0.0000 
     68 CA         26.1770  -27.6000   11.9320 C.3      12 GLL5        0.0000 
     69 CA         27.0330  -26.7430   15.4220 C.3       8 GLP5        0.0000 
     70 CA         26.2013  -27.0999   10.2706 C.3       4 GLC5        0.0000 
     71 CA         25.3450  -26.4610   12.3270 C.3      12 GLL5        0.0000 
     72 CA         31.6030  -21.0572    8.2797 C.3       4 GLC5        0.0000 
     73 CA         33.6470  -21.5200    8.1430 C.3       8 GLP5        0.0000 
     74 CA         31.9743  -20.9088    7.1305 C.3       4 GLC5        0.0000 
     75 CA         30.1780  -20.7360    6.7120 C.3      12 GLL5        0.0000 
     76 CA         32.1825  -21.9857    7.0720 C.3       4 GLC5        0.0000 
     77 CA         30.4510  -22.1350    6.6290 C.3      12 GLL5        0.0000 
     78 CA         31.8025  -22.0825    8.2258 C.3       4 GLC5        0.0000 
     79 CA         30.2080  -22.9340    7.7300 C.3      12 GLL5        0.0000 
     80 CA         28.5735  -24.0540    7.8538 C.3       4 GLC5        0.0000 
     81 CA         27.1890  -25.4630    7.3990 C.3       8 GLP5        0.0000 
     82 CA         33.3000  -27.0787   11.8351 C.3       4 GLC5        0.0000 
     83 CA         31.8810  -28.0160   12.5360 C.3      12 GLL5        0.0000 
     84 CA         35.0870  -26.9110   11.4710 C.3       8 GLP5        0.0000 
@<TRIPOS>BOND
@<TRIPOS>SUBSTRUCTURE
     1 ALC1        9 GROUP        1 X    ALC  0     ROOT ALC X 1
     2 SEC2        6 GROUP        1 X    SEC  0     **** SEC X 2
     3 LYC4        1 GROUP        1 X    LYC  0     **** LYC X 4
     4 GLC5       12 GROUP        1 X    GLC  0     **** GLC X 6
     5 ALP1       11 GROUP        1 Y    ALP  0     ROOT ALP Y 8
     6 SEP2        8 GROUP        1 Y    SEP  0     **** SEP Y 9
     7 LYP4        3 GROUP        1 Y    LYP  0     **** LYP Y 11
     8 GLP5       14 GROUP        1 Y    GLP  0     **** GLP Y 13
     9 ALL1       10 GROUP        1 Z    ALL  0     ROOT ALL Z 15
    10 SEL2        7 GROUP        1 Z    SEL  0     **** SEL Z 16
    11 LYL4        2 GROUP        1 Z    LYL  0     **** LYL Z 18
    12 GLL5       13 GROUP        1 Z    GLL  0     **** GLL Z 20
@<TRIPOS>SET

