#    Name: 1a8p_FAD_1_ligand
#    Modification time : Mon Mar 24 18:04:05 2014

@<TRIPOS>MOLECULE
1a8p_FAD_1_ligand
   84    89     1     0     0
SMALL
NO_CHARGES


@<TRIPOS>ATOM
      1 PA         31.7150  -31.1250   11.8850 P.3       1 FAD259      0.0000 
      2 O1A        30.7800  -30.3800   11.0240 O.co2     1 FAD259      0.0000 
      3 O2A        32.9340  -31.3730   11.3750 O.co2     1 FAD259      0.0000 
      4 O5B        30.8420  -32.3670   11.9590 O.3       1 FAD259      0.0000 
      5 C5B        29.4890  -32.3100   12.5350 C.3       1 FAD259      0.0000 
      6 C4B        28.3810  -32.4630   11.4350 C.3       1 FAD259      0.0000 
      7 O4B        27.2270  -31.7560   12.0210 O.3       1 FAD259      0.0000 
      8 C3B        28.5650  -31.8230   10.0510 C.3       1 FAD259      0.0000 
      9 O3B        29.2770  -32.5590    9.1190 O.3       1 FAD259      0.0000 
     10 C2B        27.1400  -31.4890    9.6580 C.3       1 FAD259      0.0000 
     11 O2B        26.4830  -32.5790    9.0880 O.3       1 FAD259      0.0000 
     12 C1B        26.4790  -31.0890   10.9530 C.3       1 FAD259      0.0000 
     13 N9A        26.5820  -29.6870   11.3280 N.pl3     1 FAD259      0.0000 
     14 C8A        27.7280  -28.9580   11.4030 C.2       1 FAD259      0.0000 
     15 N7A        27.5160  -27.7060   11.7640 N.2       1 FAD259      0.0000 
     16 C5A        26.1770  -27.6000   11.9320 C.ar      1 FAD259      0.0000 
     17 C6A        25.3450  -26.4610   12.3270 C.ar      1 FAD259      0.0000 
     18 N6A        25.8080  -25.2630   12.5970 N.pl3     1 FAD259      0.0000 
     19 N1A        24.0170  -26.7360   12.3930 N.ar      1 FAD259      0.0000 
     20 C2A        23.5130  -27.9610   12.1180 C.ar      1 FAD259      0.0000 
     21 N3A        24.1950  -29.0550   11.7480 N.ar      1 FAD259      0.0000 
     22 C4A        25.5360  -28.8270   11.6690 C.ar      1 FAD259      0.0000 
     23 N1         28.6470  -23.2970   12.2450 N.2       1 FAD259      0.0000 
     24 C2         28.1480  -22.7320   13.3290 C.2       1 FAD259      0.0000 
     25 O2         27.8760  -23.3660   14.2990 O.2       1 FAD259      0.0000 
     26 N3         27.8950  -21.3430   13.4140 N.am      1 FAD259      0.0000 
     27 C4         28.1490  -20.5140   12.3580 C.2       1 FAD259      0.0000 
     28 O4         27.9300  -19.3230   12.4720 O.2       1 FAD259      0.0000 
     29 C4X        28.6840  -21.1270   11.1570 C.2       1 FAD259      0.0000 
     30 N5         28.9400  -20.3690   10.0940 N.2       1 FAD259      0.0000 
     31 C5X        29.4370  -20.9890    8.9760 C.ar      1 FAD259      0.0000 
     32 C6         29.6810  -20.2000    7.8570 C.ar      1 FAD259      0.0000 
     33 C7         30.1780  -20.7360    6.7120 C.ar      1 FAD259      0.0000 
     34 C7M        30.4250  -19.8590    5.5240 C.3       1 FAD259      0.0000 
     35 C8         30.4510  -22.1350    6.6290 C.ar      1 FAD259      0.0000 
     36 C8M        30.9850  -22.7680    5.3730 C.3       1 FAD259      0.0000 
     37 C9         30.2080  -22.9340    7.7300 C.ar      1 FAD259      0.0000 
     38 C9A        29.7080  -22.3560    8.8870 C.ar      1 FAD259      0.0000 
     39 N10        29.4430  -23.1180   10.0160 N.pl3     1 FAD259      0.0000 
     40 C10        28.9300  -22.5510   11.1460 C.2       1 FAD259      0.0000 
     41 C1'        29.7610  -24.5380    9.8860 C.3       1 FAD259      0.0000 
     42 C2'        30.4210  -24.9290   11.1930 C.3       1 FAD259      0.0000 
     43 O2'        31.5390  -24.0820   11.4030 O.3       1 FAD259      0.0000 
     44 C3'        30.8780  -26.3300   11.1830 C.3       1 FAD259      0.0000 
     45 O3'        29.8250  -27.2210   10.9210 O.3       1 FAD259      0.0000 
     46 C4'        31.4120  -26.6240   12.5420 C.3       1 FAD259      0.0000 
     47 O4'        32.4720  -25.7360   12.9370 O.3       1 FAD259      0.0000 
     48 C5'        31.8810  -28.0160   12.5360 C.3       1 FAD259      0.0000 
     49 O5'        32.4270  -28.3570   13.9830 O.3       1 FAD259      0.0000 
     50 P          32.5490  -29.7910   14.2790 P.3       1 FAD259      0.0000 
     51 O1P        34.0590  -30.0170   14.0150 O.co2     1 FAD259      0.0000 
     52 O2P        32.0620  -30.1510   15.5170 O.co2     1 FAD259      0.0000 
     53 O3P        31.6610  -30.3930   13.2900 O.3       1 FAD259      0.0000 
     54 H          29.3150  -31.3546   13.0414 H         1 FAD259      0.0000 
     55 H          29.3360  -33.1123   13.2647 H         1 FAD259      0.0000 
     56 H          28.1185  -33.4936   11.3427 H         1 FAD259      0.0000 
     57 H          29.0376  -30.8318   10.2652 H         1 FAD259      0.0000 
     58 H          27.1681  -30.6226    9.0252 H         1 FAD259      0.0000 
     59 H          25.4738  -31.4281   10.9842 H         1 FAD259      0.0000 
     60 H          28.6241  -29.3482   11.2021 H         1 FAD259      0.0000 
     61 H          26.7900  -25.1303   12.4628 H         1 FAD259      0.0000 
     62 H          25.1364  -24.5924   12.9122 H         1 FAD259      0.0000 
     63 H          22.4291  -28.0664   12.2087 H         1 FAD259      0.0000 
     64 H          27.5108  -20.9684   14.3003 H         1 FAD259      0.0000 
     65 H          29.4740  -19.1800    7.9121 H         1 FAD259      0.0000 
     66 H          30.3942  -23.9408    7.6941 H         1 FAD259      0.0000 
     67 H          30.4533  -24.7095    9.0796 H         1 FAD259      0.0000 
     68 H          28.8689  -25.1261    9.7550 H         1 FAD259      0.0000 
     69 H          29.6941  -24.7934   11.9876 H         1 FAD259      0.0000 
     70 H          31.6844  -26.4377   10.4786 H         1 FAD259      0.0000 
     71 H          30.5775  -26.5565   13.2504 H         1 FAD259      0.0000 
     72 H          32.6963  -28.1617   11.8449 H         1 FAD259      0.0000 
     73 H          31.0807  -28.7081   12.3257 H         1 FAD259      0.0000 
     74 H          31.0832  -19.1343    5.7278 H         1 FAD259      0.0000 
     75 H          30.7892  -20.3765    4.7497 H         1 FAD259      0.0000 
     76 H          29.5864  -19.4136    5.2104 H         1 FAD259      0.0000 
     77 H          31.8654  -22.3766    5.1052 H         1 FAD259      0.0000 
     78 H          31.1231  -23.7523    5.4829 H         1 FAD259      0.0000 
     79 H          30.3620  -22.6439    4.6007 H         1 FAD259      0.0000 
     80 H          29.6073  -31.8869    8.4562 H         1 FAD259      0.0000 
     81 H          27.1861  -33.2836    8.9922 H         1 FAD259      0.0000 
     82 H          31.1841  -23.1534   11.2945 H         1 FAD259      0.0000 
     83 H          29.1497  -27.0410   11.6363 H         1 FAD259      0.0000 
     84 H          32.3168  -24.8986   12.4129 H         1 FAD259      0.0000 
@<TRIPOS>BOND
     1    2    1 ar   
     2    3    1 ar   
     3    4    1 1    
     4   53    1 1    
     5    5    4 1    
     6    6    5 1    
     7   54    5 1    
     8   55    5 1    
     9    7    6 1    
    10    8    6 1    
    11   56    6 1    
    12   12    7 1    
    13    9    8 1    
    14   10    8 1    
    15   57    8 1    
    16   80    9 1    
    17   11   10 1    
    18   12   10 1    
    19   58   10 1    
    20   81   11 1    
    21   13   12 1    
    22   59   12 1    
    23   14   13 1    
    24   22   13 1    
    25   15   14 2    
    26   60   14 1    
    27   16   15 1    
    28   17   16 ar   
    29   22   16 ar   
    30   18   17 1    
    31   19   17 ar   
    32   61   18 1    
    33   62   18 1    
    34   20   19 ar   
    35   21   20 ar   
    36   63   20 1    
    37   22   21 ar   
    38   24   23 1    
    39   40   23 2    
    40   25   24 2    
    41   26   24 am   
    42   27   26 am   
    43   64   26 1    
    44   28   27 2    
    45   29   27 1    
    46   30   29 2    
    47   40   29 1    
    48   31   30 1    
    49   32   31 ar   
    50   38   31 ar   
    51   33   32 ar   
    52   65   32 1    
    53   34   33 1    
    54   35   33 ar   
    55   74   34 1    
    56   75   34 1    
    57   76   34 1    
    58   36   35 1    
    59   37   35 ar   
    60   77   36 1    
    61   78   36 1    
    62   79   36 1    
    63   38   37 ar   
    64   66   37 1    
    65   39   38 1    
    66   40   39 1    
    67   41   39 1    
    68   42   41 1    
    69   67   41 1    
    70   68   41 1    
    71   43   42 1    
    72   44   42 1    
    73   69   42 1    
    74   82   43 1    
    75   45   44 1    
    76   46   44 1    
    77   70   44 1    
    78   83   45 1    
    79   47   46 1    
    80   48   46 1    
    81   71   46 1    
    82   84   47 1    
    83   49   48 1    
    84   72   48 1    
    85   73   48 1    
    86   50   49 1    
    87   51   50 ar   
    88   52   50 ar   
    89   53   50 1    
@<TRIPOS>SUBSTRUCTURE
     1 FAD259      1 GROUP   
@<TRIPOS>SET

