#    Name: 3en6_KS5_1_INTS_M
#    Modification time : Tue Mar 25 02:11:29 2014

@<TRIPOS>MOLECULE
3en6_KS5_1_INTS_M
   58     0     9     0     0
SMALL
NO_CHARGES


@<TRIPOS>ATOM
      1 CA          0.6380  -23.7790  -27.2625 C.3       3 GLC5        0.0000 
      2 CA          2.2710  -23.0410  -28.0900 C.3       9 GLL5        0.0000 
      3 CA         -0.9950  -24.5170  -26.4350 C.3       6 GLP5        0.0000 
      4 CA          2.2770  -24.9905  -28.0930 C.3       3 GLC5        0.0000 
      5 CA          2.2830  -26.9400  -28.0960 C.3       6 GLP5        0.0000 
      6 CA          0.1000  -20.6955  -30.8840 C.3       3 GLC5        0.0000 
      7 CA          0.4910  -21.8350  -29.3790 C.3       9 GLL5        0.0000 
      8 CA         -0.2910  -19.5560  -32.3890 C.3       6 GLP5        0.0000 
      9 CA         -0.2520  -23.1760  -27.9070 C.3       3 GLC5        0.0000 
     10 CA         -0.2855  -23.0795  -31.9610 C.3       3 GLC5        0.0000 
     11 CA          0.9070  -24.4960  -30.9130 C.3       9 GLL5        0.0000 
     12 CA         -1.4780  -21.6630  -33.0090 C.3       6 GLP5        0.0000 
     13 CA          1.5950  -25.7180  -29.5045 C.3       3 GLC5        0.0000 
     14 CA         -1.2940  -23.5685  -32.2500 C.3       3 GLC5        0.0000 
     15 CA         -1.1100  -25.4740  -31.4910 C.3       9 GLL5        0.0000 
     16 CA         -1.9035  -26.9940  -32.9100 C.3       3 GLC5        0.0000 
     17 CA         -2.6970  -28.5140  -34.3290 C.3       6 GLP5        0.0000 
     18 CA         -1.8965  -27.1470  -31.0230 C.3       3 GLC5        0.0000 
     19 CA         -2.6830  -28.8200  -30.5550 C.3       6 GLP5        0.0000 
     20 N          -1.4885  -27.4110  -32.0720 N.am      2 SEC2        0.0000 
     21 N          -0.5290  -26.4080  -32.2310 N.am      8 SEL2        0.0000 
     22 N          -2.4480  -28.4140  -31.9130 N.am      5 SEP2        0.0000 
     23 CA         -0.2775  -27.7760  -31.1250 C.3       3 GLC5        0.0000 
     24 CA          0.7980  -26.4260  -32.3620 C.3       9 GLL5        0.0000 
     25 CA         -1.3530  -29.1260  -29.8880 C.3       6 GLP5        0.0000 
     26 O           0.6360  -28.4310  -33.9650 O.2       1 ALC1        0.0000 
     27 O           1.3650  -27.3760  -33.1120 O.2       7 ALL1        0.0000 
     28 O          -0.0930  -29.4860  -34.8180 O.2       4 ALP1        0.0000 
     29 CA          2.3460  -25.9340  -34.6200 C.3       3 GLC5        0.0000 
     30 CA          4.2520  -25.9670  -33.4600 C.3       9 GLL5        0.0000 
     31 CA          0.4400  -25.9010  -35.7800 C.3       6 GLP5        0.0000 
     32 CA          6.3240  -25.3580  -35.9015 C.3       3 GLC5        0.0000 
     33 CA          5.7640  -26.8770  -35.1390 C.3       9 GLL5        0.0000 
     34 CA          6.8840  -23.8390  -36.6640 C.3       6 GLP5        0.0000 
     35 CA          7.4015  -28.0715  -37.2955 C.3       3 GLC5        0.0000 
     36 CA          6.9910  -27.4910  -35.4260 C.3       9 GLL5        0.0000 
     37 CA          7.8120  -28.6520  -39.1650 C.3       6 GLP5        0.0000 
     38 CA          8.2005  -29.7900  -35.0770 C.3       3 GLC5        0.0000 
     39 CA          7.9030  -27.8290  -34.4170 C.3       9 GLL5        0.0000 
     40 CA          8.4980  -31.7510  -35.7370 C.3       6 GLP5        0.0000 
     41 CA          6.1780  -28.3900  -30.3905 C.3       3 GLC5        0.0000 
     42 CA          6.1800  -26.6760  -31.4910 C.3       9 GLL5        0.0000 
     43 CA          6.1760  -30.1040  -29.2900 C.3       6 GLP5        0.0000 
     44 CA          2.0940  -23.5835  -32.5750 C.3       3 GLC5        0.0000 
     45 CA          1.5510  -25.4520  -31.6990 C.3       9 GLL5        0.0000 
     46 CA          2.9590  -22.1930  -33.8440 C.3       6 GLP5        0.0000 
     47 CA          0.8073  -25.9200  -33.9052 C.3       3 GLC5        0.0000 
     48 CA          1.9173  -27.3285  -30.9128 C.3       3 GLC5        0.0000 
     49 CA          2.6600  -28.7180  -29.7950 C.3       6 GLP5        0.0000 
     50 CA          3.5493  -24.0203  -33.3143 C.3       3 GLC5        0.0000 
     51 CA          4.0270  -25.7280  -32.1090 C.3       9 GLL5        0.0000 
     52 CA          7.5550  -25.7553  -33.8850 C.3       3 GLC5        0.0000 
     53 CA          6.4290  -26.9450  -32.8290 C.3       9 GLL5        0.0000 
     54 CA          9.1630  -24.7420  -34.4510 C.3       6 GLP5        0.0000 
     55 CA          5.4828  -28.5340  -36.1048 C.3       3 GLC5        0.0000 
     56 CA          4.5880  -29.8840  -36.9270 C.3       6 GLP5        0.0000 
     57 CA          8.3050  -26.2010  -34.6863 C.3       3 GLC5        0.0000 
     58 CA          4.0011  -27.5025  -30.6769 C.3       3 GLC5        0.0000 
@<TRIPOS>BOND
@<TRIPOS>SUBSTRUCTURE
     1 ALC1       26 GROUP        1 X    ALC  0     ROOT ALC X 1
     2 SEC2       20 GROUP        1 X    SEC  0     **** SEC X 2
     3 GLC5        1 GROUP        1 X    GLC  0     **** GLC X 6
     4 ALP1       28 GROUP        1 Y    ALP  0     ROOT ALP Y 8
     5 SEP2       22 GROUP        1 Y    SEP  0     **** SEP Y 9
     6 GLP5        3 GROUP        1 Y    GLP  0     **** GLP Y 13
     7 ALL1       27 GROUP        1 Z    ALL  0     ROOT ALL Z 15
     8 SEL2       21 GROUP        1 Z    SEL  0     **** SEL Z 16
     9 GLL5        2 GROUP        1 Z    GLL  0     **** GLL Z 20
@<TRIPOS>SET

