#    Name: 3en6_KS5_1_ligand
#    Modification time : Tue Mar 25 02:11:29 2014

@<TRIPOS>MOLECULE
3en6_KS5_1_ligand
   39    42     1     0     0
SMALL
NO_CHARGES


@<TRIPOS>ATOM
      1 CAA         2.2710  -23.0410  -28.0900 C.3       1 KS52        0.0000 
      2 CAV         1.8490  -22.5350  -29.4800 C.3       1 KS52        0.0000 
      3 CAB         0.4910  -21.8350  -29.3790 C.3       1 KS52        0.0000 
      4 NAW         1.8690  -23.7060  -30.4010 N.pl3     1 KS52        0.0000 
      5 NAN         2.9770  -24.0820  -30.7800 N.2       1 KS52        0.0000 
      6 C4          0.9070  -24.4960  -30.9130 C.ar      1 KS52        0.0000 
      7 N3         -0.4220  -24.5420  -30.8380 N.ar      1 KS52        0.0000 
      8 C2         -1.1100  -25.4740  -31.4910 C.ar      1 KS52        0.0000 
      9 N1         -0.5290  -26.4080  -32.2310 N.ar      1 KS52        0.0000 
     10 C6          0.7980  -26.4260  -32.3620 C.ar      1 KS52        0.0000 
     11 NAC         1.3650  -27.3760  -33.1120 N.pl3     1 KS52        0.0000 
     12 C5          1.5510  -25.4520  -31.6990 C.ar      1 KS52        0.0000 
     13 CAQ         2.9000  -25.1230  -31.5810 C.2       1 KS52        0.0000 
     14 CAP         4.0270  -25.7280  -32.1090 C.ar      1 KS52        0.0000 
     15 CAJ         4.2520  -25.9670  -33.4600 C.ar      1 KS52        0.0000 
     16 CAR         5.4650  -26.5920  -33.8090 C.ar      1 KS52        0.0000 
     17 CAH         5.7640  -26.8770  -35.1390 C.ar      1 KS52        0.0000 
     18 CAD         6.9910  -27.4910  -35.4260 C.ar      1 KS52        0.0000 
     19 CAE         7.9030  -27.8290  -34.4170 C.ar      1 KS52        0.0000 
     20 NAL         7.6110  -27.5460  -33.1450 N.ar      1 KS52        0.0000 
     21 CAS         6.4290  -26.9450  -32.8290 C.ar      1 KS52        0.0000 
     22 CAI         6.1800  -26.6760  -31.4910 C.ar      1 KS52        0.0000 
     23 CAG         4.9820  -26.0680  -31.1440 C.ar      1 KS52        0.0000 
     24 H           2.5957  -21.8130  -29.7919 H         1 KS52        0.0000 
     25 H          -2.1751  -25.4684  -31.4150 H         1 KS52        0.0000 
     26 H           0.7405  -28.0263  -33.5445 H         1 KS52        0.0000 
     27 H           2.3628  -27.3511  -33.1733 H         1 KS52        0.0000 
     28 H           3.5829  -25.7080  -34.1644 H         1 KS52        0.0000 
     29 H           5.1144  -26.6482  -35.8828 H         1 KS52        0.0000 
     30 H           7.2308  -27.7012  -36.4136 H         1 KS52        0.0000 
     31 H           8.7857  -28.2926  -34.6858 H         1 KS52        0.0000 
     32 H           6.8652  -26.9207  -30.7751 H         1 KS52        0.0000 
     33 H           4.7846  -25.8582  -30.1466 H         1 KS52        0.0000 
     34 H           3.1561  -23.5056  -28.1168 H         1 KS52        0.0000 
     35 H           2.3525  -22.2929  -27.4314 H         1 KS52        0.0000 
     36 H           1.6100  -23.6910  -27.7149 H         1 KS52        0.0000 
     37 H           0.5225  -21.0510  -28.7590 H         1 KS52        0.0000 
     38 H           0.1818  -21.4943  -30.2669 H         1 KS52        0.0000 
     39 H          -0.2195  -22.4503  -29.0376 H         1 KS52        0.0000 
@<TRIPOS>BOND
     1    2    1 1    
     2   34    1 1    
     3   35    1 1    
     4   36    1 1    
     5    3    2 1    
     6    4    2 1    
     7   24    2 1    
     8   37    3 1    
     9   38    3 1    
    10   39    3 1    
    11    5    4 1    
    12    6    4 1    
    13   13    5 2    
    14    7    6 ar   
    15   12    6 ar   
    16    8    7 ar   
    17    9    8 ar   
    18   25    8 1    
    19   10    9 ar   
    20   11   10 1    
    21   12   10 ar   
    22   26   11 1    
    23   27   11 1    
    24   13   12 1    
    25   14   13 1    
    26   15   14 ar   
    27   23   14 ar   
    28   16   15 ar   
    29   28   15 1    
    30   17   16 ar   
    31   21   16 ar   
    32   18   17 ar   
    33   29   17 1    
    34   19   18 ar   
    35   30   18 1    
    36   20   19 ar   
    37   31   19 1    
    38   21   20 ar   
    39   22   21 ar   
    40   23   22 ar   
    41   32   22 1    
    42   33   23 1    
@<TRIPOS>SUBSTRUCTURE
     1 KS52        1 GROUP   
@<TRIPOS>SET

