#    Name: 3mhp_FAD_2_INTS_M
#    Modification time : Mon Mar 24 23:14:16 2014

@<TRIPOS>MOLECULE
3mhp_FAD_2_INTS_M
   92     0    12     0     0
SMALL
NO_CHARGES


@<TRIPOS>ATOM
      1 NZ         29.1330   15.4590   -4.2650 N.4       3 LYC4        0.0000 
      2 NZ         29.7730   14.4540   -5.2980 N.4      11 LYL4        0.0000 
      3 NZ         27.2130   16.5060   -3.5830 N.4       7 LYP4        0.0000 
      4 N          28.2105   14.9445   -4.7135 N.am      2 SEC2        0.0000 
      5 N          29.7730   14.4540   -5.2980 N.am     10 SEL2        0.0000 
      6 N          26.6480   15.4350   -4.1290 N.am      6 SEP2        0.0000 
      7 N          29.1330   15.4590   -4.2650 N.am      2 SEC2        0.0000 
      8 N          28.4930   16.4640   -3.2320 N.am      6 SEP2        0.0000 
      9 N          29.6775   15.3125   -3.1830 N.am      2 SEC2        0.0000 
     10 N          30.8620   14.1610   -3.1340 N.am     10 SEL2        0.0000 
     11 N          30.4675   13.4760   -1.8750 N.am      2 SEC2        0.0000 
     12 N          30.0730   12.7910   -0.6160 N.am      6 SEP2        0.0000 
     13 CA         31.7760   10.9190   -6.0665 C.3       4 GLC5        0.0000 
     14 CA         31.7980   12.6460   -6.6220 C.3      12 GLL5        0.0000 
     15 CA         31.7540    9.1920   -5.5110 C.3       8 GLP5        0.0000 
     16 CA         33.2785   12.1555   -5.5575 C.3       4 GLC5        0.0000 
     17 CA         34.7590   11.6650   -4.4930 C.3       8 GLP5        0.0000 
     18 CA         33.9720   13.1685   -6.2570 C.3       4 GLC5        0.0000 
     19 CA         32.3680   13.6000   -7.6930 C.3      12 GLL5        0.0000 
     20 CA         35.5760   12.7370   -4.8210 C.3       8 GLP5        0.0000 
     21 CA         30.9250   11.2280   -9.3185 C.3       4 GLC5        0.0000 
     22 CA         31.8740   13.2420   -9.1180 C.3      12 GLL5        0.0000 
     23 CA         29.9760    9.2140   -9.5190 C.3       8 GLP5        0.0000 
     24 N          24.9830    4.1735   -4.9825 N.am      2 SEC2        0.0000 
     25 N          24.6610    5.1070   -6.1570 N.am     10 SEL2        0.0000 
     26 N          25.3050    3.2400   -3.8080 N.am      6 SEP2        0.0000 
     27 O          22.1015    3.9980   -6.4900 O.2       1 ALC1        0.0000 
     28 O          22.7380    4.8590   -7.3380 O.2       9 ALL1        0.0000 
     29 O          21.4650    3.1370   -5.6420 O.2       5 ALP1        0.0000 
     30 N          19.6900    5.9865   -9.0240 N.am      2 SEC2        0.0000 
     31 N          20.8630    4.7730   -8.6240 N.am     10 SEL2        0.0000 
     32 N          18.5170    7.2000   -9.4240 N.am      6 SEP2        0.0000 
     33 N          20.0575    7.1065   -9.7450 N.am      2 SEC2        0.0000 
     34 N          21.5980    7.0130  -10.0660 N.am     10 SEL2        0.0000 
     35 CA         19.5590    7.0180  -11.4430 C.3       4 GLC5        0.0000 
     36 CA         21.0890    8.5920  -11.8160 C.3      12 GLL5        0.0000 
     37 CA         18.0290    5.4440  -11.0700 C.3       8 GLP5        0.0000 
     38 CA         20.4215    9.0235  -15.1070 C.3       4 GLC5        0.0000 
     39 CA         20.4530   10.2180  -13.6830 C.3      12 GLL5        0.0000 
     40 CA         20.3900    7.8290  -16.5310 C.3       8 GLP5        0.0000 
     41 CA         21.5120   12.9610  -12.5360 C.3       4 GLC5        0.0000 
     42 CA         23.1180   11.7030  -13.0570 C.3      12 GLL5        0.0000 
     43 CA         19.9060   14.2190  -12.0150 C.3       8 GLP5        0.0000 
     44 CA         25.6075    7.8300  -10.5175 C.3       4 GLC5        0.0000 
     45 CA         25.2700    8.8870   -9.0070 C.3      12 GLL5        0.0000 
     46 CA         25.9450    6.7730  -12.0280 C.3       8 GLP5        0.0000 
     47 CA         27.3105    8.4935   -9.6805 C.3       4 GLC5        0.0000 
     48 CA         29.3510    8.1000  -10.3540 C.3       8 GLP5        0.0000 
     49 CA         23.9395    9.2325   -6.4970 C.3       4 GLC5        0.0000 
     50 CA         24.9550    9.9690   -7.9090 C.3      12 GLL5        0.0000 
     51 CA         22.9240    8.4960   -5.0850 C.3       8 GLP5        0.0000 
     52 O          22.9700   10.7455   -8.4380 O.2       1 ALC1        0.0000 
     53 O          24.2530   11.0790   -8.5080 O.2       9 ALL1        0.0000 
     54 O          21.6870   10.4120   -8.3680 O.2       5 ALP1        0.0000 
     55 CA         25.6330   12.3160   -6.3080 C.3       4 GLC5        0.0000 
     56 CA         26.2270   10.6010   -7.3130 C.3      12 GLL5        0.0000 
     57 CA         25.0390   14.0310   -5.3030 C.3       8 GLP5        0.0000 
     58 CA         24.6275   10.1915   -5.9455 C.3       4 GLC5        0.0000 
     59 CA         23.0280    9.7820   -4.5780 C.3       8 GLP5        0.0000 
     60 O          25.3090    9.5790   -4.7665 O.2       1 ALC1        0.0000 
     61 O          26.3910    8.9380   -5.4660 O.2       9 ALL1        0.0000 
     62 O          24.2270   10.2200   -4.0670 O.2       5 ALP1        0.0000 
     63 CA         30.0440    9.7185   -5.7390 C.3       4 GLC5        0.0000 
     64 CA         28.3340   10.2450   -5.9670 C.3      12 GLL5        0.0000 
     65 NZ         27.2015   14.1925   -3.7765 N.4       3 LYC4        0.0000 
     66 NZ         27.7550   12.9500   -3.4240 N.4      11 LYL4        0.0000 
     67 N          27.2015   14.1925   -3.7765 N.am      2 SEC2        0.0000 
     68 N          27.7550   12.9500   -3.4240 N.am     10 SEL2        0.0000 
     69 N          27.3855   12.8860   -2.0640 N.am      2 SEC2        0.0000 
     70 N          27.0160   12.8220   -0.7040 N.am      6 SEP2        0.0000 
     71 N          27.5005   10.3930   -2.0150 N.am      2 SEC2        0.0000 
     72 N          28.6620   10.7520   -2.8200 N.am     10 SEL2        0.0000 
     73 N          26.3390   10.0340   -1.2100 N.am      6 SEP2        0.0000 
     74 N          28.6075    9.4455   -2.2575 N.am      2 SEC2        0.0000 
     75 N          28.5530    8.1390   -1.6950 N.am      6 SEP2        0.0000 
     76 CA         36.7935    9.6268   -7.2518 C.3       4 GLC5        0.0000 
     77 CA         36.7830    9.8630   -8.8550 C.3      12 GLL5        0.0000 
     78 CA         36.9480    8.7100   -5.5300 C.3       8 GLP5        0.0000 
     79 CA         20.4793    8.6017   -9.6045 C.3       4 GLC5        0.0000 
     80 CA         21.9540    8.1310  -10.7880 C.3      12 GLL5        0.0000 
     81 CA         19.4370    8.8420   -7.9070 C.3       8 GLP5        0.0000 
     82 CA         20.6142   11.3373  -11.6113 C.3       4 GLC5        0.0000 
     83 CA         21.4220    9.7530  -12.5840 C.3      12 GLL5        0.0000 
     84 CA         20.2910   12.6890  -10.0890 C.3       8 GLP5        0.0000 
     85 CA         21.6825   11.4473  -10.9367 C.3       4 GLC5        0.0000 
     86 CA         22.6490   10.4430  -12.2990 C.3      12 GLL5        0.0000 
     87 CA         24.3873    9.9150  -13.1385 C.3       4 GLC5        0.0000 
     88 CA         25.8910    8.7570  -13.5990 C.3       8 GLP5        0.0000 
     89 CA         24.6170    9.0725  -12.2375 C.3       4 GLC5        0.0000 
     90 CA         23.4990    9.9680  -11.2700 C.3      12 GLL5        0.0000 
     91 CA         28.8473    9.5572   -7.8930 C.3       4 GLC5        0.0000 
     92 CA         27.1030    9.5560   -6.5670 C.3      12 GLL5        0.0000 
@<TRIPOS>BOND
@<TRIPOS>SUBSTRUCTURE
     1 ALC1       27 GROUP        1 X    ALC  0     ROOT ALC X 1
     2 SEC2        4 GROUP        1 X    SEC  0     **** SEC X 2
     3 LYC4        1 GROUP        1 X    LYC  0     **** LYC X 4
     4 GLC5       13 GROUP        1 X    GLC  0     **** GLC X 6
     5 ALP1       29 GROUP        1 Y    ALP  0     ROOT ALP Y 8
     6 SEP2        6 GROUP        1 Y    SEP  0     **** SEP Y 9
     7 LYP4        3 GROUP        1 Y    LYP  0     **** LYP Y 11
     8 GLP5       15 GROUP        1 Y    GLP  0     **** GLP Y 13
     9 ALL1       28 GROUP        1 Z    ALL  0     ROOT ALL Z 15
    10 SEL2        5 GROUP        1 Z    SEL  0     **** SEL Z 16
    11 LYL4        2 GROUP        1 Z    LYL  0     **** LYL Z 18
    12 GLL5       14 GROUP        1 Z    GLL  0     **** GLL Z 20
@<TRIPOS>SET

