#    Name: 3mhp_FAD_2_ligand
#    Modification time : Mon Mar 24 23:14:16 2014

@<TRIPOS>MOLECULE
3mhp_FAD_2_ligand
   84    89     1     0     0
SMALL
NO_CHARGES


@<TRIPOS>ATOM
      1 PA         30.6190   13.5530   -4.4710 P.3       1 FAD999      0.0000 
      2 O1A        29.7730   14.4540   -5.2980 O.co2     1 FAD999      0.0000 
      3 O2A        30.8620   14.1610   -3.1340 O.co2     1 FAD999      0.0000 
      4 O5B        31.9160   13.3110   -5.1720 O.3       1 FAD999      0.0000 
      5 C5B        31.7980   12.6460   -6.6220 C.3       1 FAD999      0.0000 
      6 C4B        32.3680   13.6000   -7.6930 C.3       1 FAD999      0.0000 
      7 O4B        33.7950   13.4770   -7.7950 O.3       1 FAD999      0.0000 
      8 C3B        31.8740   13.2420   -9.1180 C.3       1 FAD999      0.0000 
      9 O3B        30.5930   13.8230   -9.4550 O.3       1 FAD999      0.0000 
     10 C2B        32.9750   13.8620  -10.0110 C.3       1 FAD999      0.0000 
     11 O2B        32.6010   15.1910  -10.4300 O.3       1 FAD999      0.0000 
     12 C1B        34.2180   13.9620   -9.0820 C.3       1 FAD999      0.0000 
     13 N9A        35.2780   13.0950   -9.6850 N.pl3     1 FAD999      0.0000 
     14 C8A        36.5520   13.3890   -9.3080 C.2       1 FAD999      0.0000 
     15 N7A        37.2130   12.3400   -8.9840 N.2       1 FAD999      0.0000 
     16 C5A        36.4950   11.2240   -9.0920 C.ar      1 FAD999      0.0000 
     17 C6A        36.7830    9.8630   -8.8550 C.ar      1 FAD999      0.0000 
     18 N6A        38.0010    9.4610   -8.4250 N.pl3     1 FAD999      0.0000 
     19 N1A        35.7450    8.9850   -9.0880 N.ar      1 FAD999      0.0000 
     20 C2A        34.5120    9.4110   -9.5250 C.ar      1 FAD999      0.0000 
     21 N3A        34.2620   10.7440   -9.7490 N.ar      1 FAD999      0.0000 
     22 C4A        35.2580   11.6710   -9.5340 C.ar      1 FAD999      0.0000 
     23 N1         24.3070    6.6760   -7.7930 N.2       1 FAD999      0.0000 
     24 C2         23.9050    5.4950   -7.0480 C.2       1 FAD999      0.0000 
     25 O2         24.6610    5.1070   -6.1570 O.2       1 FAD999      0.0000 
     26 N3         22.7380    4.8590   -7.3380 N.am      1 FAD999      0.0000 
     27 C4         21.9140    5.3160   -8.3410 C.2       1 FAD999      0.0000 
     28 O4         20.8630    4.7730   -8.6240 O.2       1 FAD999      0.0000 
     29 C4X        22.3230    6.5210   -9.1060 C.2       1 FAD999      0.0000 
     30 N5         21.5980    7.0130  -10.0660 N.2       1 FAD999      0.0000 
     31 C5X        21.9540    8.1310  -10.7880 C.ar      1 FAD999      0.0000 
     32 C6         21.0890    8.5920  -11.8160 C.ar      1 FAD999      0.0000 
     33 C7         21.4220    9.7530  -12.5840 C.ar      1 FAD999      0.0000 
     34 C7M        20.4530   10.2180  -13.6830 C.3       1 FAD999      0.0000 
     35 C8         22.6490   10.4430  -12.2990 C.ar      1 FAD999      0.0000 
     36 C8M        23.1180   11.7030  -13.0570 C.3       1 FAD999      0.0000 
     37 C9         23.4990    9.9680  -11.2700 C.ar      1 FAD999      0.0000 
     38 C9A        23.1870    8.8080  -10.4820 C.ar      1 FAD999      0.0000 
     39 N10        23.9900    8.2970   -9.4460 N.pl3     1 FAD999      0.0000 
     40 C10        23.6080    7.2000   -8.7640 C.2       1 FAD999      0.0000 
     41 C1'        25.2700    8.8870   -9.0070 C.3       1 FAD999      0.0000 
     42 C2'        24.9550    9.9690   -7.9090 C.3       1 FAD999      0.0000 
     43 O2'        24.2530   11.0790   -8.5080 O.3       1 FAD999      0.0000 
     44 C3'        26.2270   10.6010   -7.3130 C.3       1 FAD999      0.0000 
     45 O3'        27.0210   11.1680   -8.3910 O.3       1 FAD999      0.0000 
     46 C4'        27.1030    9.5560   -6.5670 C.3       1 FAD999      0.0000 
     47 O4'        26.3910    8.9380   -5.4660 O.3       1 FAD999      0.0000 
     48 C5'        28.3340   10.2450   -5.9670 C.3       1 FAD999      0.0000 
     49 O5'        27.9380   11.1850   -5.0790 O.3       1 FAD999      0.0000 
     50 P          28.5590   11.7800   -3.8790 P.3       1 FAD999      0.0000 
     51 O1P        27.7550   12.9500   -3.4240 O.co2     1 FAD999      0.0000 
     52 O2P        28.6620   10.7520   -2.8200 O.co2     1 FAD999      0.0000 
     53 O3P        29.9150   12.2390   -4.3300 O.3       1 FAD999      0.0000 
     54 H          30.7558   12.4553   -6.8137 H         1 FAD999      0.0000 
     55 H          32.3582   11.7266   -6.6099 H         1 FAD999      0.0000 
     56 H          32.0794   14.6001   -7.4880 H         1 FAD999      0.0000 
     57 H          31.9222   12.1953   -9.2360 H         1 FAD999      0.0000 
     58 H          33.1951   13.2091  -10.7932 H         1 FAD999      0.0000 
     59 H          34.5196   14.9701   -9.0614 H         1 FAD999      0.0000 
     60 H          36.8925   14.3298   -9.2994 H         1 FAD999      0.0000 
     61 H          38.1215    8.4758   -8.3030 H         1 FAD999      0.0000 
     62 H          38.6729   10.1847   -8.2672 H         1 FAD999      0.0000 
     63 H          33.7577    8.7133   -9.6883 H         1 FAD999      0.0000 
     64 H          22.4579    4.0134   -6.7972 H         1 FAD999      0.0000 
     65 H          20.2197    8.0934  -12.0128 H         1 FAD999      0.0000 
     66 H          24.3817   10.4709  -11.0716 H         1 FAD999      0.0000 
     67 H          25.7750    9.3848   -9.8194 H         1 FAD999      0.0000 
     68 H          25.9137    8.1466   -8.5594 H         1 FAD999      0.0000 
     69 H          24.3896    9.5296   -7.1316 H         1 FAD999      0.0000 
     70 H          25.9428   11.3617   -6.6139 H         1 FAD999      0.0000 
     71 H          27.4421    8.8253   -7.2711 H         1 FAD999      0.0000 
     72 H          28.9096   10.6521   -6.8180 H         1 FAD999      0.0000 
     73 H          28.9530    9.4453   -5.5212 H         1 FAD999      0.0000 
     74 H          20.7879   11.0352  -14.1520 H         1 FAD999      0.0000 
     75 H          20.3175    9.5145  -14.3806 H         1 FAD999      0.0000 
     76 H          19.5513   10.4413  -13.3129 H         1 FAD999      0.0000 
     77 H          23.9982   12.0346  -12.7174 H         1 FAD999      0.0000 
     78 H          23.2284   11.5282  -14.0354 H         1 FAD999      0.0000 
     79 H          22.4660   12.4557  -12.9654 H         1 FAD999      0.0000 
     80 H          30.8116   14.6344   -9.9971 H         1 FAD999      0.0000 
     81 H          33.1996   15.3961  -11.2044 H         1 FAD999      0.0000 
     82 H          23.2885   10.8157   -8.4890 H         1 FAD999      0.0000 
     83 H          27.4774   11.9607   -7.9868 H         1 FAD999      0.0000 
     84 H          25.8606    9.6783   -5.0529 H         1 FAD999      0.0000 
@<TRIPOS>BOND
     1    2    1 ar   
     2    3    1 ar   
     3    4    1 1    
     4   53    1 1    
     5    5    4 1    
     6    6    5 1    
     7   54    5 1    
     8   55    5 1    
     9    7    6 1    
    10    8    6 1    
    11   56    6 1    
    12   12    7 1    
    13    9    8 1    
    14   10    8 1    
    15   57    8 1    
    16   80    9 1    
    17   11   10 1    
    18   12   10 1    
    19   58   10 1    
    20   81   11 1    
    21   13   12 1    
    22   59   12 1    
    23   14   13 1    
    24   22   13 1    
    25   15   14 2    
    26   60   14 1    
    27   16   15 1    
    28   17   16 ar   
    29   22   16 ar   
    30   18   17 1    
    31   19   17 ar   
    32   61   18 1    
    33   62   18 1    
    34   20   19 ar   
    35   21   20 ar   
    36   63   20 1    
    37   22   21 ar   
    38   24   23 1    
    39   40   23 2    
    40   25   24 2    
    41   26   24 am   
    42   27   26 am   
    43   64   26 1    
    44   28   27 2    
    45   29   27 1    
    46   30   29 2    
    47   40   29 1    
    48   31   30 1    
    49   32   31 ar   
    50   38   31 ar   
    51   33   32 ar   
    52   65   32 1    
    53   34   33 1    
    54   35   33 ar   
    55   74   34 1    
    56   75   34 1    
    57   76   34 1    
    58   36   35 1    
    59   37   35 ar   
    60   77   36 1    
    61   78   36 1    
    62   79   36 1    
    63   38   37 ar   
    64   66   37 1    
    65   39   38 1    
    66   40   39 1    
    67   41   39 1    
    68   42   41 1    
    69   67   41 1    
    70   68   41 1    
    71   43   42 1    
    72   44   42 1    
    73   69   42 1    
    74   82   43 1    
    75   45   44 1    
    76   46   44 1    
    77   70   44 1    
    78   83   45 1    
    79   47   46 1    
    80   48   46 1    
    81   71   46 1    
    82   84   47 1    
    83   49   48 1    
    84   72   48 1    
    85   73   48 1    
    86   50   49 1    
    87   51   50 ar   
    88   52   50 ar   
    89   53   50 1    
@<TRIPOS>SUBSTRUCTURE
     1 FAD999      1 GROUP   
@<TRIPOS>SET

