#    Name: 4ia2_BIV_1_INTS_M
#    Modification time : Tue Mar 25 02:46:24 2014

@<TRIPOS>MOLECULE
4ia2_BIV_1_INTS_M
  130     0     9     0     0
SMALL
NO_CHARGES


@<TRIPOS>ATOM
      1 N           0.8915   40.9515   41.1130 N.am      2 SEC2        0.0000 
      2 N           0.8530   39.7620   40.3830 N.am      8 SEL2        0.0000 
      3 N           0.9300   42.1410   41.8430 N.am      5 SEP2        0.0000 
      4 O          -0.4945   39.2490   40.8565 O.2       1 ALC1        0.0000 
      5 O           0.8530   39.7620   40.3830 O.2       7 ALL1        0.0000 
      6 O          -1.8420   38.7360   41.3300 O.2       4 ALP1        0.0000 
      7 N           4.5310   25.4675   34.8050 N.am      2 SEC2        0.0000 
      8 N           5.5160   26.4170   34.1040 N.am      8 SEL2        0.0000 
      9 N           3.5460   24.5180   35.5060 N.am      5 SEP2        0.0000 
     10 N           6.5210   26.4005   35.2440 N.am      2 SEC2        0.0000 
     11 N           7.5260   26.3840   36.3840 N.am      5 SEP2        0.0000 
     12 CA          4.9480   38.8800   39.7955 C.3       3 GLC5        0.0000 
     13 CA          3.2470   38.4930   39.0020 C.3       9 GLL5        0.0000 
     14 CA          6.6490   39.2670   40.5890 C.3       6 GLP5        0.0000 
     15 CA          2.7385   38.0110   40.8790 C.3       3 GLC5        0.0000 
     16 CA          2.2300   37.5290   42.7560 C.3       6 GLP5        0.0000 
     17 CA          2.9015   41.1675   40.1325 C.3       3 GLC5        0.0000 
     18 CA          2.5090   39.8180   38.5940 C.3       9 GLL5        0.0000 
     19 CA          3.2940   42.5170   41.6710 C.3       6 GLP5        0.0000 
     20 CA          1.4730   41.3795   40.3380 C.3       3 GLC5        0.0000 
     21 CA          0.9520   39.7510   38.9650 C.3       9 GLL5        0.0000 
     22 CA          1.9940   43.0080   41.7110 C.3       6 GLP5        0.0000 
     23 CA          0.1420   41.4080   38.9770 C.3       3 GLC5        0.0000 
     24 CA         -0.6680   43.0650   38.9890 C.3       6 GLP5        0.0000 
     25 CA          0.2565   39.6290   36.7800 C.3       3 GLC5        0.0000 
     26 CA          0.2470   38.4330   38.3980 C.3       9 GLL5        0.0000 
     27 CA          0.2660   40.8250   35.1620 C.3       6 GLP5        0.0000 
     28 CA          0.4610   35.6335   36.8490 C.3       3 GLC5        0.0000 
     29 CA          0.4060   35.8880   39.0370 C.3       9 GLL5        0.0000 
     30 CA          0.5160   35.3790   34.6610 C.3       6 GLP5        0.0000 
     31 CA         -0.6000   33.3475   40.6355 C.3       3 GLC5        0.0000 
     32 CA          0.5010   33.3450   39.0560 C.3       9 GLL5        0.0000 
     33 CA         -1.7010   33.3500   42.2150 C.3       6 GLP5        0.0000 
     34 CA         -1.8340   33.3685   39.8545 C.3       3 GLC5        0.0000 
     35 CA         -0.9150   33.0010   38.3550 C.3       9 GLL5        0.0000 
     36 CA         -2.7530   33.7360   41.3540 C.3       6 GLP5        0.0000 
     37 CA          2.0750   37.4400   36.3515 C.3       3 GLC5        0.0000 
     38 CA          2.5610   37.2610   38.2780 C.3       9 GLL5        0.0000 
     39 CA          1.5890   37.6190   34.4250 C.3       6 GLP5        0.0000 
     40 CA          2.3325   36.6770   40.2535 C.3       3 GLC5        0.0000 
     41 CA          2.1040   36.0930   42.2290 C.3       6 GLP5        0.0000 
     42 CA         -0.9440   32.2740   35.0735 C.3       3 GLC5        0.0000 
     43 CA         -0.7570   32.1540   36.9940 C.3       9 GLL5        0.0000 
     44 CA         -1.1310   32.3940   33.1530 C.3       6 GLP5        0.0000 
     45 CA         -0.1205   33.7665   35.8275 C.3       3 GLC5        0.0000 
     46 CA         -0.0950   32.0290   40.9960 C.3       3 GLC5        0.0000 
     47 CA          1.2800   32.0460   39.4230 C.3       9 GLL5        0.0000 
     48 CA         -1.4700   32.0120   42.5690 C.3       6 GLP5        0.0000 
     49 CA          0.9915   30.2860   40.7910 C.3       3 GLC5        0.0000 
     50 CA          0.7030   28.5260   42.1590 C.3       6 GLP5        0.0000 
     51 CA          2.4530   34.1400   41.2000 C.3       3 GLC5        0.0000 
     52 CA          2.8020   32.1870   40.1710 C.3       9 GLL5        0.0000 
     53 CA          3.8190   32.2415   35.5850 C.3       3 GLC5        0.0000 
     54 CA          2.6010   32.0810   36.9110 C.3       9 GLL5        0.0000 
     55 CA          5.0370   32.4020   34.2590 C.3       6 GLP5        0.0000 
     56 CA          2.4900   36.2750   35.7860 C.3       3 GLC5        0.0000 
     57 CA          3.2480   36.4220   37.4160 C.3       9 GLL5        0.0000 
     58 CA          1.7320   36.1280   34.1560 C.3       6 GLP5        0.0000 
     59 CA          5.0820   37.1935   36.7850 C.3       3 GLC5        0.0000 
     60 CA          6.9160   37.9650   36.1540 C.3       6 GLP5        0.0000 
     61 CA          4.6085   35.3700   38.2500 C.3       3 GLC5        0.0000 
     62 CA          5.9690   34.3180   39.0840 C.3       6 GLP5        0.0000 
     63 CA          1.0645   27.9850   37.4215 C.3       3 GLC5        0.0000 
     64 CA          2.9540   28.8710   37.9830 C.3       9 GLL5        0.0000 
     65 CA         -0.8250   27.0990   36.8600 C.3       6 GLP5        0.0000 
     66 CA          5.9370   29.3870   37.7560 C.3       3 GLC5        0.0000 
     67 CA          4.1600   28.9220   36.9590 C.3       9 GLL5        0.0000 
     68 CA          7.7140   29.8520   38.5530 C.3       6 GLP5        0.0000 
     69 CA          5.5160   27.3460   37.1915 C.3       3 GLC5        0.0000 
     70 CA          6.8720   25.7700   37.4240 C.3       6 GLP5        0.0000 
     71 CA          2.9185   26.5730   35.4880 C.3       3 GLC5        0.0000 
     72 CA          3.6640   28.6410   35.5170 C.3       9 GLL5        0.0000 
     73 CA          2.1730   24.5050   35.4590 C.3       6 GLP5        0.0000 
     74 CA          3.3290   26.9615   30.6425 C.3       3 GLC5        0.0000 
     75 CA          3.7970   27.1630   32.5970 C.3       9 GLL5        0.0000 
     76 CA          2.8610   26.7600   28.6880 C.3       6 GLP5        0.0000 
     77 CA          2.9850   25.8340   34.0280 C.3       3 GLC5        0.0000 
     78 CA          4.5595   25.4990   31.5860 C.3       3 GLC5        0.0000 
     79 CA          5.3220   23.8350   30.5750 C.3       6 GLP5        0.0000 
     80 CA          7.6460   26.7110   32.5130 C.3       3 GLC5        0.0000 
     81 CA          6.1170   28.0450   32.4460 C.3       9 GLL5        0.0000 
     82 CA          9.1750   25.3770   32.5800 C.3       6 GLP5        0.0000 
     83 N           5.4015   39.8785   38.6090 N.am      2 SEC2        0.0000 
     84 N           4.6980   38.6100   38.6260 N.am      8 SEL2        0.0000 
     85 N           6.1050   41.1470   38.5920 N.am      5 SEP2        0.0000 
     86 O           5.1230   38.3510   37.2300 O.2       1 ALC1        0.0000 
     87 O           4.6980   38.6100   38.6260 O.2       7 ALL1        0.0000 
     88 O           5.5480   38.0920   35.8340 O.2       4 ALP1        0.0000 
     89 CA          1.9885   28.1165   40.4960 C.3       3 GLC5        0.0000 
     90 CA          3.2740   27.7070   38.8330 C.3       9 GLL5        0.0000 
     91 CA          4.2795   27.4970   42.1945 C.3       3 GLC5        0.0000 
     92 CA          4.0270   26.2900   40.7010 C.3       9 GLL5        0.0000 
     93 CA          4.5320   28.7040   43.6880 C.3       6 GLP5        0.0000 
     94 CA          2.3650   27.4080   41.4300 C.3       3 GLC5        0.0000 
     95 CA          5.8500   25.5690   40.2095 C.3       3 GLC5        0.0000 
     96 CA          7.6730   24.8480   39.7180 C.3       6 GLP5        0.0000 
     97 CA          0.2325   25.3510   40.5865 C.3       3 GLC5        0.0000 
     98 CA          1.8640   25.1160   41.3360 C.3       9 GLL5        0.0000 
     99 CA         -1.3990   25.5860   39.8370 C.3       6 GLP5        0.0000 
    100 CA          1.2835   26.8210   41.7475 C.3       3 GLC5        0.0000 
    101 CA          3.9725   24.9380   44.2255 C.3       3 GLC5        0.0000 
    102 CA          4.0440   24.3490   42.3270 C.3       9 GLL5        0.0000 
    103 CA          3.9010   25.5270   46.1240 C.3       6 GLP5        0.0000 
    104 CA          5.1825   22.6820   42.7890 C.3       3 GLC5        0.0000 
    105 CA          6.3210   21.0150   43.2510 C.3       6 GLP5        0.0000 
    106 CA          5.8585   24.5985   41.0225 C.3       3 GLC5        0.0000 
    107 CA          0.9982   40.3047   36.9708 C.3       3 GLC5        0.0000 
    108 CA         -0.7743   39.5965   40.0968 C.3       3 GLC5        0.0000 
    109 CA         -2.1480   40.1010   41.5120 C.3       6 GLP5        0.0000 
    110 CA         -1.2092   39.3980   38.2897 C.3       3 GLC5        0.0000 
    111 CA         -3.0180   39.7040   37.8980 C.3       6 GLP5        0.0000 
    112 CA          1.1070   37.6882   36.4657 C.3       3 GLC5        0.0000 
    113 CA          1.4043   36.2890   40.5275 C.3       3 GLC5        0.0000 
    114 CA          1.0030   37.0820   38.6150 C.3       9 GLL5        0.0000 
    115 CA         -0.4762   35.3880   40.5708 C.3       3 GLC5        0.0000 
    116 CA         -1.6320   35.5680   41.9770 C.3       6 GLP5        0.0000 
    117 CA          1.4155   35.0148   40.7015 C.3       3 GLC5        0.0000 
    118 CA          0.9530   34.5280   39.2920 C.3       9 GLL5        0.0000 
    119 CA         -2.8285   33.1812   37.3632 C.3       3 GLC5        0.0000 
    120 CA         -4.8210   33.7850   37.0520 C.3       6 GLP5        0.0000 
    121 CA         -1.4472   30.1440   37.2362 C.3       3 GLC5        0.0000 
    122 CA         -2.6460   28.7640   37.3640 C.3       6 GLP5        0.0000 
    123 CA          4.5503   32.9065   39.5273 C.3       3 GLC5        0.0000 
    124 CA          4.4597   31.2570   41.5307 C.3       3 GLC5        0.0000 
    125 CA          5.7880   31.0190   43.0910 C.3       6 GLP5        0.0000 
    126 CA          1.8075   29.4808   40.7540 C.3       3 GLC5        0.0000 
    127 CA          3.4610   30.8030   39.7700 C.3       9 GLL5        0.0000 
    128 CA          4.6547   30.5641   34.7963 C.3       3 GLC5        0.0000 
    129 CA          4.6330   28.6710   34.4290 C.3       9 GLL5        0.0000 
    130 CA          5.2975   26.4528   38.2193 C.3       3 GLC5        0.0000 
@<TRIPOS>BOND
@<TRIPOS>SUBSTRUCTURE
     1 ALC1        4 GROUP        1 X    ALC  0     ROOT ALC X 1
     2 SEC2        1 GROUP        1 X    SEC  0     **** SEC X 2
     3 GLC5       12 GROUP        1 X    GLC  0     **** GLC X 6
     4 ALP1        6 GROUP        1 Y    ALP  0     ROOT ALP Y 8
     5 SEP2        3 GROUP        1 Y    SEP  0     **** SEP Y 9
     6 GLP5       14 GROUP        1 Y    GLP  0     **** GLP Y 13
     7 ALL1        5 GROUP        1 Z    ALL  0     ROOT ALL Z 15
     8 SEL2        2 GROUP        1 Z    SEL  0     **** SEL Z 16
     9 GLL5       13 GROUP        1 Z    GLL  0     **** GLL Z 20
@<TRIPOS>SET

