#    Name: 4ia2_BIV_1_ligand
#    Modification time : Tue Mar 25 02:46:24 2014

@<TRIPOS>MOLECULE
4ia2_BIV_1_ligand
   88    90     1     0     0
SMALL
NO_CHARGES


@<TRIPOS>ATOM
      1 O2          0.8530   39.7620   40.3830 O.3       1 BIV501      0.0000 
      2 O3          5.5160   26.4170   34.1040 O.3       1 BIV501      0.0000 
      3 C1          3.2470   38.4930   39.0020 C.3       1 BIV501      0.0000 
      4 C2          2.5090   39.8180   38.5940 C.3       1 BIV501      0.0000 
      5 C3          0.9520   39.7510   38.9650 C.3       1 BIV501      0.0000 
      6 C4          0.2470   38.4330   38.3980 C.3       1 BIV501      0.0000 
      7 C5          1.0030   37.0820   38.6150 C.2       1 BIV501      0.0000 
      8 C6          0.4060   35.8880   39.0370 C.2       1 BIV501      0.0000 
      9 C7          0.9530   34.5280   39.2920 C.2       1 BIV501      0.0000 
     10 C8          0.5010   33.3450   39.0560 C.2       1 BIV501      0.0000 
     11 C9         -0.9150   33.0010   38.3550 C.3       1 BIV501      0.0000 
     12 C10         2.5610   37.2610   38.2780 C.2       1 BIV501      0.0000 
     13 C11        -0.7570   32.1540   36.9940 C.3       1 BIV501      0.0000 
     14 C12         0.2600   30.8940   37.2230 C.3       1 BIV501      0.0000 
     15 C13         1.6890   31.1590   38.0830 C.3       1 BIV501      0.0000 
     16 C14         1.2800   32.0460   39.4230 C.3       1 BIV501      0.0000 
     17 C15         2.8020   32.1870   40.1710 C.3       1 BIV501      0.0000 
     18 C16         3.4610   30.8030   39.7700 C.3       1 BIV501      0.0000 
     19 C17         2.3630   30.0680   38.9280 C.3       1 BIV501      0.0000 
     20 C18         2.6010   32.0810   36.9110 C.3       1 BIV501      0.0000 
     21 C19         3.2480   36.4220   37.4160 C.2       1 BIV501      0.0000 
     22 C20         2.9540   28.8710   37.9830 C.3       1 BIV501      0.0000 
     23 C22         4.1600   28.9220   36.9590 C.3       1 BIV501      0.0000 
     24 C23         3.6640   28.6410   35.5170 C.3       1 BIV501      0.0000 
     25 C24         4.6330   28.6710   34.4290 C.3       1 BIV501      0.0000 
     26 C25         5.0060   27.5480   33.4450 C.3       1 BIV501      0.0000 
     27 C26         3.7970   27.1630   32.5970 C.3       1 BIV501      0.0000 
     28 C27         6.1170   28.0450   32.4460 C.3       1 BIV501      0.0000 
     29 O1          4.6980   38.6100   38.6260 O.3       1 BIV501      0.0000 
     30 C21         3.2740   27.7070   38.8330 C.3       1 BIV501      0.0000 
     31 C28         4.1720   26.5640   39.1960 C.3       1 BIV501      0.0000 
     32 C29         4.0270   26.2900   40.7010 C.3       1 BIV501      0.0000 
     33 C30         3.3660   24.9020   41.0550 C.3       1 BIV501      0.0000 
     34 O4          3.5320   23.8460   39.9220 O.3       1 BIV501      0.0000 
     35 C32         1.8640   25.1160   41.3360 C.3       1 BIV501      0.0000 
     36 C33         4.0440   24.3490   42.3270 C.3       1 BIV501      0.0000 
     37 H           3.1389   38.3652   40.0555 H         1 BIV501      0.0000 
     38 H           2.5943   39.9617   37.5294 H         1 BIV501      0.0000 
     39 H           2.9449   40.6483   39.1249 H         1 BIV501      0.0000 
     40 H           0.4799   40.5968   38.5192 H         1 BIV501      0.0000 
     41 H           0.0840   38.5820   37.3165 H         1 BIV501      0.0000 
     42 H          -0.7513   38.3631   38.8639 H         1 BIV501      0.0000 
     43 H          -0.6809   35.9358   39.2244 H         1 BIV501      0.0000 
     44 H           1.9574   34.6192   39.7886 H         1 BIV501      0.0000 
     45 H          -1.4130   33.9312   38.1239 H         1 BIV501      0.0000 
     46 H          -1.5059   32.4240   39.0511 H         1 BIV501      0.0000 
     47 H          -0.3396   32.7823   36.2405 H         1 BIV501      0.0000 
     48 H          -1.7092   31.7632   36.7157 H         1 BIV501      0.0000 
     49 H           0.5550   30.5021   36.2433 H         1 BIV501      0.0000 
     50 H          -0.2802   30.1026   37.7542 H         1 BIV501      0.0000 
     51 H           0.7280   31.3716   40.0354 H         1 BIV501      0.0000 
     52 H           2.6228   32.2296   41.1794 H         1 BIV501      0.0000 
     53 H           3.2777   32.9679   39.7076 H         1 BIV501      0.0000 
     54 H           3.6619   30.2538   40.6460 H         1 BIV501      0.0000 
     55 H           4.3045   30.9883   39.1670 H         1 BIV501      0.0000 
     56 H           1.6439   29.6468   39.5915 H         1 BIV501      0.0000 
     57 H           2.0529   28.4997   37.3694 H         1 BIV501      0.0000 
     58 H           4.8813   28.1723   37.2466 H         1 BIV501      0.0000 
     59 H           4.6027   29.9054   37.0047 H         1 BIV501      0.0000 
     60 H           2.8271   29.3713   35.3149 H         1 BIV501      0.0000 
     61 H           3.1387   27.6421   35.5447 H         1 BIV501      0.0000 
     62 H           5.6602   29.0538   34.8636 H         1 BIV501      0.0000 
     63 H           4.3956   29.6073   33.7525 H         1 BIV501      0.0000 
     64 H           2.1076   27.1256   38.9116 H         1 BIV501      0.0000 
     65 H           3.0025   28.1804   40.0191 H         1 BIV501      0.0000 
     66 H           5.2027   26.8140   38.9851 H         1 BIV501      0.0000 
     67 H           3.8874   25.6745   38.6510 H         1 BIV501      0.0000 
     68 H           3.4163   27.0803   41.1596 H         1 BIV501      0.0000 
     69 H           5.0177   26.3219   41.1758 H         1 BIV501      0.0000 
     70 H           3.5439   32.2306   37.2085 H         1 BIV501      0.0000 
     71 H           2.6430   31.6181   36.0256 H         1 BIV501      0.0000 
     72 H           2.1974   32.9820   36.7518 H         1 BIV501      0.0000 
     73 H           4.0312   26.4806   31.9045 H         1 BIV501      0.0000 
     74 H           3.0615   26.7759   33.1530 H         1 BIV501      0.0000 
     75 H           3.4156   27.9514   32.1144 H         1 BIV501      0.0000 
     76 H           6.9624   28.2880   32.9217 H         1 BIV501      0.0000 
     77 H           6.3509   27.3442   31.7721 H         1 BIV501      0.0000 
     78 H           5.8238   28.8545   31.9373 H         1 BIV501      0.0000 
     79 H           1.7149   25.7436   42.1001 H         1 BIV501      0.0000 
     80 H           1.3891   25.5001   40.5442 H         1 BIV501      0.0000 
     81 H           1.4035   24.2588   41.5666 H         1 BIV501      0.0000 
     82 H           5.0261   24.2141   42.1956 H         1 BIV501      0.0000 
     83 H           3.9346   24.9676   43.1050 H         1 BIV501      0.0000 
     84 H           3.6606   23.4662   42.5983 H         1 BIV501      0.0000 
     85 H          -0.0189   39.3158   40.5850 H         1 BIV501      0.0000 
     86 H           5.3944   25.8629   33.2804 H         1 BIV501      0.0000 
     87 H           4.7271   38.4194   37.6448 H         1 BIV501      0.0000 
     88 H           4.0356   24.1734   40.7216 H         1 BIV501      0.0000 
@<TRIPOS>BOND
     1    5    1 1    
     2   85    1 1    
     3   26    2 1    
     4   86    2 1    
     5    4    3 1    
     6   12    3 1    
     7   29    3 1    
     8   37    3 1    
     9    5    4 1    
    10   38    4 1    
    11   39    4 1    
    12    6    5 1    
    13   40    5 1    
    14    7    6 1    
    15   41    6 1    
    16   42    6 1    
    17    8    7 2    
    18   12    7 1    
    19    9    8 1    
    20   43    8 1    
    21   10    9 2    
    22   44    9 1    
    23   11   10 1    
    24   16   10 1    
    25   13   11 1    
    26   45   11 1    
    27   46   11 1    
    28   21   12 2    
    29   14   13 1    
    30   47   13 1    
    31   48   13 1    
    32   15   14 1    
    33   49   14 1    
    34   50   14 1    
    35   16   15 1    
    36   19   15 1    
    37   20   15 1    
    38   17   16 1    
    39   51   16 1    
    40   18   17 1    
    41   52   17 1    
    42   53   17 1    
    43   19   18 1    
    44   54   18 1    
    45   55   18 1    
    46   22   19 1    
    47   56   19 1    
    48   70   20 1    
    49   71   20 1    
    50   72   20 1    
    51   23   22 1    
    52   30   22 1    
    53   57   22 1    
    54   24   23 1    
    55   58   23 1    
    56   59   23 1    
    57   25   24 1    
    58   60   24 1    
    59   61   24 1    
    60   26   25 1    
    61   62   25 1    
    62   63   25 1    
    63   27   26 1    
    64   28   26 1    
    65   73   27 1    
    66   74   27 1    
    67   75   27 1    
    68   76   28 1    
    69   77   28 1    
    70   78   28 1    
    71   87   29 1    
    72   31   30 1    
    73   64   30 1    
    74   65   30 1    
    75   32   31 1    
    76   66   31 1    
    77   67   31 1    
    78   33   32 1    
    79   68   32 1    
    80   69   32 1    
    81   34   33 1    
    82   35   33 1    
    83   36   33 1    
    84   88   34 1    
    85   79   35 1    
    86   80   35 1    
    87   81   35 1    
    88   82   36 1    
    89   83   36 1    
    90   84   36 1    
@<TRIPOS>SUBSTRUCTURE
     1 BIV501      1 GROUP   
@<TRIPOS>SET

