#    Name: 3vnt_0JA_1_INTS_M
#    Modification time : Tue Mar 25 01:11:38 2014

@<TRIPOS>MOLECULE
3vnt_0JA_1_INTS_M
  104     0     9     0     0
SMALL
NO_CHARGES


@<TRIPOS>ATOM
      1 CA         32.4710  -30.3935  -13.5515 C.3       3 GLC5        0.0000 
      2 CA         31.0880  -30.6230  -12.4610 C.3       9 GLL5        0.0000 
      3 CA         33.8540  -30.1640  -14.6420 C.3       6 GLP5        0.0000 
      4 CA         32.5080  -30.7955  -11.6395 C.3       3 GLC5        0.0000 
      5 CA         33.9280  -30.9680  -10.8180 C.3       6 GLP5        0.0000 
      6 CA         27.0350  -28.0970  -10.0745 C.3       3 GLC5        0.0000 
      7 CA         27.7880  -29.7370  -11.2490 C.3       9 GLL5        0.0000 
      8 CA         26.2820  -26.4570   -8.9000 C.3       6 GLP5        0.0000 
      9 CA         24.9225  -29.2070  -10.4445 C.3       3 GLC5        0.0000 
     10 CA         25.1260  -28.3910  -12.2010 C.3       9 GLL5        0.0000 
     11 CA         24.7190  -30.0230   -8.6880 C.3       6 GLP5        0.0000 
     12 CA         25.4015  -24.1310  -10.9975 C.3       3 GLC5        0.0000 
     13 CA         25.2100  -26.0180  -12.1210 C.3       9 GLL5        0.0000 
     14 CA         25.5930  -22.2440   -9.8740 C.3       6 GLP5        0.0000 
     15 N          23.4220  -23.4720  -11.4850 N.am      2 SEC2        0.0000 
     16 N          23.0500  -25.0050  -11.4760 N.am      8 SEL2        0.0000 
     17 N          23.7940  -21.9390  -11.4940 N.am      5 SEP2        0.0000 
     18 O          20.8010  -23.2910  -11.3060 O.2       1 ALC1        0.0000 
     19 O          20.8000  -24.5850  -10.8450 O.2       7 ALL1        0.0000 
     20 O          20.8020  -21.9970  -11.7670 O.2       4 ALP1        0.0000 
     21 CA         18.8860  -25.4000   -7.7630 C.3       3 GLC5        0.0000 
     22 CA         17.7490  -24.0250   -8.8860 C.3       9 GLL5        0.0000 
     23 CA         20.0230  -26.7750   -6.6400 C.3       6 GLP5        0.0000 
     24 CA         23.9915  -28.6590  -10.1655 C.3       3 GLC5        0.0000 
     25 CA         23.2640  -27.2950  -11.6430 C.3       9 GLL5        0.0000 
     26 O          30.4120  -32.1145  -14.4270 O.2       1 ALC1        0.0000 
     27 O          29.7810  -30.8370  -14.7430 O.2       7 ALL1        0.0000 
     28 O          31.0430  -33.3920  -14.1110 O.2       4 ALP1        0.0000 
     29 N          27.5885  -30.3250  -17.2620 N.am      2 SEC2        0.0000 
     30 N          28.4320  -29.7900  -16.2820 N.am      8 SEL2        0.0000 
     31 N          26.7450  -30.8600  -18.2420 N.am      5 SEP2        0.0000 
     32 CA         32.0285  -29.0920  -17.7030 C.3       3 GLC5        0.0000 
     33 CA         30.1650  -28.6030  -18.3180 C.3       9 GLL5        0.0000 
     34 CA         33.8920  -29.5810  -17.0880 C.3       6 GLP5        0.0000 
     35 CA         30.6895  -27.0915  -19.3570 C.3       3 GLC5        0.0000 
     36 CA         31.2140  -25.5800  -20.3960 C.3       6 GLP5        0.0000 
     37 CA         29.5380  -27.5325  -17.2115 C.3       3 GLC5        0.0000 
     38 CA         28.9110  -26.4620  -16.1050 C.3       6 GLP5        0.0000 
     39 CA         32.3950  -29.2275  -22.9035 C.3       3 GLC5        0.0000 
     40 CA         31.5710  -30.7850  -21.8250 C.3       9 GLL5        0.0000 
     41 CA         33.2190  -27.6700  -23.9820 C.3       6 GLP5        0.0000 
     42 CA         30.8550  -27.6935  -20.9335 C.3       3 GLC5        0.0000 
     43 CA         30.4960  -29.8070  -21.4710 C.3       9 GLL5        0.0000 
     44 CA         30.6935  -28.9250  -23.1585 C.3       3 GLC5        0.0000 
     45 CA         30.8910  -28.0430  -24.8460 C.3       6 GLP5        0.0000 
     46 CA         28.7885  -28.7685  -22.1600 C.3       3 GLC5        0.0000 
     47 CA         27.0810  -27.7300  -22.8490 C.3       6 GLP5        0.0000 
     48 CA         31.8970  -27.3105  -20.4025 C.3       3 GLC5        0.0000 
     49 CA         32.5800  -29.0410  -20.4090 C.3       9 GLL5        0.0000 
     50 CA         32.8995  -28.3555  -22.1955 C.3       3 GLC5        0.0000 
     51 CA         29.7980  -31.7547  -11.0195 C.3       3 GLC5        0.0000 
     52 CA         29.1720  -33.0190   -9.5900 C.3       6 GLP5        0.0000 
     53 CA         31.0425  -28.9307  -12.2695 C.3       3 GLC5        0.0000 
     54 CA         29.7600  -30.3580  -12.4370 C.3       9 GLL5        0.0000 
     55 CA         31.6610  -27.3710  -12.0900 C.3       6 GLP5        0.0000 
     56 CA         28.8185  -31.4438  -10.4225 C.3       3 GLC5        0.0000 
     57 CA         29.1420  -30.0000  -11.2610 C.3       9 GLL5        0.0000 
     58 CA         28.8660  -28.2518  -11.4520 C.3       3 GLC5        0.0000 
     59 CA         29.2670  -26.6350  -11.6490 C.3       6 GLP5        0.0000 
     60 CA         26.3177  -30.9590  -10.8938 C.3       3 GLC5        0.0000 
     61 CA         25.2050  -32.1310   -9.9520 C.3       6 GLP5        0.0000 
     62 CA         25.8820  -27.1328  -10.5890 C.3       3 GLC5        0.0000 
     63 CA         25.8380  -27.2260  -12.3550 C.3       9 GLL5        0.0000 
     64 CA         24.4960  -26.8278  -13.6920 C.3       3 GLC5        0.0000 
     65 CA         23.5100  -25.8470  -15.1060 C.3       6 GLP5        0.0000 
     66 CA         27.3955  -26.6285  -11.9435 C.3       3 GLC5        0.0000 
     67 CA         19.5757  -23.0642   -8.5705 C.3       3 GLC5        0.0000 
     68 CA         18.6640  -23.9440  -10.0780 C.3       9 GLL5        0.0000 
     69 CA         20.9450  -22.1440   -7.6590 C.3       6 GLP5        0.0000 
     70 CA         18.1125  -24.1010  -11.9690 C.3       3 GLC5        0.0000 
     71 CA         18.3000  -24.1570  -13.7660 C.3       6 GLP5        0.0000 
     72 CA         22.4240  -27.1350   -9.4303 C.3       3 GLC5        0.0000 
     73 CA         21.6080  -27.1490  -11.1940 C.3       9 GLL5        0.0000 
     74 CA         22.4120  -27.0480   -7.4420 C.3       6 GLP5        0.0000 
     75 CA         25.0930  -26.5625  -10.3450 C.3       3 GLC5        0.0000 
     76 CA         23.7070  -26.2575  -13.4480 C.3       3 GLC5        0.0000 
     77 CA         28.1200  -32.0854  -12.8796 C.3       3 GLC5        0.0000 
     78 CA         27.0730  -29.8370  -12.4220 C.3       9 GLL5        0.0000 
     79 CA         28.0230  -33.9350  -12.4500 C.3       6 GLP5        0.0000 
     80 CA         28.7420  -28.4354  -12.4791 C.3       3 GLC5        0.0000 
     81 CA         29.0510  -30.4510  -13.6060 C.3       9 GLL5        0.0000 
     82 CA         32.1220  -30.6432  -17.0915 C.3       3 GLC5        0.0000 
     83 CA         30.1950  -31.0370  -17.1270 C.3       9 GLL5        0.0000 
     84 CA         28.9995  -32.3483  -18.0740 C.3       3 GLC5        0.0000 
     85 CA         27.6470  -32.9910  -19.0530 C.3       6 GLP5        0.0000 
     86 CA         32.0000  -33.4357  -16.2285 C.3       3 GLC5        0.0000 
     87 CA         30.5090  -32.3740  -17.0630 C.3       9 GLL5        0.0000 
     88 CA         33.1450  -34.2100  -14.8720 C.3       6 GLP5        0.0000 
     89 CA         32.6325  -31.0775  -17.8727 C.3       3 GLC5        0.0000 
     90 CA         31.2010  -32.9490  -18.1070 C.3       9 GLL5        0.0000 
     91 CA         29.5100  -32.7825  -18.8552 C.3       3 GLC5        0.0000 
     92 CA         31.5450  -32.1990  -19.2080 C.3       9 GLL5        0.0000 
     93 CA         32.3915  -30.0763  -17.9260 C.3       3 GLC5        0.0000 
     94 CA         31.2310  -30.8580  -19.2950 C.3       9 GLL5        0.0000 
     95 CA         29.2690  -31.7812  -18.9085 C.3       3 GLC5        0.0000 
     96 CA         30.5510  -30.2850  -18.2330 C.3       9 GLL5        0.0000 
     97 CA         28.4070  -28.9740  -18.5108 C.3       3 GLC5        0.0000 
     98 CA         26.4560  -28.5040  -18.7460 C.3       6 GLP5        0.0000 
     99 CA         32.9952  -29.5708  -18.7700 C.3       3 GLC5        0.0000 
    100 CA         31.6170  -30.0800  -20.4950 C.3       9 GLL5        0.0000 
    101 CA         29.2963  -30.6340  -22.6475 C.3       3 GLC5        0.0000 
    102 CA         27.5590  -30.9720  -23.6470 C.3       6 GLP5        0.0000 
    103 CA         33.9160  -29.8744  -21.1763 C.3       3 GLC5        0.0000 
    104 CA         35.7450  -30.0120  -21.5680 C.3       6 GLP5        0.0000 
@<TRIPOS>BOND
@<TRIPOS>SUBSTRUCTURE
     1 ALC1       18 GROUP        1 X    ALC  0     ROOT ALC X 1
     2 SEC2       15 GROUP        1 X    SEC  0     **** SEC X 2
     3 GLC5        1 GROUP        1 X    GLC  0     **** GLC X 6
     4 ALP1       20 GROUP        1 Y    ALP  0     ROOT ALP Y 8
     5 SEP2       17 GROUP        1 Y    SEP  0     **** SEP Y 9
     6 GLP5        3 GROUP        1 Y    GLP  0     **** GLP Y 13
     7 ALL1       19 GROUP        1 Z    ALL  0     ROOT ALL Z 15
     8 SEL2       16 GROUP        1 Z    SEL  0     **** SEL Z 16
     9 GLL5        2 GROUP        1 Z    GLL  0     **** GLL Z 20
@<TRIPOS>SET

