#    Name: 3vnt_0JA_1_ligand
#    Modification time : Tue Mar 25 01:11:39 2014

@<TRIPOS>MOLECULE
3vnt_0JA_1_ligand
   57    62     1     0     0
SMALL
NO_CHARGES


@<TRIPOS>ATOM
      1 F1         31.0880  -30.6230  -12.4610 F         1 0JA2001     0.0000 
      2 C2         29.7600  -30.3580  -12.4370 C.ar      1 0JA2001     0.0000 
      3 C3         29.1420  -30.0000  -11.2610 C.ar      1 0JA2001     0.0000 
      4 C4         27.7880  -29.7370  -11.2490 C.ar      1 0JA2001     0.0000 
      5 C5         27.0730  -29.8370  -12.4220 C.ar      1 0JA2001     0.0000 
      6 O6         25.6930  -29.6300  -12.4240 O.3       1 0JA2001     0.0000 
      7 C7         25.1260  -28.3910  -12.2010 C.ar      1 0JA2001     0.0000 
      8 C8         25.8380  -27.2260  -12.3550 C.ar      1 0JA2001     0.0000 
      9 C9         25.2100  -26.0180  -12.1210 C.ar      1 0JA2001     0.0000 
     10 C10        23.8780  -26.0640  -11.7530 C.ar      1 0JA2001     0.0000 
     11 N11        23.0500  -25.0050  -11.4760 N.2       1 0JA2001     0.0000 
     12 C12        21.8430  -25.4370  -11.1710 C.2       1 0JA2001     0.0000 
     13 N13        20.8000  -24.5850  -10.8450 N.am      1 0JA2001     0.0000 
     14 C14        19.5900  -25.0440  -10.3930 C.2       1 0JA2001     0.0000 
     15 O15        19.2530  -26.2090  -10.2410 O.2       1 0JA2001     0.0000 
     16 C16        18.6640  -23.9440  -10.0780 C.3       1 0JA2001     0.0000 
     17 C17        17.1860  -24.1460  -10.2660 C.3       1 0JA2001     0.0000 
     18 C18        17.7490  -24.0250   -8.8860 C.3       1 0JA2001     0.0000 
     19 S19        21.6080  -27.1490  -11.1940 S.3       1 0JA2001     0.0000 
     20 C20        23.2640  -27.2950  -11.6430 C.ar      1 0JA2001     0.0000 
     21 N21        23.8380  -28.4750  -11.8590 N.ar      1 0JA2001     0.0000 
     22 C22        27.6930  -30.2040  -13.6030 C.ar      1 0JA2001     0.0000 
     23 C23        29.0510  -30.4510  -13.6060 C.ar      1 0JA2001     0.0000 
     24 N24        29.7810  -30.8370  -14.7430 N.am      1 0JA2001     0.0000 
     25 C25        29.4170  -30.4630  -16.0070 C.2       1 0JA2001     0.0000 
     26 O26        28.4320  -29.7900  -16.2820 O.2       1 0JA2001     0.0000 
     27 C27        30.1950  -31.0370  -17.1270 C.ar      1 0JA2001     0.0000 
     28 C28        30.5090  -32.3740  -17.0630 C.ar      1 0JA2001     0.0000 
     29 C29        31.2010  -32.9490  -18.1070 C.ar      1 0JA2001     0.0000 
     30 C30        31.5450  -32.1990  -19.2080 C.ar      1 0JA2001     0.0000 
     31 C31        31.2310  -30.8580  -19.2950 C.ar      1 0JA2001     0.0000 
     32 C32        30.5510  -30.2850  -18.2330 C.ar      1 0JA2001     0.0000 
     33 CL3        30.1650  -28.6030  -18.3180 Cl        1 0JA2001     0.0000 
     34 C34        31.6170  -30.0800  -20.4950 C.3       1 0JA2001     0.0000 
     35 C35        31.5710  -30.7850  -21.8250 C.3       1 0JA2001     0.0000 
     36 C36        30.4960  -29.8070  -21.4710 C.3       1 0JA2001     0.0000 
     37 C37        32.5800  -29.0410  -20.4090 C.1       1 0JA2001     0.0000 
     38 N38        33.3740  -28.2030  -20.3270 N.1       1 0JA2001     0.0000 
     39 H          29.6888  -29.9280  -10.3891 H         1 0JA2001     0.0000 
     40 H          27.3193  -29.4698  -10.3751 H         1 0JA2001     0.0000 
     41 H          26.8239  -27.2493  -12.6401 H         1 0JA2001     0.0000 
     42 H          25.7014  -25.1401  -12.2144 H         1 0JA2001     0.0000 
     43 H          20.9480  -23.5515  -10.9501 H         1 0JA2001     0.0000 
     44 H          18.8139  -22.9779  -10.2284 H         1 0JA2001     0.0000 
     45 H          17.0331  -25.0667  -10.4501 H         1 0JA2001     0.0000 
     46 H          16.8007  -23.3110  -10.5093 H         1 0JA2001     0.0000 
     47 H          17.5922  -23.1410   -8.5725 H         1 0JA2001     0.0000 
     48 H          17.8247  -24.8967   -8.5134 H         1 0JA2001     0.0000 
     49 H          27.1471  -30.2914  -14.4681 H         1 0JA2001     0.0000 
     50 H          30.6301  -31.4312  -14.6008 H         1 0JA2001     0.0000 
     51 H          30.2329  -32.9368  -16.2506 H         1 0JA2001     0.0000 
     52 H          31.4625  -33.9491  -18.0617 H         1 0JA2001     0.0000 
     53 H          32.0553  -32.6531  -19.9966 H         1 0JA2001     0.0000 
     54 H          31.2383  -31.6648  -21.6825 H         1 0JA2001     0.0000 
     55 H          32.1887  -30.3572  -22.4085 H         1 0JA2001     0.0000 
     56 H          30.6818  -28.9833  -21.9069 H         1 0JA2001     0.0000 
     57 H          29.7313  -30.2909  -21.1810 H         1 0JA2001     0.0000 
@<TRIPOS>BOND
     1    2    1 1    
     2    3    2 ar   
     3   23    2 ar   
     4    4    3 ar   
     5   39    3 1    
     6    5    4 ar   
     7   40    4 1    
     8    6    5 1    
     9   22    5 ar   
    10    7    6 1    
    11    8    7 ar   
    12   21    7 ar   
    13    9    8 ar   
    14   41    8 1    
    15   10    9 ar   
    16   42    9 1    
    17   11   10 1    
    18   20   10 ar   
    19   12   11 2    
    20   13   12 1    
    21   19   12 1    
    22   14   13 am   
    23   43   13 1    
    24   15   14 2    
    25   16   14 1    
    26   17   16 1    
    27   18   16 1    
    28   44   16 1    
    29   18   17 1    
    30   45   17 1    
    31   46   17 1    
    32   47   18 1    
    33   48   18 1    
    34   20   19 1    
    35   21   20 ar   
    36   23   22 ar   
    37   49   22 1    
    38   24   23 1    
    39   25   24 am   
    40   50   24 1    
    41   26   25 2    
    42   27   25 1    
    43   28   27 ar   
    44   32   27 ar   
    45   29   28 ar   
    46   51   28 1    
    47   30   29 ar   
    48   52   29 1    
    49   31   30 ar   
    50   53   30 1    
    51   32   31 ar   
    52   34   31 1    
    53   33   32 1    
    54   35   34 1    
    55   36   34 1    
    56   37   34 1    
    57   36   35 1    
    58   54   35 1    
    59   55   35 1    
    60   56   36 1    
    61   57   36 1    
    62   38   37 3    
@<TRIPOS>SUBSTRUCTURE
     1 0JA2001     1 GROUP   
@<TRIPOS>SET

