#    Name: 3CAS_2_CAVITY_N1_6.mol2
#    Modification time : Tue Mar 11 13:08:20 2014

@<TRIPOS>MOLECULE
3CAS_2_CAVITY_N1_6.mol2
   84     0     6     0     0
SMALL
NO_CHARGES


@<TRIPOS>ATOM
      1 OG         12.2520   35.8969   65.7680 O.2       1 SER1        0.0000 
      2 CA         13.0853   36.5954   64.7347 C.3       5 GLY6        0.0000 
      3 CA         13.9186   37.2939   63.7015 C.3       5 GLY6        0.0000 
      4 CZ         14.7519   37.9924   62.6682 C.ar      4 PHE5        0.0000 
      5 CZ         15.5852   38.6909   61.6349 C.ar      4 PHE5        0.0000 
      6 OG         11.2353   35.5575   64.7187 O.2       1 SER1        0.0000 
      7 CZ         12.0686   36.2560   63.6854 C.ar      4 PHE5        0.0000 
      8 CZ         12.9019   36.9545   62.6521 C.ar      4 PHE5        0.0000 
      9 O          13.7352   37.6530   61.6188 O.2       2 ALA2        0.0000 
     10 CZ         14.5685   38.3515   60.5855 C.ar      4 PHE5        0.0000 
     11 OG         15.4018   39.0500   59.5522 O.2       1 SER1        0.0000 
     12 CZ         10.2186   35.2182   63.6693 C.ar      4 PHE5        0.0000 
     13 CZ         13.5518   38.0122   59.5362 C.ar      4 PHE5        0.0000 
     14 OG         13.3684   38.3713   57.4535 O.2       1 SER1        0.0000 
     15 CA         14.3963   38.5574   67.1184 C.3       5 GLY6        0.0000 
     16 CA         15.2296   39.2559   66.0851 C.3       5 GLY6        0.0000 
     17 CA         16.0630   39.9544   65.0518 C.3       5 GLY6        0.0000 
     18 CA         16.8963   40.6529   64.0185 C.3       5 GLY6        0.0000 
     19 CA         12.5463   37.5196   67.1023 C.3       5 GLY6        0.0000 
     20 CA         13.3796   38.2181   66.0690 C.3       5 GLY6        0.0000 
     21 CA         14.2129   38.9166   65.0357 C.3       5 GLY6        0.0000 
     22 CZ         15.0462   39.6151   64.0024 C.ar      4 PHE5        0.0000 
     23 CZ         15.8796   40.3136   62.9692 C.ar      4 PHE5        0.0000 
     24 CZ         16.7129   41.0121   61.9359 C.ar      4 PHE5        0.0000 
     25 CZ         17.5462   41.7106   60.9026 C.ar      4 PHE5        0.0000 
     26 O          10.6963   36.4817   67.0862 O.2       2 ALA2        0.0000 
     27 OG         11.5296   37.1802   66.0530 O.2       1 SER1        0.0000 
     28 DU         12.3629   37.8787   65.0197 H         6 CUB7        0.0000 
     29 DU         13.1962   38.5772   63.9864 H         6 CUB7        0.0000 
     30 CZ         14.0295   39.2757   62.9531 C.ar      4 PHE5        0.0000 
     31 CZ         14.8628   39.9742   61.9198 C.ar      4 PHE5        0.0000 
     32 CZ         15.6962   40.6727   60.8865 C.ar      4 PHE5        0.0000 
     33 CZ         16.5295   41.3712   59.8532 C.ar      4 PHE5        0.0000 
     34 OG         10.5129   36.8409   65.0036 O.2       1 SER1        0.0000 
     35 CZ         11.3462   37.5394   63.9703 C.ar      4 PHE5        0.0000 
     36 CZ         12.1795   38.2379   62.9370 C.ar      4 PHE5        0.0000 
     37 CZ         13.0128   38.9364   61.9037 C.ar      4 PHE5        0.0000 
     38 DU         13.8461   39.6349   60.8705 H         6 CUB7        0.0000 
     39 OG         14.6794   40.3334   59.8372 O.2       1 SER1        0.0000 
     40 OG         15.5128   41.0319   58.8039 O.2       1 SER1        0.0000 
     41 CZ         12.8294   39.2955   59.8211 C.ar      4 PHE5        0.0000 
     42 OG         13.6627   39.9940   58.7878 O.2       1 SER1        0.0000 
     43 OG         12.6460   39.6547   57.7385 O.2       1 SER1        0.0000 
     44 CA         14.5072   40.5392   66.3700 C.3       5 GLY6        0.0000 
     45 CA         15.3405   41.2377   65.3367 C.3       5 GLY6        0.0000 
     46 CA         16.1739   41.9362   64.3034 C.3       5 GLY6        0.0000 
     47 CA         17.0072   42.6347   63.2701 C.3       5 GLY6        0.0000 
     48 CA         17.8405   43.3332   62.2369 C.3       5 GLY6        0.0000 
     49 NZ         12.6572   39.5014   66.3539 N.2       3 LYS4        0.0000 
     50 CZ         13.4905   40.1999   65.3207 C.ar      4 PHE5        0.0000 
     51 CZ         14.3238   40.8984   64.2874 C.ar      4 PHE5        0.0000 
     52 CZ         15.1571   41.5969   63.2541 C.ar      4 PHE5        0.0000 
     53 CA         15.9905   42.2954   62.2208 C.3       5 GLY6        0.0000 
     54 CZ         16.8238   42.9939   61.1875 C.ar      4 PHE5        0.0000 
     55 CZ         17.6571   43.6924   60.1542 C.ar      4 PHE5        0.0000 
     56 NZ         11.6405   39.1620   65.3046 N.2       3 LYS4        0.0000 
     57 CZ         12.4738   39.8605   64.2713 C.ar      4 PHE5        0.0000 
     58 CZ         13.3071   40.5590   63.2380 C.ar      4 PHE5        0.0000 
     59 CZ         14.1404   41.2575   62.2047 C.ar      4 PHE5        0.0000 
     60 DU         14.9737   41.9560   61.1715 H         6 CUB7        0.0000 
     61 CZ         15.8071   42.6545   60.1382 C.ar      4 PHE5        0.0000 
     62 CA         12.7910   34.9727   63.4005 C.3       5 GLY6        0.0000 
     63 O          10.9410   33.9349   63.3844 O.2       2 ALA2        0.0000 
     64 CZ         14.2742   36.7289   59.2513 C.ar      4 PHE5        0.0000 
     65 CA         13.2687   36.2362   66.8174 C.3       5 GLY6        0.0000 
     66 CA         14.1020   36.9347   65.7841 C.3       5 GLY6        0.0000 
     67 CZ         10.6238   38.8227   64.2552 C.ar      4 PHE5        0.0000 
     68 CZ         11.4571   39.5212   63.2220 C.ar      4 PHE5        0.0000 
     69 CZ         12.2904   40.2197   62.1887 C.ar      4 PHE5        0.0000 
     70 DU         13.1237   40.9182   61.1554 H         6 CUB7        0.0000 
     71 DU         13.9570   41.6167   60.1221 H         6 CUB7        0.0000 
     72 CA         14.7904   42.3152   59.0888 C.3       5 GLY6        0.0000 
     73 CZ         12.1070   40.5789   60.1060 C.ar      4 PHE5        0.0000 
     74 CZ         12.9403   41.2774   59.0728 C.ar      4 PHE5        0.0000 
     75 N          16.2848   43.9181   63.5551 N.2       2 ALA2        0.0000 
     76 N          17.1181   44.6166   62.5218 N.2       2 ALA2        0.0000 
     77 N          15.2681   43.5787   62.5057 N.2       2 ALA2        0.0000 
     78 N          16.1014   44.2772   61.4724 N.2       2 ALA2        0.0000 
     79 N          14.2513   43.2394   61.4564 N.2       2 ALA2        0.0000 
     80 N          15.0847   43.9379   60.4231 N.2       2 ALA2        0.0000 
     81 CZ         11.5680   41.5030   62.4736 C.ar      4 PHE5        0.0000 
     82 CZ         12.4013   42.2015   61.4403 C.ar      4 PHE5        0.0000 
     83 CZ         13.2346   42.9000   60.4070 C.ar      4 PHE5        0.0000 
     84 NZ         14.0679   43.5985   59.3737 N.2       3 LYS4        0.0000 
@<TRIPOS>BOND
@<TRIPOS>SUBSTRUCTURE
     1 SER1        1 GROUP   
     2 ALA2        9 GROUP   
     3 LYS4       49 GROUP   
     4 PHE5        4 GROUP   
     5 GLY6        2 GROUP   
     6 CUB7       28 GROUP   
@<TRIPOS>SET

