#    Name: 3cas_ASD_2_INTS_M
#    Modification time : Mon Mar 24 20:35:56 2014

@<TRIPOS>MOLECULE
3cas_ASD_2_INTS_M
   76     0     6     0     0
SMALL
NO_CHARGES


@<TRIPOS>ATOM
      1 CA         14.7680   37.2225   63.8885 C.3       2 GLC5        0.0000 
      2 CA         12.8980   38.2750   63.8400 C.3       6 GLL5        0.0000 
      3 CA         16.6380   36.1700   63.9370 C.3       4 GLP5        0.0000 
      4 CA         11.8620   37.6795   60.7925 C.3       2 GLC5        0.0000 
      5 CA         13.2840   38.6560   61.3000 C.3       6 GLL5        0.0000 
      6 CA         10.4400   36.7030   60.2850 C.3       4 GLP5        0.0000 
      7 CA         15.0585   37.5410   61.4835 C.3       2 GLC5        0.0000 
      8 CA         16.8330   36.4260   61.6670 C.3       4 GLP5        0.0000 
      9 CA         12.3025   38.5035   59.8130 C.3       2 GLC5        0.0000 
     10 CA         14.2670   39.2270   60.2130 C.3       6 GLL5        0.0000 
     11 CA         10.3380   37.7800   59.4130 C.3       4 GLP5        0.0000 
     12 CA         15.7600   38.0935   60.3265 C.3       2 GLC5        0.0000 
     13 CA         17.2530   36.9600   60.4400 C.3       4 GLP5        0.0000 
     14 CA         16.3780   39.3720   60.4580 C.3       2 GLC5        0.0000 
     15 CA         14.6510   40.7080   60.4430 C.3       6 GLL5        0.0000 
     16 CA         18.1050   38.0360   60.4730 C.3       4 GLP5        0.0000 
     17 CA         16.9005   39.6745   61.7830 C.3       2 GLC5        0.0000 
     18 CA         15.2570   40.7620   61.8760 C.3       6 GLL5        0.0000 
     19 CA         18.5440   38.5870   61.6900 C.3       4 GLP5        0.0000 
     20 CA         14.1555   42.9425   63.1440 C.3       2 GLC5        0.0000 
     21 CA         15.7450   42.2330   62.0100 C.3       6 GLL5        0.0000 
     22 CA         12.5660   43.6520   64.2780 C.3       4 GLP5        0.0000 
     23 CA         17.3030   43.0160   59.0680 C.3       2 GLC5        0.0000 
     24 CA         16.6070   42.2680   60.7170 C.3       6 GLL5        0.0000 
     25 CA         17.9990   43.7640   57.4190 C.3       4 GLP5        0.0000 
     26 CA         17.5755   40.4275   61.2035 C.3       2 GLC5        0.0000 
     27 CA         18.4720   41.7625   60.1070 C.3       2 GLC5        0.0000 
     28 CA         20.3370   41.2570   59.4970 C.3       4 GLP5        0.0000 
     29 CA         13.5680   42.3185   58.0915 C.3       2 GLC5        0.0000 
     30 CA         13.4070   41.5890   60.1500 C.3       6 GLL5        0.0000 
     31 CA         13.7290   43.0480   56.0330 C.3       4 GLP5        0.0000 
     32 CA         11.6820   42.1655   59.4700 C.3       2 GLC5        0.0000 
     33 CA          9.9570   42.7420   58.7900 C.3       4 GLP5        0.0000 
     34 CA         10.2310   38.3430   62.8455 C.3       2 GLC5        0.0000 
     35 CA         11.4890   38.8720   63.8620 C.3       6 GLL5        0.0000 
     36 CA          8.9730   37.8140   61.8290 C.3       4 GLP5        0.0000 
     37 CA         11.5945   40.7530   64.3255 C.3       2 GLC5        0.0000 
     38 CA         11.7000   42.6340   64.7890 C.3       4 GLP5        0.0000 
     39 CA         10.9835   36.2995   63.1665 C.3       2 GLC5        0.0000 
     40 CA         12.2040   35.8830   64.8420 C.3       6 GLL5        0.0000 
     41 CA          9.7630   36.7160   61.4910 C.3       4 GLP5        0.0000 
     42 CA         12.6880   34.1890   65.2015 C.3       2 GLC5        0.0000 
     43 CA         13.1720   32.4950   65.5610 C.3       4 GLP5        0.0000 
     44 CA         12.4475   37.6080   68.2390 C.3       2 GLC5        0.0000 
     45 CA         13.4260   37.5430   66.4110 C.3       6 GLL5        0.0000 
     46 CA         11.4690   37.6730   70.0670 C.3       4 GLP5        0.0000 
     47 CA         14.2700   36.7725   67.9980 C.3       2 GLC5        0.0000 
     48 CA         15.1140   36.0020   69.5850 C.3       4 GLP5        0.0000 
     49 CA         15.4490   38.1435   65.4985 C.3       2 GLC5        0.0000 
     50 CA         14.1100   39.9330   65.5650 C.3       6 GLL5        0.0000 
     51 CA         16.7880   36.3540   65.4320 C.3       4 GLP5        0.0000 
     52 CA         17.2110   40.8965   64.2825 C.3       2 GLC5        0.0000 
     53 CA         15.0620   40.4220   64.4040 C.3       6 GLL5        0.0000 
     54 CA         19.3600   41.3710   64.1610 C.3       4 GLP5        0.0000 
     55 CA         15.5635   37.8795   62.8280 C.3       2 GLC5        0.0000 
     56 CA         13.8710   38.8040   62.7480 C.3       6 GLL5        0.0000 
     57 CA         17.2560   36.9550   62.9080 C.3       4 GLP5        0.0000 
     58 N          12.8185   34.0840   67.5670 N.am      1 SEC2        0.0000 
     59 N          12.7910   35.4810   67.1450 N.am      5 SEL2        0.0000 
     60 N          12.8460   32.6870   67.9890 N.am      3 SEP2        0.0000 
     61 N          16.0515   39.8985   57.8130 N.am      1 SEC2        0.0000 
     62 N          16.2570   41.0020   58.5990 N.am      5 SEL2        0.0000 
     63 N          15.8460   38.7950   57.0270 N.am      3 SEP2        0.0000 
     64 CA         11.3023   37.1043   62.6195 C.3       2 GLC5        0.0000 
     65 CA         14.1923   35.7587   63.7715 C.3       2 GLC5        0.0000 
     66 CA         12.7850   36.7100   63.6560 C.3       6 GLL5        0.0000 
     67 CA         15.8900   35.2210   63.2940 C.3       4 GLP5        0.0000 
     68 CA         17.7680   41.8107   62.7622 C.3       2 GLC5        0.0000 
     69 CA         15.1215   37.2037   65.6335 C.3       2 GLC5        0.0000 
     70 CA         13.4840   38.5640   65.2590 C.3       6 GLL5        0.0000 
     71 CA         12.7485   40.9413   65.1005 C.3       2 GLC5        0.0000 
     72 CA         15.8630   40.6927   66.1373 C.3       2 GLC5        0.0000 
     73 CA         17.1400   41.2080   67.2900 C.3       4 GLP5        0.0000 
     74 CA         16.4050   39.2082   63.3135 C.3       2 GLC5        0.0000 
     75 CA         18.1270   38.0540   62.9140 C.3       4 GLP5        0.0000 
     76 CA         13.1915   41.4982   64.2510 C.3       2 GLC5        0.0000 
@<TRIPOS>BOND
@<TRIPOS>SUBSTRUCTURE
     1 SEC2       58 GROUP        1 X    SEC  0     ROOT SEC X 2
     2 GLC5        1 GROUP        1 X    GLC  0     **** GLC X 6
     3 SEP2       60 GROUP        1 Y    SEP  0     ROOT SEP Y 9
     4 GLP5        3 GROUP        1 Y    GLP  0     **** GLP Y 13
     5 SEL2       59 GROUP        1 Z    SEL  0     ROOT SEL Z 16
     6 GLL5        2 GROUP        1 Z    GLL  0     **** GLL Z 20
@<TRIPOS>SET

