#    Name: 3cas_ASD_2_ligand
#    Modification time : Mon Mar 24 20:35:56 2014

@<TRIPOS>MOLECULE
3cas_ASD_2_ligand
   47    50     1     0     0
SMALL
NO_CHARGES


@<TRIPOS>ATOM
      1 C1         12.7850   36.7100   63.6560 C.3       1 ASD331      0.0000 
      2 C10        12.8980   38.2750   63.8400 C.3       1 ASD331      0.0000 
      3 C11        13.2840   38.6560   61.3000 C.3       1 ASD331      0.0000 
      4 C12        14.2670   39.2270   60.2130 C.3       1 ASD331      0.0000 
      5 C13        14.6510   40.7080   60.4430 C.3       1 ASD331      0.0000 
      6 C14        15.2570   40.7620   61.8760 C.3       1 ASD331      0.0000 
      7 C15        15.7450   42.2330   62.0100 C.3       1 ASD331      0.0000 
      8 C16        16.6070   42.2680   60.7170 C.3       1 ASD331      0.0000 
      9 C17        15.8910   41.2720   59.7440 C.2       1 ASD331      0.0000 
     10 C18        13.4070   41.5890   60.1500 C.3       1 ASD331      0.0000 
     11 C19        11.4890   38.8720   63.8620 C.3       1 ASD331      0.0000 
     12 C2         12.2040   35.8830   64.8420 C.3       1 ASD331      0.0000 
     13 C3         12.8300   36.2830   66.2090 C.2       1 ASD331      0.0000 
     14 C4         13.4260   37.5430   66.4110 C.2       1 ASD331      0.0000 
     15 C5         13.4840   38.5640   65.2590 C.2       1 ASD331      0.0000 
     16 C6         14.1100   39.9330   65.5650 C.3       1 ASD331      0.0000 
     17 C7         15.0620   40.4220   64.4040 C.3       1 ASD331      0.0000 
     18 C8         14.3040   40.3030   63.0220 C.3       1 ASD331      0.0000 
     19 C9         13.8710   38.8040   62.7480 C.3       1 ASD331      0.0000 
     20 O1         12.7910   35.4810   67.1450 O.2       1 ASD331      0.0000 
     21 O2         16.2570   41.0020   58.5990 O.2       1 ASD331      0.0000 
     22 H          13.7979   36.3229   63.4169 H         1 ASD331      0.0000 
     23 H          12.1662   36.5186   62.7540 H         1 ASD331      0.0000 
     24 H          13.1116   37.6063   61.0969 H         1 ASD331      0.0000 
     25 H          12.3485   39.1988   61.2434 H         1 ASD331      0.0000 
     26 H          13.7902   39.1262   59.2338 H         1 ASD331      0.0000 
     27 H          15.1735   38.6150   60.2162 H         1 ASD331      0.0000 
     28 H          16.1496   40.1385   61.8658 H         1 ASD331      0.0000 
     29 H          16.3533   42.3228   62.8360 H         1 ASD331      0.0000 
     30 H          14.9452   42.8741   61.9122 H         1 ASD331      0.0000 
     31 H          17.5778   41.9110   60.9272 H         1 ASD331      0.0000 
     32 H          16.5840   43.2376   60.3006 H         1 ASD331      0.0000 
     33 H          12.3965   34.8260   64.6611 H         1 ASD331      0.0000 
     34 H          11.1270   36.0415   64.8868 H         1 ASD331      0.0000 
     35 H          13.8288   37.8304   67.2832 H         1 ASD331      0.0000 
     36 H          14.6963   39.8732   66.4791 H         1 ASD331      0.0000 
     37 H          13.3257   40.6756   65.6932 H         1 ASD331      0.0000 
     38 H          15.9308   39.7964   64.3787 H         1 ASD331      0.0000 
     39 H          15.3185   41.4480   64.5723 H         1 ASD331      0.0000 
     40 H          13.4480   40.9152   63.0357 H         1 ASD331      0.0000 
     41 H          14.7868   38.2008   62.7899 H         1 ASD331      0.0000 
     42 H          13.5992   42.5606   60.2881 H         1 ASD331      0.0000 
     43 H          13.0912   41.4838   59.2070 H         1 ASD331      0.0000 
     44 H          12.6378   41.3550   60.7446 H         1 ASD331      0.0000 
     45 H          11.5083   39.8656   63.9736 H         1 ASD331      0.0000 
     46 H          10.9918   38.6818   63.0155 H         1 ASD331      0.0000 
     47 H          10.9411   38.5033   64.6129 H         1 ASD331      0.0000 
@<TRIPOS>BOND
     1    2    1 1    
     2   12    1 1    
     3   22    1 1    
     4   23    1 1    
     5   11    2 1    
     6   15    2 1    
     7   19    2 1    
     8    4    3 1    
     9   19    3 1    
    10   24    3 1    
    11   25    3 1    
    12    5    4 1    
    13   26    4 1    
    14   27    4 1    
    15    6    5 1    
    16    9    5 1    
    17   10    5 1    
    18    7    6 1    
    19   18    6 1    
    20   28    6 1    
    21    8    7 1    
    22   29    7 1    
    23   30    7 1    
    24    9    8 1    
    25   31    8 1    
    26   32    8 1    
    27   21    9 2    
    28   42   10 1    
    29   43   10 1    
    30   44   10 1    
    31   45   11 1    
    32   46   11 1    
    33   47   11 1    
    34   13   12 1    
    35   33   12 1    
    36   34   12 1    
    37   14   13 1    
    38   20   13 2    
    39   15   14 2    
    40   35   14 1    
    41   16   15 1    
    42   17   16 1    
    43   36   16 1    
    44   37   16 1    
    45   18   17 1    
    46   38   17 1    
    47   39   17 1    
    48   19   18 1    
    49   40   18 1    
    50   41   19 1    
@<TRIPOS>SUBSTRUCTURE
     1 ASD331      1 GROUP   
@<TRIPOS>SET

