#    Name: 3kyt_HC2_1_INTS_M
#    Modification time : Mon Mar 24 20:42:16 2014

@<TRIPOS>MOLECULE
3kyt_HC2_1_INTS_M
   72     0     6     0     0
SMALL
NO_CHARGES


@<TRIPOS>ATOM
      1 CA        -23.1845    0.8120  -19.3490 C.3       2 GLC5        0.0000 
      2 CA        -24.9340   -0.1580  -18.8360 C.3       6 GLL5        0.0000 
      3 CA        -21.4350    1.7820  -19.8620 C.3       4 GLP5        0.0000 
      4 CA        -23.8050   -2.3880  -20.6100 C.3       2 GLC5        0.0000 
      5 CA        -24.6950   -1.6900  -18.8860 C.3       6 GLL5        0.0000 
      6 CA        -22.9150   -3.0860  -22.3340 C.3       4 GLP5        0.0000 
      7 CA        -24.0800    2.0095  -13.0265 C.3       2 GLC5        0.0000 
      8 CA        -24.6020    1.7330  -14.8760 C.3       6 GLL5        0.0000 
      9 CA        -23.5580    2.2860  -11.1770 C.3       4 GLP5        0.0000 
     10 CA        -22.4555    2.3300  -14.5885 C.3       2 GLC5        0.0000 
     11 CA        -20.3090    2.9270  -14.3010 C.3       4 GLP5        0.0000 
     12 CA        -23.2400    1.8575  -18.6140 C.3       2 GLC5        0.0000 
     13 CA        -25.0450    1.9330  -17.3660 C.3       6 GLL5        0.0000 
     14 CA        -27.8500    2.4655  -18.4330 C.3       2 GLC5        0.0000 
     15 CA        -25.6430    2.8000  -18.4930 C.3       6 GLL5        0.0000 
     16 CA        -30.0570    2.1310  -18.3730 C.3       4 GLP5        0.0000 
     17 CA        -22.9205    3.9995  -16.5730 C.3       2 GLC5        0.0000 
     18 CA        -24.9930    4.0050  -15.9550 C.3       6 GLL5        0.0000 
     19 CA        -20.8480    3.9940  -17.1910 C.3       4 GLP5        0.0000 
     20 CA        -26.1285    4.8045  -12.9480 C.3       2 GLC5        0.0000 
     21 CA        -24.9540    4.8020  -14.6480 C.3       6 GLL5        0.0000 
     22 CA        -27.3030    4.8070  -11.2480 C.3       4 GLP5        0.0000 
     23 CA        -24.3535    7.2710  -13.5435 C.3       2 GLC5        0.0000 
     24 CA        -24.9720    6.2440  -15.1370 C.3       6 GLL5        0.0000 
     25 CA        -23.7350    8.2980  -11.9500 C.3       4 GLP5        0.0000 
     26 CA        -29.1975    4.4395  -16.9145 C.3       2 GLC5        0.0000 
     27 CA        -27.3130    4.7320  -16.6730 C.3       6 GLL5        0.0000 
     28 CA        -31.0820    4.1470  -17.1560 C.3       4 GLP5        0.0000 
     29 CA        -28.6405    5.7615  -15.5735 C.3       2 GLC5        0.0000 
     30 CA        -29.9680    6.7910  -14.4740 C.3       4 GLP5        0.0000 
     31 CA        -28.1720   -0.8780  -18.2440 C.3       2 GLC5        0.0000 
     32 CA        -27.0360    0.3990  -17.5930 C.3       6 GLL5        0.0000 
     33 CA        -29.3080   -2.1550  -18.8950 C.3       4 GLP5        0.0000 
     34 CA        -28.5465    1.2650  -17.9830 C.3       2 GLC5        0.0000 
     35 CA        -25.8745    5.8615  -20.1860 C.3       2 GLC5        0.0000 
     36 CA        -25.9610    7.3770  -18.8310 C.3       6 GLL5        0.0000 
     37 CA        -25.7880    4.3460  -21.5410 C.3       4 GLP5        0.0000 
     38 CA        -25.2145    8.2350  -20.2560 C.3       2 GLC5        0.0000 
     39 CA        -24.4680    9.0930  -21.6810 C.3       4 GLP5        0.0000 
     40 CA        -25.3345   10.2085  -15.6070 C.3       2 GLC5        0.0000 
     41 CA        -24.8960    8.7040  -17.0590 C.3       6 GLL5        0.0000 
     42 CA        -25.7730   11.7130  -14.1550 C.3       4 GLP5        0.0000 
     43 CA        -23.9380    8.7890  -19.5440 C.3       2 GLC5        0.0000 
     44 CA        -23.4080    8.4850  -17.4070 C.3       6 GLL5        0.0000 
     45 CA        -20.7430   10.2045  -17.8185 C.3       2 GLC5        0.0000 
     46 CA        -22.5410    9.7000  -17.0830 C.3       6 GLL5        0.0000 
     47 CA        -18.9450   10.7090  -18.5540 C.3       4 GLP5        0.0000 
     48 CA        -20.2460    7.5155  -15.8015 C.3       2 GLC5        0.0000 
     49 CA        -21.1250    9.0270  -15.0090 C.3       6 GLL5        0.0000 
     50 CA        -19.3670    6.0040  -16.5940 C.3       4 GLP5        0.0000 
     51 CA        -20.0350    9.8680  -16.7815 C.3       2 GLC5        0.0000 
     52 CA        -19.0400    8.4680  -14.8090 C.3       2 GLC5        0.0000 
     53 CA        -16.9550    7.9090  -14.6090 C.3       4 GLP5        0.0000 
     54 CA        -20.7810   12.2640  -14.7405 C.3       2 GLC5        0.0000 
     55 CA        -22.1430   11.3210  -15.2400 C.3       6 GLL5        0.0000 
     56 CA        -19.4190   13.2070  -14.2410 C.3       4 GLP5        0.0000 
     57 O         -23.2995   -4.0495  -16.6480 O.2       1 ALC1        0.0000 
     58 O         -24.3190   -3.7730  -17.6010 O.2       5 ALL1        0.0000 
     59 O         -22.2800   -4.3260  -15.6950 O.2       3 ALP1        0.0000 
     60 CA        -25.6298   -0.5625  -20.5420 C.3       2 GLC5        0.0000 
     61 CA        -26.4450   -0.2010  -22.2230 C.3       4 GLP5        0.0000 
     62 CA        -22.7420   -1.6110  -16.5340 C.3       2 GLC5        0.0000 
     63 CA        -24.2670   -2.3370  -17.5530 C.3       6 GLL5        0.0000 
     64 CA        -20.7860   -1.1350  -16.1020 C.3       4 GLP5        0.0000 
     65 CA        -22.7643   -0.5887  -15.9390 C.3       2 GLC5        0.0000 
     66 CA        -25.0050   -0.3280  -16.3310 C.3       6 GLL5        0.0000 
     67 CA        -25.6737    3.9527  -19.9825 C.3       2 GLC5        0.0000 
     68 CA        -26.1237    9.8716  -17.9405 C.3       2 GLC5        0.0000 
     69 CA        -26.8620   11.6810  -18.3170 C.3       4 GLP5        0.0000 
     70 CA        -22.7225    8.8680  -13.6208 C.3       2 GLC5        0.0000 
     71 CA        -22.2950    9.8490  -15.5740 C.3       6 GLL5        0.0000 
     72 CA        -23.9960   11.1490  -14.7810 C.3       2 GLC5        0.0000 
@<TRIPOS>BOND
@<TRIPOS>SUBSTRUCTURE
     1 ALC1       57 GROUP        1 X    ALC  0     ROOT ALC X 1
     2 GLC5        1 GROUP        1 X    GLC  0     **** GLC X 6
     3 ALP1       59 GROUP        1 Y    ALP  0     ROOT ALP Y 8
     4 GLP5        3 GROUP        1 Y    GLP  0     **** GLP Y 13
     5 ALL1       58 GROUP        1 Z    ALL  0     ROOT ALL Z 15
     6 GLL5        2 GROUP        1 Z    GLL  0     **** GLL Z 20
@<TRIPOS>SET

