#    Name: 3kyt_HC2_1_ligand
#    Modification time : Mon Mar 24 20:42:16 2014

@<TRIPOS>MOLECULE
3kyt_HC2_1_ligand
   75    78     1     0     0
SMALL
NO_CHARGES


@<TRIPOS>ATOM
      1 C1        -24.9340   -0.1580  -18.8360 C.3       1 HC21001     0.0000 
      2 C2        -24.6950   -1.6900  -18.8860 C.3       1 HC21001     0.0000 
      3 C3        -24.2670   -2.3370  -17.5530 C.3       1 HC21001     0.0000 
      4 C4        -25.1290   -1.8370  -16.3790 C.3       1 HC21001     0.0000 
      5 C5        -25.0050   -0.3280  -16.3310 C.2       1 HC21001     0.0000 
      6 C6        -24.4800    0.2430  -15.2210 C.2       1 HC21001     0.0000 
      7 C7        -24.6020    1.7330  -14.8760 C.3       1 HC21001     0.0000 
      8 C8        -25.3470    2.5150  -15.9540 C.3       1 HC21001     0.0000 
      9 C9        -25.0450    1.9330  -17.3660 C.3       1 HC21001     0.0000 
     10 C10       -25.4940    0.4680  -17.5380 C.3       1 HC21001     0.0000 
     11 C11       -25.6430    2.8000  -18.4930 C.3       1 HC21001     0.0000 
     12 C12       -25.4760    4.3190  -18.3550 C.3       1 HC21001     0.0000 
     13 C13       -25.8040    4.8370  -16.9400 C.3       1 HC21001     0.0000 
     14 C14       -24.9930    4.0050  -15.9550 C.3       1 HC21001     0.0000 
     15 C15       -24.9540    4.8020  -14.6480 C.3       1 HC21001     0.0000 
     16 C16       -24.9720    6.2440  -15.1370 C.3       1 HC21001     0.0000 
     17 C17       -25.1590    6.1910  -16.6690 C.3       1 HC21001     0.0000 
     18 C18       -27.3130    4.7320  -16.6730 C.3       1 HC21001     0.0000 
     19 C19       -27.0360    0.3990  -17.5930 C.3       1 HC21001     0.0000 
     20 C20       -25.7890    7.4640  -17.3070 C.3       1 HC21001     0.0000 
     21 C21       -25.9610    7.3770  -18.8310 C.3       1 HC21001     0.0000 
     22 C22       -24.8960    8.7040  -17.0590 C.3       1 HC21001     0.0000 
     23 C23       -23.4080    8.4850  -17.4070 C.3       1 HC21001     0.0000 
     24 C24       -22.5410    9.7000  -17.0830 C.3       1 HC21001     0.0000 
     25 C25       -22.2950    9.8490  -15.5740 C.3       1 HC21001     0.0000 
     26 C26       -21.1250    9.0270  -15.0090 C.3       1 HC21001     0.0000 
     27 C27       -22.1430   11.3210  -15.2400 C.3       1 HC21001     0.0000 
     28 O1        -24.3190   -3.7730  -17.6010 O.3       1 HC21001     0.0000 
     29 O2        -27.0560    7.6930  -16.6400 O.3       1 HC21001     0.0000 
     30 H         -25.6186    0.1141  -19.6802 H         1 HC21001     0.0000 
     31 H         -23.9674    0.3521  -19.0827 H         1 HC21001     0.0000 
     32 H         -23.9217   -1.8983  -19.6471 H         1 HC21001     0.0000 
     33 H         -25.6227   -2.1771  -19.2362 H         1 HC21001     0.0000 
     34 H         -23.2370   -2.0080  -17.3470 H         1 HC21001     0.0000 
     35 H         -24.7603   -2.2667  -15.4648 H         1 HC21001     0.0000 
     36 H         -26.1527   -2.1178  -16.5506 H         1 HC21001     0.0000 
     37 H         -23.9453   -0.3049  -14.5102 H         1 HC21001     0.0000 
     38 H         -23.5990    2.1525  -14.7538 H         1 HC21001     0.0000 
     39 H         -25.1324    1.8349  -13.9245 H         1 HC21001     0.0000 
     40 H         -26.4161    2.4173  -15.7909 H         1 HC21001     0.0000 
     41 H         -23.9452    1.9530  -17.5005 H         1 HC21001     0.0000 
     42 H         -26.7274    2.5672  -18.5759 H         1 HC21001     0.0000 
     43 H         -25.1932    2.4787  -19.4581 H         1 HC21001     0.0000 
     44 H         -26.1337    4.8191  -19.0754 H         1 HC21001     0.0000 
     45 H         -24.4423    4.5899  -18.5994 H         1 HC21001     0.0000 
     46 H         -23.9171    4.0846  -16.3717 H         1 HC21001     0.0000 
     47 H         -24.0513    4.6041  -14.1370 H         1 HC21001     0.0000 
     48 H         -25.8225    4.6006  -14.0820 H         1 HC21001     0.0000 
     49 H         -24.0386    6.7181  -14.9137 H         1 HC21001     0.0000 
     50 H         -25.7970    6.7684  -14.7008 H         1 HC21001     0.0000 
     51 H         -24.0988    6.1040  -17.0708 H         1 HC21001     0.0000 
     52 H         -24.9753    8.9893  -16.0012 H         1 HC21001     0.0000 
     53 H         -25.2814    9.5410  -17.6571 H         1 HC21001     0.0000 
     54 H         -23.3275    8.2567  -18.4752 H         1 HC21001     0.0000 
     55 H         -23.0408    7.6180  -16.8474 H         1 HC21001     0.0000 
     56 H         -23.0332   10.6036  -17.4530 H         1 HC21001     0.0000 
     57 H         -21.5779    9.6020  -17.5913 H         1 HC21001     0.0000 
     58 H         -23.2216    9.5065  -15.0602 H         1 HC21001     0.0000 
     59 H         -27.6366    3.7880  -16.7367 H         1 HC21001     0.0000 
     60 H         -27.5526    5.0630  -15.7603 H         1 HC21001     0.0000 
     61 H         -27.8444    5.2689  -17.3283 H         1 HC21001     0.0000 
     62 H         -27.4025    0.9014  -18.3761 H         1 HC21001     0.0000 
     63 H         -27.3631   -0.5429  -17.6698 H         1 HC21001     0.0000 
     64 H         -27.4547    0.7887  -16.7727 H         1 HC21001     0.0000 
     65 H         -25.0865    7.2398  -19.2962 H         1 HC21001     0.0000 
     66 H         -26.5557    6.6176  -19.0949 H         1 HC21001     0.0000 
     67 H         -26.3656    8.2105  -19.2073 H         1 HC21001     0.0000 
     68 H         -20.2560    9.2750  -15.4372 H         1 HC21001     0.0000 
     69 H         -21.0162    9.1639  -14.0244 H         1 HC21001     0.0000 
     70 H         -21.2549    8.0464  -15.1560 H         1 HC21001     0.0000 
     71 H         -21.9769   11.4653  -14.2645 H         1 HC21001     0.0000 
     72 H         -21.3780   11.7364  -15.7322 H         1 HC21001     0.0000 
     73 H         -22.9625   11.8424  -15.4780 H         1 HC21001     0.0000 
     74 H         -23.3834   -4.0721  -17.4137 H         1 HC21001     0.0000 
     75 H         -26.4786    8.2704  -16.0626 H         1 HC21001     0.0000 
@<TRIPOS>BOND
     1    2    1 1    
     2   10    1 1    
     3   30    1 1    
     4   31    1 1    
     5    3    2 1    
     6   32    2 1    
     7   33    2 1    
     8    4    3 1    
     9   28    3 1    
    10   34    3 1    
    11    5    4 1    
    12   35    4 1    
    13   36    4 1    
    14    6    5 2    
    15   10    5 1    
    16    7    6 1    
    17   37    6 1    
    18    8    7 1    
    19   38    7 1    
    20   39    7 1    
    21    9    8 1    
    22   14    8 1    
    23   40    8 1    
    24   10    9 1    
    25   11    9 1    
    26   41    9 1    
    27   19   10 1    
    28   12   11 1    
    29   42   11 1    
    30   43   11 1    
    31   13   12 1    
    32   44   12 1    
    33   45   12 1    
    34   14   13 1    
    35   17   13 1    
    36   18   13 1    
    37   15   14 1    
    38   46   14 1    
    39   16   15 1    
    40   47   15 1    
    41   48   15 1    
    42   17   16 1    
    43   49   16 1    
    44   50   16 1    
    45   20   17 1    
    46   51   17 1    
    47   59   18 1    
    48   60   18 1    
    49   61   18 1    
    50   62   19 1    
    51   63   19 1    
    52   64   19 1    
    53   21   20 1    
    54   22   20 1    
    55   29   20 1    
    56   65   21 1    
    57   66   21 1    
    58   67   21 1    
    59   23   22 1    
    60   52   22 1    
    61   53   22 1    
    62   24   23 1    
    63   54   23 1    
    64   55   23 1    
    65   25   24 1    
    66   56   24 1    
    67   57   24 1    
    68   26   25 1    
    69   27   25 1    
    70   58   25 1    
    71   68   26 1    
    72   69   26 1    
    73   70   26 1    
    74   71   27 1    
    75   72   27 1    
    76   73   27 1    
    77   74   28 1    
    78   75   29 1    
@<TRIPOS>SUBSTRUCTURE
     1 HC21001     1 GROUP   
@<TRIPOS>SET

