#    Name: 2ji5_UTP_2_INTS_M
#    Modification time : Tue Mar 25 20:48:20 2014

@<TRIPOS>MOLECULE
2ji5_UTP_2_INTS_M
   47     0    12     0     0
SMALL
NO_CHARGES


@<TRIPOS>ATOM
      1 N          25.6380   86.8340   49.6750 N.am      2 SEC2        0.0000 
      2 N          25.4680   85.4980   49.1640 N.am     10 SEL2        0.0000 
      3 N          25.8080   88.1700   50.1860 N.am      6 SEP2        0.0000 
      4 N          25.0420   86.5380   48.4255 N.am      2 SEC2        0.0000 
      5 N          24.6160   87.5780   47.6870 N.am      6 SEP2        0.0000 
      6 N          25.9620   83.4490   46.4060 N.am      2 SEC2        0.0000 
      7 N          25.3830   83.4180   47.6610 N.am     10 SEL2        0.0000 
      8 N          26.5410   83.4800   45.1510 N.am      6 SEP2        0.0000 
      9 NZ         22.9825   77.5220   47.6985 N.4       3 LYC4        0.0000 
     10 NZ         23.1620   79.1200   48.1890 N.4      11 LYL4        0.0000 
     11 NZ         22.8030   75.9240   47.2080 N.4       7 LYP4        0.0000 
     12 CA         27.6055   82.4050   46.9515 C.3       4 GLC5        0.0000 
     13 CA         27.8380   82.4800   49.0850 C.3      12 GLL5        0.0000 
     14 CA         27.3730   82.3300   44.8180 C.3       8 GLP5        0.0000 
     15 CA         28.6045   81.0160   47.7840 C.3       4 GLC5        0.0000 
     16 CA         29.3710   79.5520   46.4830 C.3       8 GLP5        0.0000 
     17 CA         28.6305   83.6775   47.6220 C.3       4 GLC5        0.0000 
     18 CA         29.4230   84.8750   46.1590 C.3       8 GLP5        0.0000 
     19 CA         30.5355   81.8530   49.4930 C.3       4 GLC5        0.0000 
     20 CA         28.7600   82.1490   50.2260 C.3      12 GLL5        0.0000 
     21 CA         32.3110   81.5570   48.7600 C.3       8 GLP5        0.0000 
     22 CA         31.7700   83.0450   52.6050 C.3       4 GLC5        0.0000 
     23 CA         30.0440   83.6200   51.5890 C.3      12 GLL5        0.0000 
     24 CA         33.4960   82.4700   53.6210 C.3       8 GLP5        0.0000 
     25 CA         31.1775   82.5885   50.1745 C.3       4 GLC5        0.0000 
     26 CA         31.6480   85.0225   50.9570 C.3       4 GLC5        0.0000 
     27 CA         33.2520   86.4250   50.3250 C.3       8 GLP5        0.0000 
     28 CA         29.4070   85.3530   48.3435 C.3       4 GLC5        0.0000 
     29 CA         29.3910   85.8310   50.5280 C.3      12 GLL5        0.0000 
     30 O          31.2570   87.9565   53.4400 O.2       1 ALC1        0.0000 
     31 O          30.6470   87.1880   52.5210 O.2       9 ALL1        0.0000 
     32 O          31.8670   88.7250   54.3590 O.2       5 ALP1        0.0000 
     33 N          31.0295   89.8825   50.7620 N.am      2 SEC2        0.0000 
     34 N          30.0580   89.1880   51.5880 N.am     10 SEL2        0.0000 
     35 N          32.0010   90.5770   49.9360 N.am      6 SEP2        0.0000 
     36 N          31.5640   89.8570   52.1055 N.am      2 SEC2        0.0000 
     37 N          33.0700   90.5260   52.6230 N.am      6 SEP2        0.0000 
     38 CA         28.1575   87.6435   48.9005 C.3       4 GLC5        0.0000 
     39 CA         29.3580   87.1810   50.4740 C.3      12 GLL5        0.0000 
     40 CA         26.9570   88.1060   47.3270 C.3       8 GLP5        0.0000 
     41 CA         29.5355   80.3928   50.8987 C.3       4 GLC5        0.0000 
     42 CA         30.6430   78.6480   50.8850 C.3       8 GLP5        0.0000 
     43 CA         31.3133   86.4655   50.4130 C.3       4 GLC5        0.0000 
     44 CA         30.0802   87.9230   49.3530 C.3       4 GLC5        0.0000 
     45 CA         30.7860   89.3400   48.2050 C.3       8 GLP5        0.0000 
     46 CA         27.7482   86.9095   51.4620 C.3       4 GLC5        0.0000 
     47 CA         26.1220   87.3130   52.4230 C.3       8 GLP5        0.0000 
@<TRIPOS>BOND
@<TRIPOS>SUBSTRUCTURE
     1 ALC1       30 GROUP        1 X    ALC  0     ROOT ALC X 1
     2 SEC2        1 GROUP        1 X    SEC  0     **** SEC X 2
     3 LYC4        9 GROUP        1 X    LYC  0     **** LYC X 4
     4 GLC5       12 GROUP        1 X    GLC  0     **** GLC X 6
     5 ALP1       32 GROUP        1 Y    ALP  0     ROOT ALP Y 8
     6 SEP2        3 GROUP        1 Y    SEP  0     **** SEP Y 9
     7 LYP4       11 GROUP        1 Y    LYP  0     **** LYP Y 11
     8 GLP5       14 GROUP        1 Y    GLP  0     **** GLP Y 13
     9 ALL1       31 GROUP        1 Z    ALL  0     ROOT ALL Z 15
    10 SEL2        2 GROUP        1 Z    SEL  0     **** SEL Z 16
    11 LYL4       10 GROUP        1 Z    LYL  0     **** LYL Z 18
    12 GLL5       13 GROUP        1 Z    GLL  0     **** GLL Z 20
@<TRIPOS>SET

