#    Name: 2ji5_UTP_2_ligand
#    Modification time : Tue Mar 25 20:48:20 2014

@<TRIPOS>MOLECULE
2ji5_UTP_2_ligand
   40    41     1     0     0
SMALL
NO_CHARGES


@<TRIPOS>ATOM
      1 PA         25.7680   84.0660   48.9410 P.3       1 UTP2000     0.0000 
      2 O1A        25.4680   85.4980   49.1640 O.co2     1 UTP2000     0.0000 
      3 O2A        25.3830   83.4180   47.6610 O.co2     1 UTP2000     0.0000 
      4 O3A        25.1610   83.1730   50.1620 O.3       1 UTP2000     0.0000 
      5 O5'        27.3010   83.7860   49.2230 O.3       1 UTP2000     0.0000 
      6 PB         23.7280   82.5420   50.4460 P.3       1 UTP2000     0.0000 
      7 O1B        22.8300   83.3920   50.8600 O.co2     1 UTP2000     0.0000 
      8 O2B        24.2250   81.5130   51.6850 O.co2     1 UTP2000     0.0000 
      9 O3B        23.6950   81.3560   49.3610 O.3       1 UTP2000     0.0000 
     10 PG         22.5770   80.2590   49.0170 P.3       1 UTP2000     0.0000 
     11 O1G        23.1620   79.1200   48.1890 O.co2     1 UTP2000     0.0000 
     12 O2G        22.6110   79.5670   50.3510 O.co2     1 UTP2000     0.0000 
     13 O3G        21.1840   80.6970   48.5010 O.co2     1 UTP2000     0.0000 
     14 C5'        27.8380   82.4800   49.0850 C.3       1 UTP2000     0.0000 
     15 C4'        28.7600   82.1490   50.2260 C.3       1 UTP2000     0.0000 
     16 O4'        29.8630   83.0940   50.2870 O.3       1 UTP2000     0.0000 
     17 C1'        30.0440   83.6200   51.5890 C.3       1 UTP2000     0.0000 
     18 C2'        28.9160   83.0690   52.4760 C.3       1 UTP2000     0.0000 
     19 O2'        29.4590   82.4360   53.6070 O.3       1 UTP2000     0.0000 
     20 C3'        28.0960   82.1260   51.5990 C.3       1 UTP2000     0.0000 
     21 O3'        28.0940   80.7960   52.1200 O.3       1 UTP2000     0.0000 
     22 N1         30.0370   85.1130   51.5540 N.am      1 UTP2000     0.0000 
     23 C6         29.3910   85.8310   50.5280 C.2       1 UTP2000     0.0000 
     24 C2         30.7030   85.8000   52.6070 C.2       1 UTP2000     0.0000 
     25 O2         31.2770   85.2400   53.5220 O.2       1 UTP2000     0.0000 
     26 N3         30.6470   87.1880   52.5210 N.am      1 UTP2000     0.0000 
     27 C4         30.0160   87.9540   51.5210 C.2       1 UTP2000     0.0000 
     28 O4         30.0580   89.1880   51.5880 O.2       1 UTP2000     0.0000 
     29 C5         29.3580   87.1810   50.4740 C.2       1 UTP2000     0.0000 
     30 H          28.4074   82.3746   48.1433 H         1 UTP2000     0.0000 
     31 H          27.0398   81.7156   49.0573 H         1 UTP2000     0.0000 
     32 H          29.1807   81.1435   50.0547 H         1 UTP2000     0.0000 
     33 H          30.9814   83.2767   52.0133 H         1 UTP2000     0.0000 
     34 H          28.2845   83.9116   52.7322 H         1 UTP2000     0.0000 
     35 H          27.1127   82.5325   51.4968 H         1 UTP2000     0.0000 
     36 H          28.9161   85.2644   49.7750 H         1 UTP2000     0.0000 
     37 H          31.1380   87.7433   53.3016 H         1 UTP2000     0.0000 
     38 H          28.8910   87.6987   49.7297 H         1 UTP2000     0.0000 
     39 H          30.3932   82.7859   53.6756 H         1 UTP2000     0.0000 
     40 H          28.5869   80.8574   52.9878 H         1 UTP2000     0.0000 
@<TRIPOS>BOND
     1    2    1 ar   
     2    3    1 ar   
     3    4    1 1    
     4    5    1 1    
     5    6    4 1    
     6   14    5 1    
     7    7    6 ar   
     8    8    6 ar   
     9    9    6 1    
    10   10    9 1    
    11   11   10 ar   
    12   12   10 ar   
    13   13   10 ar   
    14   15   14 1    
    15   30   14 1    
    16   31   14 1    
    17   16   15 1    
    18   20   15 1    
    19   32   15 1    
    20   17   16 1    
    21   18   17 1    
    22   22   17 1    
    23   33   17 1    
    24   19   18 1    
    25   20   18 1    
    26   34   18 1    
    27   39   19 1    
    28   21   20 1    
    29   35   20 1    
    30   40   21 1    
    31   23   22 1    
    32   24   22 1    
    33   29   23 2    
    34   36   23 1    
    35   25   24 2    
    36   26   24 1    
    37   27   26 1    
    38   37   26 1    
    39   28   27 2    
    40   29   27 1    
    41   38   29 1    
@<TRIPOS>SUBSTRUCTURE
     1 UTP2000     1 GROUP   
@<TRIPOS>SET

