#    Name: 3ehy_TBL_1_INTS_M
#    Modification time : Tue Mar 25 01:53:04 2014

@<TRIPOS>MOLECULE
3ehy_TBL_1_INTS_M
   48     0     9     0     0
SMALL
NO_CHARGES


@<TRIPOS>ATOM
      1 N           1.5265   -6.2960   -6.0265 N.am      1 SEC2        0.0000 
      2 N           0.3440   -5.6660   -5.6630 N.am      7 SEL2        0.0000 
      3 N           2.7090   -6.9260   -6.3900 N.am      4 SEP2        0.0000 
      4 N           1.4820   -5.1535   -6.8615 N.am      1 SEC2        0.0000 
      5 N           2.6200   -4.6410   -8.0600 N.am      4 SEP2        0.0000 
      6 Zn         -2.5875   -2.8045   -4.3370 Zn        2 ZIC7        0.0000 
      7 Zn         -0.8580   -4.2810   -3.9320 Zn        8 ZIL7        0.0000 
      8 Zn         -4.3170   -1.3280   -4.7420 Zn        5 ZIP7        0.0000 
      9 Zn          3.4415   -0.9515   -5.7495 Zn        2 ZIC7        0.0000 
     10 Zn          7.7410    2.3780   -7.5670 Zn        5 ZIP7        0.0000 
     11 CA          2.0225   -3.3025   -3.9615 C.3       3 GLC5        0.0000 
     12 CA          0.2790   -2.1440   -3.5090 C.3       9 GLL5        0.0000 
     13 CA          3.7660   -4.4610   -4.4140 C.3       6 GLP5        0.0000 
     14 CA          1.5235   -0.8755   -4.7080 C.3       3 GLC5        0.0000 
     15 CA          2.7680    0.3930   -5.9070 C.3       6 GLP5        0.0000 
     16 Zn         -3.0875   -1.4230   -5.3075 Zn        2 ZIC7        0.0000 
     17 Zn         -1.8580   -1.5180   -5.8730 Zn        8 ZIL7        0.0000 
     18 N          -1.5415   -1.8125   -7.1120 N.am      1 SEC2        0.0000 
     19 N          -1.8580   -1.5180   -5.8730 N.am      7 SEL2        0.0000 
     20 N          -1.2250   -2.1070   -8.3510 N.am      4 SEP2        0.0000 
     21 Zn         -3.5885   -1.8290   -4.4220 Zn        2 ZIC7        0.0000 
     22 Zn         -2.8600   -2.3300   -4.1020 Zn        8 ZIL7        0.0000 
     23 CA         -3.9335   -7.9035   -7.6145 C.3       3 GLC5        0.0000 
     24 CA         -4.2010   -5.8490   -7.8280 C.3       9 GLL5        0.0000 
     25 CA         -3.6660   -9.9580   -7.4010 C.3       6 GLP5        0.0000 
     26 CA         -3.3440   -3.7880   -7.4630 C.3       3 GLC5        0.0000 
     27 CA         -1.8730   -5.4200   -7.3570 C.3       9 GLL5        0.0000 
     28 CA         -4.8150   -2.1560   -7.5690 C.3       6 GLP5        0.0000 
     29 CA         -4.1880   -6.1890  -11.2750 C.3       3 GLC5        0.0000 
     30 CA         -5.3380   -6.7060   -9.8690 C.3       9 GLL5        0.0000 
     31 CA         -3.0380   -5.6720  -12.6810 C.3       6 GLP5        0.0000 
     32 CA         -5.5635   -4.9195   -9.8260 C.3       3 GLC5        0.0000 
     33 CA         -5.7890   -3.1330   -9.7830 C.3       6 GLP5        0.0000 
     34 CA         -4.4905   -8.2700   -9.9105 C.3       3 GLC5        0.0000 
     35 CA         -3.6430   -9.8340   -9.9520 C.3       6 GLP5        0.0000 
     36 CA         -4.6655   -7.1670   -4.5672 C.3       3 GLC5        0.0000 
     37 CA         -4.4230   -6.0050   -6.4540 C.3       9 GLL5        0.0000 
     38 CA         -5.4400   -8.3650   -3.1390 C.3       6 GLP5        0.0000 
     39 CA         -4.4515   -7.9315   -6.3152 C.3       3 GLC5        0.0000 
     40 CA         -3.3590   -5.9330   -5.5370 C.3       9 GLL5        0.0000 
     41 CA         -5.0120   -9.8940   -6.6350 C.3       6 GLP5        0.0000 
     42 CA         -1.4183   -7.3280   -8.0075 C.3       3 GLC5        0.0000 
     43 CA         -2.9360   -5.5380   -8.2930 C.3       9 GLL5        0.0000 
     44 CA         -0.4320   -9.1770   -8.1900 C.3       6 GLP5        0.0000 
     45 CA         -1.5497   -5.5105   -9.7550 C.3       3 GLC5        0.0000 
     46 CA         -0.6950   -5.5420  -11.6850 C.3       6 GLP5        0.0000 
     47 CA         -4.6695   -4.2968   -8.0120 C.3       3 GLC5        0.0000 
     48 CA         -5.7150   -2.8610   -8.3070 C.3       6 GLP5        0.0000 
@<TRIPOS>BOND
@<TRIPOS>SUBSTRUCTURE
     1 SEC2        1 GROUP        1 X    SEC  0     ROOT SEC X 2
     2 ZIC7        6 GROUP        1 X    ZIC  0     **** ZIC X 5
     3 GLC5       11 GROUP        1 X    GLC  0     **** GLC X 6
     4 SEP2        3 GROUP        1 Y    SEP  0     ROOT SEP Y 9
     5 ZIP7        8 GROUP        1 Y    ZIP  0     **** ZIP Y 12
     6 GLP5       13 GROUP        1 Y    GLP  0     **** GLP Y 13
     7 SEL2        2 GROUP        1 Z    SEL  0     ROOT SEL Z 16
     8 ZIL7        7 GROUP        1 Z    ZIL  0     **** ZIL Z 19
     9 GLL5       12 GROUP        1 Z    GLL  0     **** GLL Z 20
@<TRIPOS>SET

