#    Name: 3ehy_TBL_1_ligand
#    Modification time : Tue Mar 25 01:53:04 2014

@<TRIPOS>MOLECULE
3ehy_TBL_1_ligand
   29    29     1     0     0
SMALL
NO_CHARGES


@<TRIPOS>ATOM
      1 O4         -1.0810   -6.6970   -4.0090 O.2       1 TBL1        0.0000 
      2 S1         -0.8610   -5.5850   -4.8790 S.o2      1 TBL1        0.0000 
      3 O3          0.3440   -5.6660   -5.6630 O.2       1 TBL1        0.0000 
      4 N1         -0.8580   -4.2810   -3.9320 N.pl3     1 TBL1        0.0000 
      5 C2         -0.5330   -2.9680   -4.5110 C.3       1 TBL1        0.0000 
      6 C10         0.2790   -2.1440   -3.5090 C.3       1 TBL1        0.0000 
      7 C1         -1.7860   -2.2190   -4.8830 C.2       1 TBL1        0.0000 
      8 O2         -1.8580   -1.5180   -5.8730 O.co2     1 TBL1        0.0000 
      9 O1         -2.8600   -2.3300   -4.1020 O.co2     1 TBL1        0.0000 
     10 C3         -2.0710   -5.6230   -5.9680 C.ar      1 TBL1        0.0000 
     11 C4         -3.3590   -5.9330   -5.5370 C.ar      1 TBL1        0.0000 
     12 C5         -4.4230   -6.0050   -6.4540 C.ar      1 TBL1        0.0000 
     13 C6         -4.2010   -5.8490   -7.8280 C.ar      1 TBL1        0.0000 
     14 C8         -2.9360   -5.5380   -8.2930 C.ar      1 TBL1        0.0000 
     15 C9         -1.8730   -5.4200   -7.3570 C.ar      1 TBL1        0.0000 
     16 O5         -5.2910   -5.9330   -8.6790 O.3       1 TBL1        0.0000 
     17 C7         -5.3380   -6.7060   -9.8690 C.3       1 TBL1        0.0000 
     18 H          -1.0776   -4.4246   -2.9925 H         1 TBL1        0.0000 
     19 H           0.0728   -3.0961   -5.4000 H         1 TBL1        0.0000 
     20 H          -3.5397   -6.1120   -4.5394 H         1 TBL1        0.0000 
     21 H          -5.3785   -6.1750   -6.1074 H         1 TBL1        0.0000 
     22 H          -2.7522   -5.3933   -9.2816 H         1 TBL1        0.0000 
     23 H          -0.9294   -5.1793   -7.7003 H         1 TBL1        0.0000 
     24 H           1.1383   -2.5948   -3.2674 H         1 TBL1        0.0000 
     25 H           0.5132   -1.2425   -3.8729 H         1 TBL1        0.0000 
     26 H          -0.2233   -1.9949   -2.6573 H         1 TBL1        0.0000 
     27 H          -4.6351   -6.4250  -10.5224 H         1 TBL1        0.0000 
     28 H          -5.1959   -7.6788   -9.6858 H         1 TBL1        0.0000 
     29 H          -6.2199   -6.6208  -10.3326 H         1 TBL1        0.0000 
@<TRIPOS>BOND
     1    2    1 2    
     2    3    2 2    
     3    4    2 1    
     4   10    2 1    
     5    5    4 1    
     6   18    4 1    
     7    6    5 1    
     8    7    5 1    
     9   19    5 1    
    10   24    6 1    
    11   25    6 1    
    12   26    6 1    
    13    8    7 ar   
    14    9    7 ar   
    15   11   10 ar   
    16   15   10 ar   
    17   12   11 ar   
    18   20   11 1    
    19   13   12 ar   
    20   21   12 1    
    21   14   13 ar   
    22   16   13 1    
    23   15   14 ar   
    24   22   14 1    
    25   23   15 1    
    26   17   16 1    
    27   27   17 1    
    28   28   17 1    
    29   29   17 1    
@<TRIPOS>SUBSTRUCTURE
     1 TBL1        1 GROUP   
@<TRIPOS>SET

