#    Name: 1iep_STI_1_INTS_M
#    Modification time : Tue Mar 25 06:59:04 2014

@<TRIPOS>MOLECULE
1iep_STI_1_INTS_M
  106     0     9     0     0
SMALL
NO_CHARGES


@<TRIPOS>ATOM
      1 CA         10.9205   59.0755    9.8250 C.3       3 GLC5        0.0000 
      2 CA         12.0310   59.5910   11.5250 C.3       9 GLL5        0.0000 
      3 CA          9.8100   58.5600    8.1250 C.3       6 GLP5        0.0000 
      4 N           9.7520   59.8690   10.6410 N.am      2 SEC2        0.0000 
      5 N          10.9610   60.4250   11.2160 N.am      8 SEL2        0.0000 
      6 N           8.5430   59.3130   10.0660 N.am      5 SEP2        0.0000 
      7 CA          9.0910   60.6940   11.2515 C.3       3 GLC5        0.0000 
      8 CA         10.8580   61.7340   11.7100 C.3       9 GLL5        0.0000 
      9 CA          7.3240   59.6540   10.7930 C.3       6 GLP5        0.0000 
     10 CA         14.8250   57.5420   10.5890 C.3       3 GLC5        0.0000 
     11 CA         15.0670   56.9270   12.5590 C.3       9 GLL5        0.0000 
     12 CA         14.5830   58.1570    8.6190 C.3       6 GLP5        0.0000 
     13 O          14.1570   55.0740   10.9925 O.2       1 ALC1        0.0000 
     14 O          14.8520   55.6270   12.1280 O.2       7 ALL1        0.0000 
     15 O          13.4620   54.5210    9.8570 O.2       4 ALP1        0.0000 
     16 CA         19.6580   53.6255   12.7655 C.3       3 GLC5        0.0000 
     17 CA         17.7740   52.5970   12.7860 C.3       9 GLL5        0.0000 
     18 CA         21.5420   54.6540   12.7450 C.3       6 GLP5        0.0000 
     19 CA         13.8435   52.8990   13.9380 C.3       3 GLC5        0.0000 
     20 CA         15.6980   53.7720   13.4360 C.3       9 GLL5        0.0000 
     21 CA         11.9890   52.0260   14.4400 C.3       6 GLP5        0.0000 
     22 O          18.0755   51.5825   14.9205 O.2       1 ALC1        0.0000 
     23 O          16.6000   51.8100   14.7980 O.2       7 ALL1        0.0000 
     24 O          19.5510   51.3550   15.0430 O.2       4 ALP1        0.0000 
     25 CA         16.2875   49.8465   14.7890 C.3       3 GLC5        0.0000 
     26 CA         15.5950   50.5580   16.6890 C.3       9 GLL5        0.0000 
     27 CA         16.9800   49.1350   12.8890 C.3       6 GLP5        0.0000 
     28 CA         13.3965   51.8575   17.9110 C.3       3 GLC5        0.0000 
     29 CA         14.4230   50.2680   17.5190 C.3       9 GLL5        0.0000 
     30 CA         12.3700   53.4470   18.3030 C.3       6 GLP5        0.0000 
     31 CA         17.1335   46.4265   17.5075 C.3       3 GLC5        0.0000 
     32 CA         16.7470   48.5680   17.6080 C.3       9 GLL5        0.0000 
     33 CA         17.5200   44.2850   17.4070 C.3       6 GLP5        0.0000 
     34 CA         16.6080   45.6575   18.3875 C.3       3 GLC5        0.0000 
     35 CA         15.6960   47.0300   19.3680 C.3       9 GLL5        0.0000 
     36 CA         14.3675   46.2150   18.0990 C.3       3 GLC5        0.0000 
     37 CA         13.0390   45.4000   16.8300 C.3       6 GLP5        0.0000 
     38 CA         16.7800   50.1325   20.4960 C.3       3 GLC5        0.0000 
     39 CA         17.0970   48.1400   21.0700 C.3       9 GLL5        0.0000 
     40 CA         16.4630   52.1250   19.9220 C.3       6 GLP5        0.0000 
     41 O          17.3830   46.3185   23.6235 O.2       1 ALC1        0.0000 
     42 O          18.3370   46.7940   22.8210 O.2       7 ALL1        0.0000 
     43 O          16.4290   45.8430   24.4260 O.2       4 ALP1        0.0000 
     44 CA         20.1405   47.2205   25.3080 C.3       3 GLC5        0.0000 
     45 CA         19.5220   46.6550   23.6800 C.3       9 GLL5        0.0000 
     46 CA         20.7590   47.7860   26.9360 C.3       6 GLP5        0.0000 
     47 CA         17.1985   44.9715   19.2555 C.3       3 GLC5        0.0000 
     48 CA         16.8770   45.6580   21.1040 C.3       9 GLL5        0.0000 
     49 CA         16.2195   43.7390   20.8785 C.3       3 GLC5        0.0000 
     50 CA         15.5620   41.8200   20.6530 C.3       6 GLP5        0.0000 
     51 N          14.7785   53.0550   17.3640 N.am      2 SEC2        0.0000 
     52 N          14.7890   52.6120   15.9830 N.am      8 SEL2        0.0000 
     53 N          14.7680   53.4980   18.7450 N.am      5 SEP2        0.0000 
     54 CA         17.7150   57.4260   10.3215 C.3       3 GLC5        0.0000 
     55 CA         17.1480   55.4060   10.1540 C.3       9 GLL5        0.0000 
     56 CA         18.2820   59.4460   10.4890 C.3       6 GLP5        0.0000 
     57 CA         15.8655   56.7815    9.3865 C.3       3 GLC5        0.0000 
     58 CA         17.8025   56.1165    8.2840 C.3       3 GLC5        0.0000 
     59 CA         18.4570   56.8270    6.4140 C.3       6 GLP5        0.0000 
     60 CA         15.7860   53.8625   10.1510 C.3       3 GLC5        0.0000 
     61 CA         14.4240   52.3190   10.1480 C.3       6 GLP5        0.0000 
     62 CA         13.7677   61.7687   11.2860 C.3       3 GLC5        0.0000 
     63 CA         13.0020   61.4290   12.9100 C.3       9 GLL5        0.0000 
     64 CA         15.0950   61.6870    9.8320 C.3       6 GLP5        0.0000 
     65 CA         10.1728   62.8195   13.3845 C.3       3 GLC5        0.0000 
     66 CA         11.8790   62.2720   12.5700 C.3       9 GLL5        0.0000 
     67 CA          8.9770   63.6360   14.6290 C.3       6 GLP5        0.0000 
     68 CA         13.8295   60.7587   10.8953 C.3       3 GLC5        0.0000 
     69 CA         13.0970   60.0700   12.3920 C.3       9 GLL5        0.0000 
     70 CA         11.1256   60.7626   13.9750 C.3       3 GLC5        0.0000 
     71 CA         10.6020   59.7330   15.7250 C.3       6 GLP5        0.0000 
     72 CA         14.9652   60.5270   11.4398 C.3       3 GLC5        0.0000 
     73 CA         14.2380   59.1550   12.7120 C.3       9 GLL5        0.0000 
     74 CA         13.9920   58.8249   10.4771 C.3       3 GLC5        0.0000 
     75 CA         12.0305   58.5364   13.3906 C.3       3 GLC5        0.0000 
     76 CA         10.6600   57.5800   14.4460 C.3       6 GLP5        0.0000 
     77 CA         17.3073   60.4180   14.1250 C.3       3 GLC5        0.0000 
     78 CA         15.4330   59.5790   13.3830 C.3       9 GLL5        0.0000 
     79 CA         18.6840   61.7450   14.7510 C.3       6 GLP5        0.0000 
     80 CA         17.1063   59.2685   11.9940 C.3       3 GLC5        0.0000 
     81 CA         16.4280   58.6030   13.6150 C.3       9 GLL5        0.0000 
     82 CA         15.4050   53.4453   11.0027 C.3       3 GLC5        0.0000 
     83 CA         16.9500   54.5020   11.3930 C.3       9 GLL5        0.0000 
     84 CA         18.2137   51.8580   10.9095 C.3       3 GLC5        0.0000 
     85 CA         17.9150   53.4710   11.6480 C.3       9 GLL5        0.0000 
     86 CA         18.5830   50.6820    9.6020 C.3       6 GLP5        0.0000 
     87 CA         16.1343   52.6765   11.1825 C.3       3 GLC5        0.0000 
     88 CA         17.1030   50.8985   13.0630 C.3       3 GLC5        0.0000 
     89 CA         15.3060   52.7843   11.8550 C.3       3 GLC5        0.0000 
     90 CA         16.6780   52.7270   13.6880 C.3       9 GLL5        0.0000 
     91 CA         13.4990   51.2195   15.7720 C.3       3 GLC5        0.0000 
     92 CA         15.7360   51.2690   18.5130 C.3       3 GLC5        0.0000 
     93 CA         14.0252   47.0460   17.6255 C.3       3 GLC5        0.0000 
     94 CA         14.4230   49.1240   18.3960 C.3       9 GLL5        0.0000 
     95 CA         15.7373   50.4085   19.1715 C.3       3 GLC5        0.0000 
     96 CA         15.6000   48.2600   18.4460 C.3       9 GLL5        0.0000 
     97 CA         18.6180   49.1662   16.2865 C.3       3 GLC5        0.0000 
     98 CA         20.4870   49.2040   15.3950 C.3       6 GLP5        0.0000 
     99 CA         16.6400   48.3708   15.4410 C.3       3 GLC5        0.0000 
    100 CA         16.7510   49.6890   16.7480 C.3       9 GLL5        0.0000 
    101 CA         16.5310   47.6130   13.7040 C.3       6 GLP5        0.0000 
    102 CA         16.6060   50.6268   18.5500 C.3       3 GLC5        0.0000 
    103 CA         16.3855   48.1043   23.2273 C.3       3 GLC5        0.0000 
    104 CA         15.0350   48.1180   24.9450 C.3       6 GLP5        0.0000 
    105 CA         18.9871   55.0076   10.6421 C.3       3 GLC5        0.0000 
    106 CA         20.6840   55.3190   10.4470 C.3       6 GLP5        0.0000 
@<TRIPOS>BOND
@<TRIPOS>SUBSTRUCTURE
     1 ALC1       13 GROUP        1 X    ALC  0     ROOT ALC X 1
     2 SEC2        4 GROUP        1 X    SEC  0     **** SEC X 2
     3 GLC5        1 GROUP        1 X    GLC  0     **** GLC X 6
     4 ALP1       15 GROUP        1 Y    ALP  0     ROOT ALP Y 8
     5 SEP2        6 GROUP        1 Y    SEP  0     **** SEP Y 9
     6 GLP5        3 GROUP        1 Y    GLP  0     **** GLP Y 13
     7 ALL1       14 GROUP        1 Z    ALL  0     ROOT ALL Z 15
     8 SEL2        5 GROUP        1 Z    SEL  0     **** SEL Z 16
     9 GLL5        2 GROUP        1 Z    GLL  0     **** GLL Z 20
@<TRIPOS>SET

