#    Name: 1iep_STI_1_ligand
#    Modification time : Tue Mar 25 06:59:04 2014

@<TRIPOS>MOLECULE
1iep_STI_1_ligand
   69    73     1     0     0
SMALL
NO_CHARGES


@<TRIPOS>ATOM
      1 C1         11.8790   62.2720   12.5700 C.ar      1 STI201      0.0000 
      2 C6         13.0020   61.4290   12.9100 C.ar      1 STI201      0.0000 
      3 C5         13.0970   60.0700   12.3920 C.ar      1 STI201      0.0000 
      4 C4         12.0310   59.5910   11.5250 C.ar      1 STI201      0.0000 
      5 N3         10.9610   60.4250   11.2160 N.ar      1 STI201      0.0000 
      6 C2         10.8580   61.7340   11.7100 C.ar      1 STI201      0.0000 
      7 C7         14.2380   59.1550   12.7120 C.ar      1 STI201      0.0000 
      8 C12        15.4330   59.5790   13.3830 C.ar      1 STI201      0.0000 
      9 C11        16.4280   58.6030   13.6150 C.ar      1 STI201      0.0000 
     10 N10        16.2320   57.3030   13.2020 N.ar      1 STI201      0.0000 
     11 C9         15.0670   56.9270   12.5590 C.ar      1 STI201      0.0000 
     12 N8         14.1010   57.8400   12.3270 N.ar      1 STI201      0.0000 
     13 N13        14.8520   55.6270   12.1280 N.pl3     1 STI201      0.0000 
     14 C14        15.8220   54.6410   12.3220 C.ar      1 STI201      0.0000 
     15 C19        16.9500   54.5020   11.3930 C.ar      1 STI201      0.0000 
     16 C18        17.9150   53.4710   11.6480 C.ar      1 STI201      0.0000 
     17 C17        17.7740   52.5970   12.7860 C.ar      1 STI201      0.0000 
     18 C16        16.6780   52.7270   13.6880 C.ar      1 STI201      0.0000 
     19 C15        15.6980   53.7720   13.4360 C.ar      1 STI201      0.0000 
     20 N21        16.6000   51.8100   14.7980 N.am      1 STI201      0.0000 
     21 C22        15.6290   51.7470   15.7840 C.2       1 STI201      0.0000 
     22 C23        15.5950   50.5580   16.6890 C.ar      1 STI201      0.0000 
     23 C25        14.4230   50.2680   17.5190 C.ar      1 STI201      0.0000 
     24 C26        14.4230   49.1240   18.3960 C.ar      1 STI201      0.0000 
     25 C27        15.6000   48.2600   18.4460 C.ar      1 STI201      0.0000 
     26 C28        16.7470   48.5680   17.6080 C.ar      1 STI201      0.0000 
     27 C29        16.7510   49.6890   16.7480 C.ar      1 STI201      0.0000 
     28 C46        15.6960   47.0300   19.3680 C.3       1 STI201      0.0000 
     29 N48        16.9170   46.9070   20.2190 N.3       1 STI201      0.0000 
     30 C53        17.0970   48.1400   21.0700 C.3       1 STI201      0.0000 
     31 C52        18.3750   48.0410   21.9490 C.3       1 STI201      0.0000 
     32 N51        18.3370   46.7940   22.8210 N.4       1 STI201      0.0000 
     33 C54        19.5220   46.6550   23.6800 C.3       1 STI201      0.0000 
     34 C50        18.1720   45.5330   21.9710 C.3       1 STI201      0.0000 
     35 C49        16.8770   45.6580   21.1040 C.3       1 STI201      0.0000 
     36 O29        14.7890   52.6120   15.9830 O.2       1 STI201      0.0000 
     37 C20        17.1480   55.4060   10.1540 C.3       1 STI201      0.0000 
     38 H          11.8151   63.2038   12.9239 H         1 STI201      0.0000 
     39 H          13.7347   61.7815   13.5150 H         1 STI201      0.0000 
     40 H          12.0940   58.6439   11.1599 H         1 STI201      0.0000 
     41 H          10.0589   62.3222   11.4668 H         1 STI201      0.0000 
     42 H          15.5473   60.5281   13.6705 H         1 STI201      0.0000 
     43 H          17.2945   58.8788   14.0941 H         1 STI201      0.0000 
     44 H          13.9659   55.3802   11.6576 H         1 STI201      0.0000 
     45 H          18.7075   53.3532   11.0214 H         1 STI201      0.0000 
     46 H          18.4782   51.8714   12.9431 H         1 STI201      0.0000 
     47 H          14.9125   53.8690   14.0817 H         1 STI201      0.0000 
     48 H          17.4051   51.0942   14.8487 H         1 STI201      0.0000 
     49 H          13.6202   50.8759   17.4692 H         1 STI201      0.0000 
     50 H          13.6268   48.9157   18.9699 H         1 STI201      0.0000 
     51 H          17.5616   47.9484   17.6544 H         1 STI201      0.0000 
     52 H          17.5558   49.8976   16.1664 H         1 STI201      0.0000 
     53 H          15.5938   46.1170   18.7278 H         1 STI201      0.0000 
     54 H          14.7850   47.0218   20.0190 H         1 STI201      0.0000 
     55 H          16.2378   48.2686   21.7292 H         1 STI201      0.0000 
     56 H          17.1857   49.0228   20.4359 H         1 STI201      0.0000 
     57 H          18.4329   48.9270   22.5754 H         1 STI201      0.0000 
     58 H          19.2422   48.0071   21.2952 H         1 STI201      0.0000 
     59 H          17.4399   46.8603   23.4607 H         1 STI201      0.0000 
     60 H          18.0756   44.6693   22.6097 H         1 STI201      0.0000 
     61 H          19.0177   45.4214   21.3110 H         1 STI201      0.0000 
     62 H          16.7934   44.7708   20.4819 H         1 STI201      0.0000 
     63 H          16.0207   45.7092   21.7713 H         1 STI201      0.0000 
     64 H          20.3647   46.6004   23.1443 H         1 STI201      0.0000 
     65 H          19.6212   47.4299   24.3042 H         1 STI201      0.0000 
     66 H          19.4782   45.8293   24.2425 H         1 STI201      0.0000 
     67 H          17.2324   56.3698   10.4071 H         1 STI201      0.0000 
     68 H          17.9740   55.1632    9.6453 H         1 STI201      0.0000 
     69 H          16.3803   55.3364    9.5170 H         1 STI201      0.0000 
@<TRIPOS>BOND
     1    2    1 ar   
     2    6    1 ar   
     3   38    1 1    
     4    3    2 ar   
     5   39    2 1    
     6    4    3 ar   
     7    7    3 1    
     8    5    4 ar   
     9   40    4 1    
    10    6    5 ar   
    11   41    6 1    
    12    8    7 ar   
    13   12    7 ar   
    14    9    8 ar   
    15   42    8 1    
    16   10    9 ar   
    17   43    9 1    
    18   11   10 ar   
    19   12   11 ar   
    20   13   11 1    
    21   14   13 1    
    22   44   13 1    
    23   15   14 ar   
    24   19   14 ar   
    25   16   15 ar   
    26   37   15 1    
    27   17   16 ar   
    28   45   16 1    
    29   18   17 ar   
    30   46   17 1    
    31   19   18 ar   
    32   20   18 1    
    33   47   19 1    
    34   21   20 am   
    35   48   20 1    
    36   22   21 1    
    37   36   21 2    
    38   23   22 ar   
    39   27   22 ar   
    40   24   23 ar   
    41   49   23 1    
    42   25   24 ar   
    43   50   24 1    
    44   26   25 ar   
    45   28   25 1    
    46   27   26 ar   
    47   51   26 1    
    48   52   27 1    
    49   29   28 1    
    50   53   28 1    
    51   54   28 1    
    52   30   29 1    
    53   35   29 1    
    54   31   30 1    
    55   55   30 1    
    56   56   30 1    
    57   32   31 1    
    58   57   31 1    
    59   58   31 1    
    60   33   32 1    
    61   34   32 1    
    62   59   32 1    
    63   64   33 1    
    64   65   33 1    
    65   66   33 1    
    66   35   34 1    
    67   60   34 1    
    68   61   34 1    
    69   62   35 1    
    70   63   35 1    
    71   67   37 1    
    72   68   37 1    
    73   69   37 1    
@<TRIPOS>SUBSTRUCTURE
     1 STI201      1 GROUP   
@<TRIPOS>SET

