#    Name: 4GR5_2_CAVITY_N1_ALL.mol2
#    Modification time : Tue Mar 11 00:25:00 2014

@<TRIPOS>MOLECULE
4GR5_2_CAVITY_N1_ALL.mol2
   87     0     7     0     0
SMALL
NO_CHARGES


@<TRIPOS>ATOM
      1 OD1         9.6103  -11.2858  -12.1105 O.3       3 ASP3        0.0000 
      2 OD1         9.3523  -12.1654  -10.9232 O.3       3 ASP3        0.0000 
      3 OD1         9.0943  -13.0450   -9.7359 O.3       3 ASP3        0.0000 
      4 DU          8.1430  -10.9911  -12.2110 H         7 CUB7        0.0000 
      5 OD1         7.8850  -11.8707  -11.0237 O.3       3 ASP3        0.0000 
      6 NZ          7.6270  -12.7503   -9.8364 N.2       4 LYS4        0.0000 
      7 OG          7.3690  -13.6299   -8.6491 O.2       1 SER1        0.0000 
      8 DU          6.4176  -11.5760  -11.1242 H         7 CUB7        0.0000 
      9 O           6.1597  -12.4556   -9.9369 O.2       2 ALA2        0.0000 
     10 CA          5.9017  -13.3352   -8.7496 C.3       6 GLY6        0.0000 
     11 DU          4.9503  -11.2813  -11.2247 H         7 CUB7        0.0000 
     12 CA          4.6923  -12.1609  -10.0374 C.3       6 GLY6        0.0000 
     13 CA          4.4343  -13.0405   -8.8501 C.3       6 GLY6        0.0000 
     14 DU          3.4830  -10.9866  -11.3252 H         7 CUB7        0.0000 
     15 N           3.2250  -11.8662  -10.1379 N.2       2 ALA2        0.0000 
     16 N           2.9670  -12.7458   -8.9506 N.2       2 ALA2        0.0000 
     17 N           2.0157  -10.6919  -11.4257 N.2       2 ALA2        0.0000 
     18 N           1.7577  -11.5715  -10.2384 N.2       2 ALA2        0.0000 
     19 CA          0.2903  -11.2768  -10.3389 C.3       6 GLY6        0.0000 
     20 N           0.0324  -12.1565   -9.1516 N.2       2 ALA2        0.0000 
     21 O          -1.4350  -11.8618   -9.2521 O.2       2 ALA2        0.0000 
     22 CZ          7.7107  -13.0494  -11.9349 C.ar      5 PHE5        0.0000 
     23 NZ          7.4527  -13.9290  -10.7475 N.2       4 LYS4        0.0000 
     24 CZ          6.2433  -12.7547  -12.0354 C.ar      5 PHE5        0.0000 
     25 CA          5.9853  -13.6343  -10.8481 C.3       6 GLY6        0.0000 
     26 O           4.7760  -12.4600  -12.1359 O.2       2 ALA2        0.0000 
     27 CA          4.5180  -13.3397  -10.9486 C.3       6 GLY6        0.0000 
     28 O           3.3087  -12.1653  -12.2364 O.2       2 ALA2        0.0000 
     29 N           3.0507  -13.0450  -11.0491 N.2       2 ALA2        0.0000 
     30 O          12.3776  -11.2769   -7.7126 O.2       2 ALA2        0.0000 
     31 O          10.9103  -10.9822   -7.8131 O.2       2 ALA2        0.0000 
     32 O           9.4430  -10.6875   -7.9136 O.2       2 ALA2        0.0000 
     33 N           9.1850  -11.5671   -6.7263 N.2       2 ALA2        0.0000 
     34 O           5.2990   -8.9238   -9.4024 O.2       2 ALA2        0.0000 
     35 O           3.8316   -8.6291   -9.5029 O.2       2 ALA2        0.0000 
     36 O           3.5736   -9.5087   -8.3156 O.2       2 ALA2        0.0000 
     37 NZ          3.3157  -10.3884   -7.1283 N.2       4 LYS4        0.0000 
     38 N           2.3643   -8.3344   -9.6034 N.2       2 ALA2        0.0000 
     39 N           2.1063   -9.2141   -8.4161 N.2       2 ALA2        0.0000 
     40 NZ          1.8483  -10.0937   -7.2288 N.2       4 LYS4        0.0000 
     41 N           0.6390   -8.9194   -8.5166 N.2       2 ALA2        0.0000 
     42 CZ          0.3810   -9.7990   -7.3293 C.ar      5 PHE5        0.0000 
     43 CZ         -1.0863   -9.5043   -7.4298 C.ar      5 PHE5        0.0000 
     44 N          -2.5537   -9.2096   -7.5304 N.2       2 ALA2        0.0000 
     45 CZ         -2.8116  -10.0892   -6.3430 C.ar      5 PHE5        0.0000 
     46 N          -4.0210   -8.9149   -7.6309 N.2       2 ALA2        0.0000 
     47 CA         -4.2790   -9.7945   -6.4436 C.3       6 GLY6        0.0000 
     48 OD1        12.4613  -11.5760   -9.8110 O.3       3 ASP3        0.0000 
     49 OD1        10.9940  -11.2813   -9.9115 O.3       3 ASP3        0.0000 
     50 OD1        10.7360  -12.1610   -8.7242 O.3       3 ASP3        0.0000 
     51 O          10.4780  -13.0406   -7.5369 O.2       2 ALA2        0.0000 
     52 OD1         9.5266  -10.9866  -10.0120 O.3       3 ASP3        0.0000 
     53 O           9.2686  -11.8663   -8.8247 O.2       2 ALA2        0.0000 
     54 OG          9.0106  -12.7459   -7.6374 O.2       1 SER1        0.0000 
     55 O           8.0593  -10.6919  -10.1126 O.2       2 ALA2        0.0000 
     56 O           7.8013  -11.5716   -8.9252 O.2       2 ALA2        0.0000 
     57 O           7.5433  -12.4512   -7.7379 O.2       2 ALA2        0.0000 
     58 O           6.5920  -10.3973  -10.2131 O.2       2 ALA2        0.0000 
     59 O           5.1246  -10.1026  -10.3136 O.2       2 ALA2        0.0000 
     60 O           4.8667  -10.9822   -9.1263 O.2       2 ALA2        0.0000 
     61 O           4.6087  -11.8618   -7.9390 O.2       2 ALA2        0.0000 
     62 DU          3.6573   -9.8079  -10.4141 H         7 CUB7        0.0000 
     63 O           3.3993  -10.6875   -9.2268 O.2       2 ALA2        0.0000 
     64 NZ          3.1413  -11.5671   -8.0395 N.2       4 LYS4        0.0000 
     65 N           2.4480   -8.6335  -11.7019 N.2       2 ALA2        0.0000 
     66 N           2.1900   -9.5132  -10.5146 N.2       2 ALA2        0.0000 
     67 N           1.9320  -10.3928   -9.3273 N.2       2 ALA2        0.0000 
     68 CZ          1.6740  -11.2724   -8.1400 C.ar      5 PHE5        0.0000 
     69 N           0.4647  -10.0981   -9.4278 N.2       2 ALA2        0.0000 
     70 CZ          0.2067  -10.9777   -8.2405 C.ar      5 PHE5        0.0000 
     71 CZ         -1.2607  -10.6830   -8.3410 C.ar      5 PHE5        0.0000 
     72 O          -2.7280  -10.3883   -8.4415 O.2       2 ALA2        0.0000 
     73 CA         -2.9860  -11.2679   -7.2542 C.3       6 GLY6        0.0000 
     74 OD1         5.4733   -7.7451   -8.4913 O.3       3 ASP3        0.0000 
     75 CA          1.2456   -5.6823   -7.8817 C.3       6 GLY6        0.0000 
     76 OG          0.9876   -6.5619   -6.6944 O.2       1 SER1        0.0000 
     77 OG          3.7480   -8.3300   -7.4045 O.2       1 SER1        0.0000 
     78 N           2.5386   -7.1557   -8.6923 N.2       2 ALA2        0.0000 
     79 OG          2.2806   -8.0353   -7.5050 O.2       1 SER1        0.0000 
     80 OG          2.0226   -8.9149   -6.3177 O.2       1 SER1        0.0000 
     81 N           0.8133   -7.7406   -7.6055 N.2       2 ALA2        0.0000 
     82 CZ          0.5553   -8.6202   -6.4182 C.ar      5 PHE5        0.0000 
     83 CA         -0.6540   -7.4459   -7.7060 C.3       6 GLY6        0.0000 
     84 CZ         -0.9120   -8.3255   -6.5187 C.ar      5 PHE5        0.0000 
     85 N          -2.3793   -8.0309   -6.6192 N.2       2 ALA2        0.0000 
     86 CZ         -2.6373   -8.9105   -5.4319 C.ar      5 PHE5        0.0000 
     87 CA         -4.1047   -8.6158   -5.5324 C.3       6 GLY6        0.0000 
@<TRIPOS>BOND
@<TRIPOS>SUBSTRUCTURE
     1 SER1        7 GROUP   
     2 ALA2        9 GROUP   
     3 ASP3        1 GROUP   
     4 LYS4        6 GROUP   
     5 PHE5       22 GROUP   
     6 GLY6       10 GROUP   
     7 CUB7        4 GROUP   
@<TRIPOS>SET

