#    Name: 4gr5_APC_2_INTS_M
#    Modification time : Mon Mar 24 23:35:21 2014

@<TRIPOS>MOLECULE
4gr5_APC_2_INTS_M
   75     0    12     0     0
SMALL
NO_CHARGES


@<TRIPOS>ATOM
      1 NZ          7.7905  -10.5670   -8.1135 N.4       3 LYC4        0.0000 
      2 NZ          8.8080  -11.2280   -8.9980 N.4      11 LYL4        0.0000 
      3 NZ          7.2830   -8.8020   -6.6910 N.4       7 LYP4        0.0000 
      4 N           7.7905  -10.5670   -8.1135 N.am      2 SEC2        0.0000 
      5 N           8.8080  -11.2280   -8.9980 N.am     10 SEL2        0.0000 
      6 N           6.7730   -9.9060   -7.2290 N.am      6 SEP2        0.0000 
      7 NZ         11.2495  -12.2990  -10.7950 N.4       3 LYC4        0.0000 
      8 NZ         11.1680  -11.0520   -9.8750 N.4      11 LYL4        0.0000 
      9 NZ         11.3310  -13.5460  -11.7150 N.4       7 LYP4        0.0000 
     10 NZ          9.0630   -8.6065   -8.4065 N.4       3 LYC4        0.0000 
     11 NZ          9.7690   -8.9770   -9.5800 N.4      11 LYL4        0.0000 
     12 N           9.0630   -8.6065   -8.4065 N.am      2 SEC2        0.0000 
     13 N           9.7690   -8.9770   -9.5800 N.am     10 SEL2        0.0000 
     14 N           8.3570   -8.2360   -7.2330 N.am      6 SEP2        0.0000 
     15 NZ         10.0055  -13.3005  -11.7030 N.4       3 LYC4        0.0000 
     16 NZ          8.6800  -13.0550  -11.6910 N.4      11 LYL4        0.0000 
     17 N          10.0055  -13.3005  -11.7030 N.am      2 SEC2        0.0000 
     18 N           8.6800  -13.0550  -11.6910 N.am     10 SEL2        0.0000 
     19 N          11.3310  -13.5460  -11.7150 N.am      6 SEP2        0.0000 
     20 N           4.6570  -12.7675  -14.1370 N.am      2 SEC2        0.0000 
     21 N           4.5750  -12.3520  -12.7750 N.am     10 SEL2        0.0000 
     22 N           4.7390  -13.1830  -15.4990 N.am      6 SEP2        0.0000 
     23 N           3.5350  -13.1850  -12.9090 N.am      2 SEC2        0.0000 
     24 N           2.4950  -14.0180  -13.0430 N.am      6 SEP2        0.0000 
     25 N           5.2585  -15.2725  -11.5635 N.am      2 SEC2        0.0000 
     26 N           6.0040  -14.0010  -11.3510 N.am     10 SEL2        0.0000 
     27 N           4.5130  -16.5440  -11.7760 N.am      6 SEP2        0.0000 
     28 CA          3.4945  -13.6955   -9.9540 C.3       4 GLC5        0.0000 
     29 CA          3.1650  -11.6370  -10.3430 C.3      12 GLL5        0.0000 
     30 CA          3.8240  -15.7540   -9.5650 C.3       8 GLP5        0.0000 
     31 N           5.4635  -10.7385   -7.1805 N.am      2 SEC2        0.0000 
     32 N           4.1540  -11.5710   -7.1320 N.am     10 SEL2        0.0000 
     33 O           4.4820  -10.7205   -5.7610 O.2       1 ALC1        0.0000 
     34 O           4.1540  -11.5710   -7.1320 O.2       9 ALL1        0.0000 
     35 O           4.8100   -9.8700   -4.3900 O.2       5 ALP1        0.0000 
     36 O           3.9205  -11.6590   -5.8905 O.2       1 ALC1        0.0000 
     37 O           3.6870  -11.7470   -4.6490 O.2       5 ALP1        0.0000 
     38 CA          1.7630   -9.4005   -5.4070 C.3       4 GLC5        0.0000 
     39 CA          2.3780   -9.9230   -7.1240 C.3      12 GLL5        0.0000 
     40 CA          1.1480   -8.8780   -3.6900 C.3       8 GLP5        0.0000 
     41 N           2.9135   -8.0500   -5.6230 N.am      2 SEC2        0.0000 
     42 N           3.3970   -9.0190   -6.6610 N.am     10 SEL2        0.0000 
     43 N           2.4300   -7.0810   -4.5850 N.am      6 SEP2        0.0000 
     44 O           4.1035   -9.4445   -5.5255 O.2       1 ALC1        0.0000 
     45 O           3.3970   -9.0190   -6.6610 O.2       9 ALL1        0.0000 
     46 O           3.5420  -10.3830   -5.6550 O.2       1 ALC1        0.0000 
     47 N          -2.1530  -10.4955  -10.1910 N.am      2 SEC2        0.0000 
     48 N          -1.5000  -11.1320   -8.8640 N.am     10 SEL2        0.0000 
     49 N          -2.8060   -9.8590  -11.5180 N.am      6 SEP2        0.0000 
     50 CA         -2.5015  -12.2195   -7.7180 C.3       4 GLC5        0.0000 
     51 CA         -1.9480  -10.2240   -7.9670 C.3      12 GLL5        0.0000 
     52 CA         -3.0550  -14.2150   -7.4690 C.3       8 GLP5        0.0000 
     53 CA         -3.1125  -11.8660   -6.6590 C.3       4 GLC5        0.0000 
     54 CA         -3.2450   -9.9120   -7.3360 C.3      12 GLL5        0.0000 
     55 CA         -2.9800  -13.8200   -5.9820 C.3       8 GLP5        0.0000 
     56 CA         -3.8955  -10.6310   -5.5150 C.3       4 GLC5        0.0000 
     57 CA         -4.5460  -11.3500   -3.6940 C.3       8 GLP5        0.0000 
     58 O          -5.8545  -10.3135   -7.6020 O.2       1 ALC1        0.0000 
     59 O          -4.3440  -10.6440   -7.6300 O.2       9 ALL1        0.0000 
     60 O          -7.3650   -9.9830   -7.5740 O.2       5 ALP1        0.0000 
     61 O          -4.4995  -11.7905   -8.4920 O.2       1 ALC1        0.0000 
     62 O          -4.6550  -12.9370   -9.3540 O.2       5 ALP1        0.0000 
     63 CA         -2.0340   -7.1415   -7.8680 C.3       4 GLC5        0.0000 
     64 CA         -2.1970   -8.1430   -6.1750 C.3      12 GLL5        0.0000 
     65 CA         -1.8710   -6.1400   -9.5610 C.3       8 GLP5        0.0000 
     66 CA         -3.0945   -6.6070   -6.3670 C.3       4 GLC5        0.0000 
     67 CA         -3.9920   -5.0710   -6.5590 C.3       8 GLP5        0.0000 
     68 CA         -2.1875   -8.5410   -4.0055 C.3       4 GLC5        0.0000 
     69 CA         -2.1780   -8.9390   -1.8360 C.3       8 GLP5        0.0000 
     70 CA          1.6073  -11.5870   -6.2850 C.3       4 GLC5        0.0000 
     71 CA          0.5370  -12.6470   -5.1000 C.3       8 GLP5        0.0000 
     72 CA         -1.4700   -9.4930   -9.8210 C.3       4 GLC5        0.0000 
     73 CA         -0.8120   -9.3720   -7.6130 C.3      12 GLL5        0.0000 
     74 CA         -1.5600   -9.1880  -11.8520 C.3       8 GLP5        0.0000 
     75 CA         -1.6255   -7.9690   -8.6755 C.3       4 GLC5        0.0000 
@<TRIPOS>BOND
@<TRIPOS>SUBSTRUCTURE
     1 ALC1       33 GROUP        1 X    ALC  0     ROOT ALC X 1
     2 SEC2        4 GROUP        1 X    SEC  0     **** SEC X 2
     3 LYC4        1 GROUP        1 X    LYC  0     **** LYC X 4
     4 GLC5       28 GROUP        1 X    GLC  0     **** GLC X 6
     5 ALP1       35 GROUP        1 Y    ALP  0     ROOT ALP Y 8
     6 SEP2        6 GROUP        1 Y    SEP  0     **** SEP Y 9
     7 LYP4        3 GROUP        1 Y    LYP  0     **** LYP Y 11
     8 GLP5       30 GROUP        1 Y    GLP  0     **** GLP Y 13
     9 ALL1       34 GROUP        1 Z    ALL  0     ROOT ALL Z 15
    10 SEL2        5 GROUP        1 Z    SEL  0     **** SEL Z 16
    11 LYL4        2 GROUP        1 Z    LYL  0     **** LYL Z 18
    12 GLL5       29 GROUP        1 Z    GLL  0     **** GLL Z 20
@<TRIPOS>SET

