#    Name: 4gr5_APC_2_ligand
#    Modification time : Mon Mar 24 23:35:21 2014

@<TRIPOS>MOLECULE
4gr5_APC_2_ligand
   45    47     1     0     0
SMALL
NO_CHARGES


@<TRIPOS>ATOM
      1 PG          9.7790  -10.4570   -9.8510 P.3       1 APC601      0.0000 
      2 O1G         8.8080  -11.2280   -8.9980 O.co2     1 APC601      0.0000 
      3 O2G        11.1680  -11.0520   -9.8750 O.co2     1 APC601      0.0000 
      4 O3G         9.7690   -8.9770   -9.5800 O.co2     1 APC601      0.0000 
      5 PB          8.1870  -11.6610  -11.9980 P.3       1 APC601      0.0000 
      6 O1B         8.0220  -11.2800  -13.4540 O.co2     1 APC601      0.0000 
      7 O2B         8.6800  -13.0550  -11.6910 O.co2     1 APC601      0.0000 
      8 O3B         9.2570  -10.5950  -11.3940 O.3       1 APC601      0.0000 
      9 PA          5.3370  -12.6400  -11.4950 P.3       1 APC601      0.0000 
     10 O1A         4.5750  -12.3520  -12.7750 O.co2     1 APC601      0.0000 
     11 O2A         6.0040  -14.0010  -11.3510 O.co2     1 APC601      0.0000 
     12 C3A         6.5910  -11.3630  -11.1770 C.3       1 APC601      0.0000 
     13 O5'         4.3000  -12.4950  -10.2660 O.3       1 APC601      0.0000 
     14 C5'         3.1650  -11.6370  -10.3430 C.3       1 APC601      0.0000 
     15 C4'         3.2550  -10.6000   -9.2220 C.3       1 APC601      0.0000 
     16 O4'         2.2530   -9.6070   -9.4680 O.3       1 APC601      0.0000 
     17 C3'         2.9770  -11.1310   -7.8160 C.3       1 APC601      0.0000 
     18 O3'         4.1540  -11.5710   -7.1320 O.3       1 APC601      0.0000 
     19 C2'         2.3780   -9.9230   -7.1240 C.3       1 APC601      0.0000 
     20 O2'         3.3970   -9.0190   -6.6610 O.3       1 APC601      0.0000 
     21 C1'         1.5970   -9.2660   -8.2430 C.3       1 APC601      0.0000 
     22 N9          0.2290   -9.8430   -8.3000 N.pl3     1 APC601      0.0000 
     23 C8         -0.1780  -10.8880   -9.0500 C.2       1 APC601      0.0000 
     24 N7         -1.5000  -11.1320   -8.8640 N.2       1 APC601      0.0000 
     25 C5         -1.9480  -10.2240   -7.9670 C.ar      1 APC601      0.0000 
     26 C6         -3.2450   -9.9120   -7.3360 C.ar      1 APC601      0.0000 
     27 N6         -4.3440  -10.6440   -7.6300 N.pl3     1 APC601      0.0000 
     28 N1         -3.2910   -8.8790   -6.4650 N.ar      1 APC601      0.0000 
     29 C2         -2.1970   -8.1430   -6.1750 C.ar      1 APC601      0.0000 
     30 N3         -0.9880   -8.3650   -6.7160 N.ar      1 APC601      0.0000 
     31 C4         -0.8120   -9.3720   -7.6130 C.ar      1 APC601      0.0000 
     32 H           6.2158  -10.4696  -11.5668 H         1 APC601      0.0000 
     33 H           6.7763  -11.3730  -10.1492 H         1 APC601      0.0000 
     34 H           2.2286  -12.1848  -10.2155 H         1 APC601      0.0000 
     35 H           3.1230  -11.0984  -11.2924 H         1 APC601      0.0000 
     36 H           4.2291  -10.1453   -9.2354 H         1 APC601      0.0000 
     37 H           2.2176  -11.8742   -7.8877 H         1 APC601      0.0000 
     38 H           1.7110  -10.2388   -6.3835 H         1 APC601      0.0000 
     39 H           1.5599   -8.2273   -8.0905 H         1 APC601      0.0000 
     40 H           0.4000  -11.4045   -9.6500 H         1 APC601      0.0000 
     41 H          -4.1885  -11.6126   -7.8241 H         1 APC601      0.0000 
     42 H          -5.2144  -10.1516   -7.6271 H         1 APC601      0.0000 
     43 H          -2.3016   -7.3418   -5.4776 H         1 APC601      0.0000 
     44 H           4.0869  -11.1707   -6.2181 H         1 APC601      0.0000 
     45 H           3.8344   -9.4921   -5.8963 H         1 APC601      0.0000 
@<TRIPOS>BOND
     1    2    1 ar   
     2    3    1 ar   
     3    4    1 ar   
     4    8    1 1    
     5    6    5 ar   
     6    7    5 ar   
     7    8    5 1    
     8   12    5 1    
     9   10    9 ar   
    10   11    9 ar   
    11   12    9 1    
    12   13    9 1    
    13   32   12 1    
    14   33   12 1    
    15   14   13 1    
    16   15   14 1    
    17   34   14 1    
    18   35   14 1    
    19   16   15 1    
    20   17   15 1    
    21   36   15 1    
    22   21   16 1    
    23   18   17 1    
    24   19   17 1    
    25   37   17 1    
    26   44   18 1    
    27   20   19 1    
    28   21   19 1    
    29   38   19 1    
    30   45   20 1    
    31   22   21 1    
    32   39   21 1    
    33   23   22 1    
    34   31   22 1    
    35   24   23 2    
    36   40   23 1    
    37   25   24 1    
    38   26   25 ar   
    39   31   25 ar   
    40   27   26 1    
    41   28   26 ar   
    42   41   27 1    
    43   42   27 1    
    44   29   28 ar   
    45   30   29 ar   
    46   43   29 1    
    47   31   30 ar   
@<TRIPOS>SUBSTRUCTURE
     1 APC601      1 GROUP   
@<TRIPOS>SET

