#    Name: 3e87_G95_1_INTS_M
#    Modification time : Tue Mar 25 01:06:06 2014

@<TRIPOS>MOLECULE
3e87_G95_1_INTS_M
   75     0    12     0     0
SMALL
NO_CHARGES


@<TRIPOS>ATOM
      1 CA         34.5700  -12.0575   10.3790 C.3       4 GLC5        0.0000 
      2 CA         35.7100  -13.4360    9.0570 C.3      12 GLL5        0.0000 
      3 CA         33.4300  -10.6790   11.7010 C.3       8 GLP5        0.0000 
      4 CA         37.8915  -20.2790   10.8315 C.3       4 GLC5        0.0000 
      5 CA         36.2900  -18.8470   11.1590 C.3      12 GLL5        0.0000 
      6 CA         39.4930  -21.7110   10.5040 C.3       8 GLP5        0.0000 
      7 CA         38.0595  -18.1595   11.2250 C.3       4 GLC5        0.0000 
      8 CA         39.8290  -17.4720   11.2910 C.3       8 GLP5        0.0000 
      9 CA         34.6955  -14.7175   11.7195 C.3       4 GLC5        0.0000 
     10 CA         35.7490  -14.6210    9.8440 C.3      12 GLL5        0.0000 
     11 CA         33.6420  -14.8140   13.5950 C.3       8 GLP5        0.0000 
     12 CA         34.0580  -14.5180    7.7025 C.3       4 GLC5        0.0000 
     13 CA         35.9680  -15.3870    7.4240 C.3      12 GLL5        0.0000 
     14 CA         32.1480  -13.6490    7.9810 C.3       8 GLP5        0.0000 
     15 CA         37.7090  -16.0395    8.5745 C.3       4 GLC5        0.0000 
     16 CA         39.4500  -16.6920    9.7250 C.3       8 GLP5        0.0000 
     17 CA         37.3360  -16.3150    6.0000 C.3       4 GLC5        0.0000 
     18 CA         38.7040  -17.2430    4.5760 C.3       8 GLP5        0.0000 
     19 OD1        36.2920  -10.3810    3.3530 O.co2     3 ASC3        0.0000 
     20 OD1        36.2420   -8.9350    4.2300 O.co2    11 ASL3        0.0000 
     21 OD1        36.3420  -11.8270    2.4760 O.co2     7 ASP3        0.0000 
     22 O          36.2920  -10.3810    3.3530 O.2       1 ALC1        0.0000 
     23 O          36.2420   -8.9350    4.2300 O.2       9 ALL1        0.0000 
     24 O          36.3420  -11.8270    2.4760 O.2       5 ALP1        0.0000 
     25 CA         36.1510  -20.8845    5.7540 C.3       4 GLC5        0.0000 
     26 CA         35.7000  -19.6480    6.8660 C.3      12 GLL5        0.0000 
     27 CA         36.6020  -22.1210    4.6420 C.3       8 GLP5        0.0000 
     28 CA         34.2470  -20.8020    6.1170 C.3       4 GLC5        0.0000 
     29 CA         32.7940  -21.9560    5.3680 C.3       8 GLP5        0.0000 
     30 CA         32.6445  -12.1525    6.3765 C.3       4 GLC5        0.0000 
     31 CA         33.1410  -10.6560    4.7720 C.3      12 GLL5        0.0000 
     32 CA         29.5180   -8.8070    5.8750 C.3       4 GLC5        0.0000 
     33 CA         31.4190   -9.3630    5.7800 C.3      12 GLL5        0.0000 
     34 CA         27.6170   -8.2510    5.9700 C.3       8 GLP5        0.0000 
     35 N          36.7515  -21.2305   10.7400 N.am      2 SEC2        0.0000 
     36 N          36.2130  -19.8800   10.3200 N.am     10 SEL2        0.0000 
     37 N          37.2900  -22.5810   11.1600 N.am      6 SEP2        0.0000 
     38 CA         31.8740   -8.2670    8.6770 C.3       4 GLC5        0.0000 
     39 CA         32.3050   -8.9150    6.7320 C.3      12 GLL5        0.0000 
     40 CA         31.4430   -7.6190   10.6220 C.3       8 GLP5        0.0000 
     41 CA         31.9640   -6.9285    7.3220 C.3       4 GLC5        0.0000 
     42 CA         31.6230   -4.9420    7.9120 C.3       8 GLP5        0.0000 
     43 CA         37.7515  -20.5975    9.7845 C.3       4 GLC5        0.0000 
     44 CA         36.0100  -19.4840    9.0650 C.3      12 GLL5        0.0000 
     45 O          35.5930  -21.8095    8.2315 O.2       1 ALC1        0.0000 
     46 O          35.8970  -20.3480    8.0170 O.2       9 ALL1        0.0000 
     47 O          35.2890  -23.2710    8.4460 O.2       5 ALP1        0.0000 
     48 CA         33.9570  -13.6107    8.1825 C.3       4 GLC5        0.0000 
     49 CA         35.8220  -13.7090    7.7110 C.3      12 GLL5        0.0000 
     50 CA         34.8905  -17.7452   12.2342 C.3       4 GLC5        0.0000 
     51 CA         36.1840  -17.5200   10.8140 C.3      12 GLL5        0.0000 
     52 CA         33.5440  -17.3070   13.4820 C.3       8 GLP5        0.0000 
     53 CA         37.7655  -17.0150    9.9418 C.3       4 GLC5        0.0000 
     54 CA         37.6330  -15.9443    9.5965 C.3       4 GLC5        0.0000 
     55 CA         35.8830  -15.7720    9.0920 C.3      12 GLL5        0.0000 
     56 CA         33.9864  -15.5877    9.5409 C.3       4 GLC5        0.0000 
     57 CA         35.9780  -17.1560    9.5030 C.3      12 GLL5        0.0000 
     58 CA         32.1330  -15.6330    9.5110 C.3       8 GLP5        0.0000 
     59 CA         34.2035  -19.4288    8.3972 C.3       4 GLC5        0.0000 
     60 CA         35.6900  -18.3150    7.1870 C.3      12 GLL5        0.0000 
     61 CA         32.7120  -19.8760    9.7680 C.3       8 GLP5        0.0000 
     62 CA         37.6998  -17.7658    9.2757 C.3       4 GLC5        0.0000 
     63 CA         35.8890  -18.1950    8.5880 C.3      12 GLL5        0.0000 
     64 CA         37.3205  -18.5276    6.6331 C.3       4 GLC5        0.0000 
     65 CA         38.8490  -18.4670    5.4590 C.3       8 GLP5        0.0000 
     66 CA         32.0883  -12.0880    4.3145 C.3       4 GLC5        0.0000 
     67 CA         31.6890  -13.7320    3.8420 C.3       8 GLP5        0.0000 
     68 CA         30.8208   -8.5332    3.7730 C.3       4 GLC5        0.0000 
     69 CA         31.8340  -10.2320    4.8020 C.3      12 GLL5        0.0000 
     70 CA         30.0150   -7.2690    2.2550 C.3       8 GLP5        0.0000 
     71 CA         30.2668  -10.6058    4.0515 C.3       4 GLC5        0.0000 
     72 CA         28.9070  -11.4140    2.8120 C.3       8 GLP5        0.0000 
     73 CA         30.3845   -9.8010    7.5190 C.3       4 GLC5        0.0000 
     74 CA         28.9070  -10.4630    8.7820 C.3       8 GLP5        0.0000 
     75 CA         34.4082  -19.1288    9.8944 C.3       4 GLC5        0.0000 
@<TRIPOS>BOND
@<TRIPOS>SUBSTRUCTURE
     1 ALC1       22 GROUP        1 X    ALC  0     ROOT ALC X 1
     2 SEC2       35 GROUP        1 X    SEC  0     **** SEC X 2
     3 ASC3       19 GROUP        1 X    ASC  0     **** ASC X 3
     4 GLC5        1 GROUP        1 X    GLC  0     **** GLC X 6
     5 ALP1       24 GROUP        1 Y    ALP  0     ROOT ALP Y 8
     6 SEP2       37 GROUP        1 Y    SEP  0     **** SEP Y 9
     7 ASP3       21 GROUP        1 Y    ASP  0     **** ASP Y 10
     8 GLP5        3 GROUP        1 Y    GLP  0     **** GLP Y 13
     9 ALL1       23 GROUP        1 Z    ALL  0     ROOT ALL Z 15
    10 SEL2       36 GROUP        1 Z    SEL  0     **** SEL Z 16
    11 ASL3       20 GROUP        1 Z    ASL  0     **** ASL Z 17
    12 GLL5        2 GROUP        1 Z    GLL  0     **** GLL Z 20
@<TRIPOS>SET

