#    Name: 3e87_G95_1_ligand
#    Modification time : Tue Mar 25 01:06:06 2014

@<TRIPOS>MOLECULE
3e87_G95_1_ligand
   45    48     1     0     0
SMALL
NO_CHARGES


@<TRIPOS>ATOM
      1 C1         36.4090   -9.5340    5.5740 C.3       1 G951        0.0000 
      2 C2         35.4420  -10.6930    5.6570 C.3       1 G951        0.0000 
      3 C3         35.8400  -12.8920    6.5470 C.2       1 G951        0.0000 
      4 C4         35.8220  -13.7090    7.7110 C.2       1 G951        0.0000 
      5 C5         35.7100  -13.4360    9.0570 C.2       1 G951        0.0000 
      6 C9         36.1840  -17.5200   10.8140 C.ar      1 G951        0.0000 
      7 C10        36.2900  -18.8470   11.1590 C.ar      1 G951        0.0000 
      8 C8         35.9780  -17.1560    9.5030 C.ar      1 G951        0.0000 
      9 C7         35.8830  -15.7720    9.0920 C.2       1 G951        0.0000 
     10 C6         35.7490  -14.6210    9.8440 C.2       1 G951        0.0000 
     11 S1         35.9680  -15.3870    7.4240 S.3       1 G951        0.0000 
     12 O1         35.9380  -13.3890    5.4310 O.2       1 G951        0.0000 
     13 N1         36.2420   -8.9350    4.2300 N.4       1 G951        0.0000 
     14 C12        35.7000  -19.6480    6.8660 C.2       1 G951        0.0000 
     15 C13        35.6900  -18.3150    7.1870 C.2       1 G951        0.0000 
     16 C14        35.8890  -18.1950    8.5880 C.ar      1 G951        0.0000 
     17 C15        34.0320  -10.2110    5.7220 C.ar      1 G951        0.0000 
     18 N2         35.7440  -11.5420    6.7830 N.am      1 G951        0.0000 
     19 C16        33.1410  -10.6560    4.7720 C.ar      1 G951        0.0000 
     20 C17        31.8340  -10.2320    4.8020 C.ar      1 G951        0.0000 
     21 C18        31.4190   -9.3630    5.7800 C.ar      1 G951        0.0000 
     22 N3         36.2130  -19.8800   10.3200 N.ar      1 G951        0.0000 
     23 C19        32.3050   -8.9150    6.7320 C.ar      1 G951        0.0000 
     24 C20        33.6120   -9.3400    6.7040 C.ar      1 G951        0.0000 
     25 C11        36.0100  -19.4840    9.0650 C.ar      1 G951        0.0000 
     26 N4         35.8970  -20.3480    8.0170 N.pl3     1 G951        0.0000 
     27 H          37.4158   -9.9001    5.7028 H         1 G951        0.0000 
     28 H          36.1694   -8.8144    6.3415 H         1 G951        0.0000 
     29 H          35.5530  -11.2754    4.7250 H         1 G951        0.0000 
     30 H          35.6152  -12.5527    9.4447 H         1 G951        0.0000 
     31 H          36.2596  -16.7899   11.5450 H         1 G951        0.0000 
     32 H          36.4498  -19.0537   12.2079 H         1 G951        0.0000 
     33 H          35.6856  -14.5999   10.8197 H         1 G951        0.0000 
     34 H          35.5885  -20.0134    5.9918 H         1 G951        0.0000 
     35 H          35.5732  -17.5824    6.5993 H         1 G951        0.0000 
     36 H          35.8732  -11.1316    7.6902 H         1 G951        0.0000 
     37 H          33.4560  -11.3096    4.0357 H         1 G951        0.0000 
     38 H          31.1655  -10.5674    4.0891 H         1 G951        0.0000 
     39 H          30.4342   -9.0423    5.8024 H         1 G951        0.0000 
     40 H          31.9888   -8.2611    7.4657 H         1 G951        0.0000 
     41 H          34.2802   -9.0076    7.4180 H         1 G951        0.0000 
     42 H          35.9490  -21.3130    8.0820 H         1 G951        0.0000 
     43 H          36.8489   -8.1519    4.0944 H         1 G951        0.0000 
     44 H          36.4437   -9.5915    3.5031 H         1 G951        0.0000 
     45 H          35.3077   -8.6109    4.0813 H         1 G951        0.0000 
@<TRIPOS>BOND
     1    2    1 1    
     2   13    1 1    
     3   27    1 1    
     4   28    1 1    
     5   17    2 1    
     6   18    2 1    
     7   29    2 1    
     8    4    3 1    
     9   12    3 2    
    10   18    3 am   
    11    5    4 2    
    12   11    4 1    
    13   10    5 1    
    14   30    5 1    
    15    7    6 ar   
    16    8    6 ar   
    17   31    6 1    
    18   22    7 ar   
    19   32    7 1    
    20    9    8 1    
    21   16    8 ar   
    22   10    9 2    
    23   11    9 1    
    24   33   10 1    
    25   43   13 1    
    26   44   13 1    
    27   45   13 1    
    28   15   14 2    
    29   26   14 1    
    30   34   14 1    
    31   16   15 1    
    32   35   15 1    
    33   25   16 ar   
    34   19   17 ar   
    35   24   17 ar   
    36   36   18 1    
    37   20   19 ar   
    38   37   19 1    
    39   21   20 ar   
    40   38   20 1    
    41   23   21 ar   
    42   39   21 1    
    43   25   22 ar   
    44   24   23 ar   
    45   40   23 1    
    46   41   24 1    
    47   26   25 1    
    48   42   26 1    
@<TRIPOS>SUBSTRUCTURE
     1 G951        1 GROUP   
@<TRIPOS>SET

