#    Name: 2pwr_G4G_1_INTS_M
#    Modification time : Mon Mar 24 19:27:31 2014

@<TRIPOS>MOLECULE
2pwr_G4G_1_INTS_M
  102     0    12     0     0
SMALL
NO_CHARGES


@<TRIPOS>ATOM
      1 N          18.1440  -23.7890  -22.2135 N.am      2 SEC2        0.0000 
      2 N          16.8530  -24.0050  -21.6940 N.am     10 SEL2        0.0000 
      3 N          19.4350  -23.5730  -22.7330 N.am      6 SEP2        0.0000 
      4 CA         14.1785  -24.6165  -22.5615 C.3       4 GLC5        0.0000 
      5 CA         14.2270  -23.5980  -20.9400 C.3      12 GLL5        0.0000 
      6 CA         14.1300  -25.6350  -24.1830 C.3       8 GLP5        0.0000 
      7 N           7.8785  -12.1450  -14.7565 N.am      2 SEC2        0.0000 
      8 N           6.9170  -13.2870  -14.6390 N.am     10 SEL2        0.0000 
      9 N           8.8400  -11.0030  -14.8740 N.am      6 SEP2        0.0000 
     10 O          18.3115  -25.9445  -20.7190 O.2       1 ALC1        0.0000 
     11 O          17.2880  -25.3340  -19.9340 O.2       9 ALL1        0.0000 
     12 O          19.3350  -26.5550  -21.5040 O.2       5 ALP1        0.0000 
     13 O          18.6940  -26.1990  -19.4620 O.2       1 ALC1        0.0000 
     14 O          20.1000  -27.0640  -18.9900 O.2       5 ALP1        0.0000 
     15 CA          6.1290  -17.0690  -13.8465 C.3       4 GLC5        0.0000 
     16 CA          7.2730  -16.8000  -15.4750 C.3      12 GLL5        0.0000 
     17 CA          4.9850  -17.3380  -12.2180 C.3       8 GLP5        0.0000 
     18 CA         16.2505  -22.2395  -19.5895 C.3       4 GLC5        0.0000 
     19 CA         15.0940  -23.8330  -18.6320 C.3      12 GLL5        0.0000 
     20 CA         17.4070  -20.6460  -20.5470 C.3       8 GLP5        0.0000 
     21 N          11.1675  -23.1845  -15.4330 N.am      2 SEC2        0.0000 
     22 N          11.4240  -22.6110  -16.8830 N.am     10 SEL2        0.0000 
     23 N          10.9110  -23.7580  -13.9830 N.am      6 SEP2        0.0000 
     24 CA         16.5920  -18.6220  -16.7730 C.3       4 GLC5        0.0000 
     25 CA         15.4180  -19.6380  -15.2590 C.3      12 GLL5        0.0000 
     26 CA         17.7660  -17.6060  -18.2870 C.3       8 GLP5        0.0000 
     27 CA         12.5840  -16.0730  -19.2535 C.3       4 GLC5        0.0000 
     28 CA         12.5410  -17.4910  -17.8800 C.3      12 GLL5        0.0000 
     29 CA         12.6270  -14.6550  -20.6270 C.3       8 GLP5        0.0000 
     30 CA         11.8490  -15.6350  -17.5640 C.3       4 GLC5        0.0000 
     31 CA         11.1570  -13.7790  -17.2480 C.3       8 GLP5        0.0000 
     32 OD1        14.3670  -16.6885  -18.2720 O.co2     3 ASC3        0.0000 
     33 OD1        13.8470  -18.0760  -18.3150 O.co2    11 ASL3        0.0000 
     34 OD1        14.8870  -15.3010  -18.2290 O.co2     7 ASP3        0.0000 
     35 OD1        14.5065  -17.3520  -17.4085 O.co2     3 ASC3        0.0000 
     36 OD1        15.1660  -16.6280  -16.5020 O.co2     7 ASP3        0.0000 
     37 OD1        14.5475  -17.6050  -19.4090 O.co2     3 ASC3        0.0000 
     38 OD1        15.2480  -17.1340  -20.5030 O.co2     7 ASP3        0.0000 
     39 OD1        13.6120  -18.0735  -19.7160 O.co2     3 ASC3        0.0000 
     40 OD1        13.3770  -18.0710  -21.1170 O.co2     7 ASP3        0.0000 
     41 CA         15.7865  -18.5685  -18.2960 C.3       4 GLC5        0.0000 
     42 CA         13.8070  -19.5310  -18.3050 C.3      12 GLL5        0.0000 
     43 CA         15.6070  -20.0885  -19.4260 C.3       4 GLC5        0.0000 
     44 CA         14.0630  -22.7920  -12.2205 C.3       4 GLC5        0.0000 
     45 CA         14.3100  -21.9180  -14.2280 C.3      12 GLL5        0.0000 
     46 CA         13.8160  -23.6660  -10.2130 C.3       8 GLP5        0.0000 
     47 CA         13.2540  -23.5545  -14.7530 C.3       4 GLC5        0.0000 
     48 CA         12.1980  -25.1910  -15.2780 C.3       8 GLP5        0.0000 
     49 N           9.2410  -23.5750  -18.5615 N.am      2 SEC2        0.0000 
     50 N          10.2810  -22.7110  -19.1800 N.am     10 SEL2        0.0000 
     51 N           8.2010  -24.4390  -17.9430 N.am      6 SEP2        0.0000 
     52 CA         10.6747  -14.8470  -15.1532 C.3       4 GLC5        0.0000 
     53 CA          9.8490  -16.2950  -14.3120 C.3      12 GLL5        0.0000 
     54 CA         11.9880  -13.9130  -15.9720 C.3       8 GLP5        0.0000 
     55 CA          9.6517  -15.3395  -12.5717 C.3       4 GLC5        0.0000 
     56 CA          9.9420  -14.8980  -10.8090 C.3       8 GLP5        0.0000 
     57 CA          7.7445  -16.2602  -12.8912 C.3       4 GLC5        0.0000 
     58 CA          8.8740  -15.2670  -14.3570 C.3      12 GLL5        0.0000 
     59 CA          7.2540  -17.1320  -11.1160 C.3       8 GLP5        0.0000 
     60 CA         14.1113  -25.8338  -20.9342 C.3       4 GLC5        0.0000 
     61 CA         13.4950  -27.8790  -21.3830 C.3       8 GLP5        0.0000 
     62 CA         12.5375  -22.1733  -21.8717 C.3       4 GLC5        0.0000 
     63 CA         11.4650  -20.9800  -23.0650 C.3       8 GLP5        0.0000 
     64 CA         14.9642  -20.2060  -12.9895 C.3       4 GLC5        0.0000 
     65 CA         14.0820  -19.5970  -14.7870 C.3      12 GLL5        0.0000 
     66 CA         16.1610  -20.2270  -11.4650 C.3       8 GLP5        0.0000 
     67 CA         14.5813  -18.4708  -13.7416 C.3       4 GLC5        0.0000 
     68 CA         13.4530  -20.7730  -14.2410 C.3      12 GLL5        0.0000 
     69 CA         15.6050  -17.0760  -12.9450 C.3       8 GLP5        0.0000 
     70 CA         12.1227  -22.2853  -13.5023 C.3       4 GLC5        0.0000 
     71 CA         10.3640  -23.2250  -12.7700 C.3       8 GLP5        0.0000 
     72 CA         17.4117  -19.1025  -15.0207 C.3       4 GLC5        0.0000 
     73 CA         18.9670  -17.9980  -14.8240 C.3       8 GLP5        0.0000 
     74 CA         16.0087  -20.2170  -13.3412 C.3       4 GLC5        0.0000 
     75 CA         16.2950  -20.7760  -15.1760 C.3      12 GLL5        0.0000 
     76 CA         15.7308  -18.6415  -14.0813 C.3       4 GLC5        0.0000 
     77 CA         15.1396  -22.0854  -21.0741 C.3       4 GLC5        0.0000 
     78 CA         12.9930  -23.1350  -20.4170 C.3      12 GLL5        0.0000 
     79 CA         16.4190  -20.7090  -21.6970 C.3       8 GLP5        0.0000 
     80 CA          8.1178  -17.2520  -13.0575 C.3       4 GLC5        0.0000 
     81 CA          9.5370  -17.5910  -14.8040 C.3      12 GLL5        0.0000 
     82 CA         12.7770  -24.1687  -16.9282 C.3       4 GLC5        0.0000 
     83 CA         12.8450  -22.9610  -19.0320 C.3      12 GLL5        0.0000 
     84 CA         12.1103  -24.4544  -20.3946 C.3       4 GLC5        0.0000 
     85 CA         10.9930  -25.7450  -20.9340 C.3       8 GLP5        0.0000 
     86 CA         15.5768  -21.0815  -12.9420 C.3       4 GLC5        0.0000 
     87 CA          8.2812  -20.5617  -20.3507 C.3       4 GLC5        0.0000 
     88 CA          9.8860  -19.3250  -19.8370 C.3      12 GLL5        0.0000 
     89 CA          7.1720  -21.6530  -21.3440 C.3       8 GLP5        0.0000 
     90 CA          7.5697  -20.8663  -18.1472 C.3       4 GLC5        0.0000 
     91 CA          8.8950  -19.6160  -18.8780 C.3      12 GLL5        0.0000 
     92 CA          6.8150  -22.5200  -17.4030 C.3       8 GLP5        0.0000 
     93 CA          7.4200  -19.9775  -20.3663 C.3       4 GLC5        0.0000 
     94 CA          7.7540  -18.8090  -18.9050 C.3      12 GLL5        0.0000 
     95 CA          9.8145  -16.8920  -22.0918 C.3       4 GLC5        0.0000 
     96 CA          8.5840  -17.5070  -20.8320 C.3      12 GLL5        0.0000 
     97 CA         10.4520  -15.8990  -23.3890 C.3       8 GLP5        0.0000 
     98 CA          8.1745  -19.7690  -21.0693 C.3       4 GLC5        0.0000 
     99 CA          8.6140  -18.2635  -22.7127 C.3       4 GLC5        0.0000 
    100 CA          9.7700  -18.2630  -20.7570 C.3      12 GLL5        0.0000 
    101 CA          8.0510  -18.6420  -24.6310 C.3       8 GLP5        0.0000 
    102 CA         10.8051  -19.9873  -21.6883 C.3       4 GLC5        0.0000 
@<TRIPOS>BOND
@<TRIPOS>SUBSTRUCTURE
     1 ALC1       10 GROUP        1 X    ALC  0     ROOT ALC X 1
     2 SEC2        1 GROUP        1 X    SEC  0     **** SEC X 2
     3 ASC3       32 GROUP        1 X    ASC  0     **** ASC X 3
     4 GLC5        4 GROUP        1 X    GLC  0     **** GLC X 6
     5 ALP1       12 GROUP        1 Y    ALP  0     ROOT ALP Y 8
     6 SEP2        3 GROUP        1 Y    SEP  0     **** SEP Y 9
     7 ASP3       34 GROUP        1 Y    ASP  0     **** ASP Y 10
     8 GLP5        6 GROUP        1 Y    GLP  0     **** GLP Y 13
     9 ALL1       11 GROUP        1 Z    ALL  0     ROOT ALL Z 15
    10 SEL2        2 GROUP        1 Z    SEL  0     **** SEL Z 16
    11 ASL3       33 GROUP        1 Z    ASL  0     **** ASL Z 17
    12 GLL5        5 GROUP        1 Z    GLL  0     **** GLL Z 20
@<TRIPOS>SET

