#    Name: 2pwr_G4G_1_ligand
#    Modification time : Mon Mar 24 19:27:31 2014

@<TRIPOS>MOLECULE
2pwr_G4G_1_ligand
   77    81     1     0     0
SMALL
NO_CHARGES


@<TRIPOS>ATOM
      1 C1          8.8740  -15.2670  -14.3570 C.ar      1 G4G501      0.0000 
      2 O2         16.8530  -24.0050  -21.6940 O.2       1 G4G501      0.0000 
      3 N2          5.3670  -14.6590  -15.4520 N.am      1 G4G501      0.0000 
      4 C2         14.2270  -23.5980  -20.9400 C.ar      1 G4G501      0.0000 
      5 O1          6.9170  -13.2870  -14.6390 O.2       1 G4G501      0.0000 
      6 N1         17.2880  -25.3340  -19.9340 N.am      1 G4G501      0.0000 
      7 C3          7.2730  -16.8000  -15.4750 C.ar      1 G4G501      0.0000 
      8 C4          7.5960  -15.5100  -14.9760 C.ar      1 G4G501      0.0000 
      9 C5         15.0940  -23.8330  -18.6320 C.ar      1 G4G501      0.0000 
     10 C6         15.2280  -23.9790  -20.0310 C.ar      1 G4G501      0.0000 
     11 C7         13.2420  -18.3190  -14.8840 C.3       1 G4G501      0.0000 
     12 C8         16.5390  -24.4700  -20.6080 C.2       1 G4G501      0.0000 
     13 S8         10.6330  -18.9330  -14.7480 S.o2      1 G4G501      0.0000 
     14 C9          6.6180  -14.4160  -15.0120 C.2       1 G4G501      0.0000 
     15 S9         11.3540  -22.3180  -18.3090 S.o2      1 G4G501      0.0000 
     16 O10        10.0430  -20.1460  -15.3530 O.2       1 G4G501      0.0000 
     17 O11        11.4240  -22.6110  -16.8830 O.2       1 G4G501      0.0000 
     18 C12        14.0820  -19.5970  -14.7870 C.ar      1 G4G501      0.0000 
     19 C13        13.4530  -20.7730  -14.2410 C.ar      1 G4G501      0.0000 
     20 C14        15.4180  -19.6380  -15.2590 C.ar      1 G4G501      0.0000 
     21 C17         9.8490  -16.2950  -14.3120 C.ar      1 G4G501      0.0000 
     22 C18        12.9930  -23.1350  -20.4170 C.ar      1 G4G501      0.0000 
     23 C19         8.2700  -17.8010  -15.4400 C.ar      1 G4G501      0.0000 
     24 C20        13.8670  -23.3320  -18.1250 C.ar      1 G4G501      0.0000 
     25 C21        12.5410  -17.4910  -17.8800 C.3       1 G4G501      0.0000 
     26 N22        13.8470  -18.0760  -18.3150 N.4       1 G4G501      0.0000 
     27 C23        11.7810  -18.6080  -17.1530 C.3       1 G4G501      0.0000 
     28 C24        12.4750  -19.9660  -17.6010 C.3       1 G4G501      0.0000 
     29 C25        13.8070  -19.5310  -18.3050 C.3       1 G4G501      0.0000 
     30 C26         9.5370  -17.5910  -14.8040 C.ar      1 G4G501      0.0000 
     31 C27        12.8450  -22.9610  -19.0320 C.ar      1 G4G501      0.0000 
     32 N28        11.9980  -18.5700  -15.6760 N.pl3     1 G4G501      0.0000 
     33 C29        14.3100  -21.9180  -14.2280 C.ar      1 G4G501      0.0000 
     34 C30        16.2950  -20.7760  -15.1760 C.ar      1 G4G501      0.0000 
     35 C31        15.6750  -21.9540  -14.6100 C.ar      1 G4G501      0.0000 
     36 N32        11.6470  -20.6720  -18.6130 N.pl3     1 G4G501      0.0000 
     37 C33        11.1550  -20.1270  -19.8950 C.3       1 G4G501      0.0000 
     38 C34         9.8860  -19.3250  -19.8370 C.ar      1 G4G501      0.0000 
     39 C35         8.8950  -19.6160  -18.8780 C.ar      1 G4G501      0.0000 
     40 C36         7.7540  -18.8090  -18.9050 C.ar      1 G4G501      0.0000 
     41 C37         7.5820  -17.7950  -19.8720 C.ar      1 G4G501      0.0000 
     42 C38         9.7700  -18.2630  -20.7570 C.ar      1 G4G501      0.0000 
     43 C39         8.5840  -17.5070  -20.8320 C.ar      1 G4G501      0.0000 
     44 O40        10.2810  -22.7110  -19.1800 O.2       1 G4G501      0.0000 
     45 O41        11.1670  -19.0580  -13.3730 O.2       1 G4G501      0.0000 
     46 H           9.0670  -14.3539  -13.9549 H         1 G4G501      0.0000 
     47 H           4.7225  -13.8970  -15.3886 H         1 G4G501      0.0000 
     48 H           5.1949  -15.5796  -15.8026 H         1 G4G501      0.0000 
     49 H          14.3755  -23.6499  -21.9351 H         1 G4G501      0.0000 
     50 H          18.1601  -25.5826  -20.3554 H         1 G4G501      0.0000 
     51 H          16.9125  -25.6582  -19.0657 H         1 G4G501      0.0000 
     52 H           6.3556  -16.9932  -15.8438 H         1 G4G501      0.0000 
     53 H          15.8469  -24.0770  -18.0095 H         1 G4G501      0.0000 
     54 H          13.8408  -17.5430  -15.3615 H         1 G4G501      0.0000 
     55 H          12.9857  -17.9923  -13.8759 H         1 G4G501      0.0000 
     56 H          12.5433  -20.7815  -13.9176 H         1 G4G501      0.0000 
     57 H          15.8088  -18.7681  -15.7089 H         1 G4G501      0.0000 
     58 H          10.7730  -16.1063  -13.9275 H         1 G4G501      0.0000 
     59 H          12.2199  -22.9310  -21.0499 H         1 G4G501      0.0000 
     60 H           8.0880  -18.7150  -15.8841 H         1 G4G501      0.0000 
     61 H          13.7252  -23.2413  -17.1255 H         1 G4G501      0.0000 
     62 H          11.9672  -17.1754  -18.7316 H         1 G4G501      0.0000 
     63 H          12.7014  -16.6767  -17.1979 H         1 G4G501      0.0000 
     64 H          10.7932  -18.6500  -17.4188 H         1 G4G501      0.0000 
     65 H          12.6963  -20.5324  -16.7702 H         1 G4G501      0.0000 
     66 H          14.6244  -19.9537  -17.7392 H         1 G4G501      0.0000 
     67 H          13.7933  -19.9416  -19.3041 H         1 G4G501      0.0000 
     68 H          13.8754  -22.8319  -13.8979 H         1 G4G501      0.0000 
     69 H          17.2161  -20.7586  -15.4709 H         1 G4G501      0.0000 
     70 H          16.2255  -22.7964  -14.4920 H         1 G4G501      0.0000 
     71 H          11.0091  -20.9668  -20.6239 H         1 G4G501      0.0000 
     72 H          11.9538  -19.4912  -20.3592 H         1 G4G501      0.0000 
     73 H           9.0068  -20.3570  -18.2198 H         1 G4G501      0.0000 
     74 H           7.0101  -18.9545  -18.1979 H         1 G4G501      0.0000 
     75 H           6.7066  -17.2491  -19.8821 H         1 G4G501      0.0000 
     76 H          10.5565  -18.0394  -21.3768 H         1 G4G501      0.0000 
     77 H           8.4516  -16.8020  -21.5258 H         1 G4G501      0.0000 
@<TRIPOS>BOND
     1    8    1 ar   
     2   21    1 ar   
     3   46    1 1    
     4   12    2 2    
     5   14    3 am   
     6   47    3 1    
     7   48    3 1    
     8   10    4 ar   
     9   22    4 ar   
    10   49    4 1    
    11   14    5 2    
    12   12    6 am   
    13   50    6 1    
    14   51    6 1    
    15    8    7 ar   
    16   23    7 ar   
    17   52    7 1    
    18   14    8 1    
    19   10    9 ar   
    20   24    9 ar   
    21   53    9 1    
    22   12   10 1    
    23   18   11 1    
    24   32   11 1    
    25   54   11 1    
    26   55   11 1    
    27   16   13 2    
    28   30   13 1    
    29   32   13 1    
    30   45   13 2    
    31   17   15 2    
    32   31   15 1    
    33   36   15 1    
    34   44   15 2    
    35   19   18 ar   
    36   20   18 ar   
    37   33   19 ar   
    38   56   19 1    
    39   34   20 ar   
    40   57   20 1    
    41   30   21 ar   
    42   58   21 1    
    43   31   22 ar   
    44   59   22 1    
    45   30   23 ar   
    46   60   23 1    
    47   31   24 ar   
    48   61   24 1    
    49   26   25 1    
    50   27   25 1    
    51   62   25 1    
    52   63   25 1    
    53   29   26 1    
    54   28   27 1    
    55   32   27 1    
    56   64   27 1    
    57   29   28 1    
    58   36   28 1    
    59   65   28 1    
    60   66   29 1    
    61   67   29 1    
    62   35   33 ar   
    63   68   33 1    
    64   35   34 ar   
    65   69   34 1    
    66   70   35 1    
    67   37   36 1    
    68   38   37 1    
    69   71   37 1    
    70   72   37 1    
    71   39   38 ar   
    72   42   38 ar   
    73   40   39 ar   
    74   73   39 1    
    75   41   40 ar   
    76   74   40 1    
    77   43   41 ar   
    78   75   41 1    
    79   43   42 ar   
    80   76   42 1    
    81   77   43 1    
@<TRIPOS>SUBSTRUCTURE
     1 G4G501      1 GROUP   
@<TRIPOS>SET

