#    Name: 1yp4_ADQ_1_INTS_M
#    Modification time : Tue Mar 25 11:12:46 2014

@<TRIPOS>MOLECULE
1yp4_ADQ_1_INTS_M
   90     0    12     0     0
SMALL
NO_CHARGES


@<TRIPOS>ATOM
      1 NZ          8.8730   28.7680   49.7630 N.4       3 LYC4        0.0000 
      2 NZ          9.1080   28.7690   51.3940 N.4      11 LYL4        0.0000 
      3 NZ          8.3630   27.4820   47.9420 N.4       7 LYP4        0.0000 
      4 N           8.8730   28.7680   49.7630 N.am      2 SEC2        0.0000 
      5 N           9.1080   28.7690   51.3940 N.am     10 SEL2        0.0000 
      6 N           8.6380   28.7670   48.1320 N.am      6 SEP2        0.0000 
      7 N           8.4825   27.7660   50.1655 N.am      2 SEC2        0.0000 
      8 N           7.8570   26.7630   48.9370 N.am      6 SEP2        0.0000 
      9 NZ          7.2045   32.0140   50.8265 N.4       3 LYC4        0.0000 
     10 NZ          7.5880   30.9020   51.2590 N.4      11 LYL4        0.0000 
     11 NZ          6.8210   33.1260   50.3940 N.4       7 LYP4        0.0000 
     12 N           7.2045   32.0140   50.8265 N.am      2 SEC2        0.0000 
     13 N           7.5880   30.9020   51.2590 N.am     10 SEL2        0.0000 
     14 N           6.8210   33.1260   50.3940 N.am      6 SEP2        0.0000 
     15 CA          8.1570   24.7765   56.4340 C.3       4 GLC5        0.0000 
     16 CA          8.2160   25.8770   54.6390 C.3      12 GLL5        0.0000 
     17 CA          8.0980   23.6760   58.2290 C.3       8 GLP5        0.0000 
     18 CA          9.4045   23.3760   55.7425 C.3       4 GLC5        0.0000 
     19 CA          9.3720   24.9270   54.2750 C.3      12 GLL5        0.0000 
     20 CA          9.4370   21.8250   57.2100 C.3       8 GLP5        0.0000 
     21 CA         11.2390   25.1905   55.1425 C.3       4 GLC5        0.0000 
     22 CA         13.1060   25.4540   56.0100 C.3       8 GLP5        0.0000 
     23 O          12.0625   24.9940   51.5045 O.2       1 ALC1        0.0000 
     24 O          11.1780   25.1910   52.6400 O.2       9 ALL1        0.0000 
     25 O          12.9470   24.7970   50.3690 O.2       5 ALP1        0.0000 
     26 N          10.9420   22.8125   50.2920 N.am      2 SEC2        0.0000 
     27 N          10.6000   22.8150   51.6800 N.am     10 SEL2        0.0000 
     28 N          11.2840   22.8100   48.9040 N.am      6 SEP2        0.0000 
     29 O          10.4785   21.1955   51.9660 O.2       1 ALC1        0.0000 
     30 O          10.6000   22.8150   51.6800 O.2       9 ALL1        0.0000 
     31 O          10.3570   19.5760   52.2520 O.2       5 ALP1        0.0000 
     32 CA          9.1240   22.2830   55.3265 C.3       4 GLC5        0.0000 
     33 CA          8.8110   22.7410   53.4430 C.3      12 GLL5        0.0000 
     34 CA          2.4105   19.5215   54.2100 C.3       4 GLC5        0.0000 
     35 CA          4.5030   20.1340   53.8220 C.3      12 GLL5        0.0000 
     36 CA          0.3180   18.9090   54.5980 C.3       8 GLP5        0.0000 
     37 CA          2.8175   21.5915   54.0655 C.3       4 GLC5        0.0000 
     38 CA          1.1320   23.0490   54.3090 C.3       8 GLP5        0.0000 
     39 CA          4.0335   19.5345   55.7280 C.3       4 GLC5        0.0000 
     40 CA          3.5640   18.9350   57.6340 C.3       8 GLP5        0.0000 
     41 O           2.3070   20.7680   52.7975 O.2       1 ALC1        0.0000 
     42 O           3.2090   20.0920   53.4960 O.2       9 ALL1        0.0000 
     43 O           1.4050   21.4440   52.0990 O.2       5 ALP1        0.0000 
     44 O           2.5940   18.6305   54.0650 O.2       1 ALC1        0.0000 
     45 O           1.9790   17.1690   54.6340 O.2       5 ALP1        0.0000 
     46 CA          7.0395   17.9150   56.7225 C.3       4 GLC5        0.0000 
     47 CA          6.3900   19.0860   54.9590 C.3      12 GLL5        0.0000 
     48 CA          7.6890   16.7440   58.4860 C.3       8 GLP5        0.0000 
     49 CA          4.9770   19.0105   56.2965 C.3       4 GLC5        0.0000 
     50 CA          8.0770   21.5155   55.4980 C.3       4 GLC5        0.0000 
     51 CA          6.7170   21.2060   53.7860 C.3      12 GLL5        0.0000 
     52 CA          8.1390   35.2185   55.7125 C.3       4 GLC5        0.0000 
     53 CA          8.5120   33.0550   55.5970 C.3      12 GLL5        0.0000 
     54 CA          7.7660   37.3820   55.8280 C.3       8 GLP5        0.0000 
     55 CA         10.3350   34.3145   57.3475 C.3       4 GLC5        0.0000 
     56 CA         10.0550   33.2590   55.6610 C.3      12 GLL5        0.0000 
     57 CA         10.6150   35.3700   59.0340 C.3       8 GLP5        0.0000 
     58 CA         12.6610   33.9375   53.8540 C.3       4 GLC5        0.0000 
     59 CA         12.2930   32.3800   54.5510 C.3      12 GLL5        0.0000 
     60 CA         13.0290   35.4950   53.1570 C.3       8 GLP5        0.0000 
     61 CA         13.3465   32.6515   56.3545 C.3       4 GLC5        0.0000 
     62 CA         14.4000   32.9230   58.1580 C.3       8 GLP5        0.0000 
     63 CA         11.8975   31.4440   56.4560 C.3       4 GLC5        0.0000 
     64 CA         11.5020   30.5080   58.3610 C.3       8 GLP5        0.0000 
     65 CA         14.1925   32.4475   54.4480 C.3       4 GLC5        0.0000 
     66 CA         16.0920   32.5150   54.3450 C.3       8 GLP5        0.0000 
     67 O           6.0125   32.4250   54.8295 O.2       1 ALC1        0.0000 
     68 O           6.7070   31.3370   55.4060 O.2       9 ALL1        0.0000 
     69 O           5.3180   33.5130   54.2530 O.2       5 ALP1        0.0000 
     70 O           6.7450   34.4465   56.2050 O.2       1 ALC1        0.0000 
     71 O           7.8870   33.7780   56.6850 O.2       9 ALL1        0.0000 
     72 O           5.6030   35.1150   55.7250 O.2       5 ALP1        0.0000 
     73 N           9.5890   35.7270   55.0840 N.am      2 SEC2        0.0000 
     74 N          10.5200   34.6020   55.3460 N.am     10 SEL2        0.0000 
     75 N           8.6580   36.8520   54.8220 N.am      6 SEP2        0.0000 
     76 O          11.6640   34.6795   56.1055 O.2       1 ALC1        0.0000 
     77 O          10.5200   34.6020   55.3460 O.2       9 ALL1        0.0000 
     78 O          12.8080   34.7570   56.8650 O.2       5 ALP1        0.0000 
     79 CA          7.1835   24.9850   55.2190 C.3       4 GLC5        0.0000 
     80 CA          5.5730   24.5680   55.9810 C.3       8 GLP5        0.0000 
     81 CA          8.3090   21.7378   51.7028 C.3       4 GLC5        0.0000 
     82 CA          7.4930   20.3640   50.5580 C.3       8 GLP5        0.0000 
     83 CA          5.7962   22.8927   54.7852 C.3       4 GLC5        0.0000 
     84 CA          5.3220   21.2290   53.3930 C.3      12 GLL5        0.0000 
     85 CA          6.6539   20.6539   52.1274 C.3       4 GLC5        0.0000 
     86 CA         10.0233   30.7755   56.8058 C.3       4 GLC5        0.0000 
     87 CA          8.9590   30.5740   54.7830 C.3      12 GLL5        0.0000 
     88 CA         11.7150   34.1462   54.1412 C.3       4 GLC5        0.0000 
     89 CA         10.9515   31.6527   56.7432 C.3       4 GLC5        0.0000 
     90 CA         10.7470   32.3360   54.5900 C.3      12 GLL5        0.0000 
@<TRIPOS>BOND
@<TRIPOS>SUBSTRUCTURE
     1 ALC1       23 GROUP        1 X    ALC  0     ROOT ALC X 1
     2 SEC2        4 GROUP        1 X    SEC  0     **** SEC X 2
     3 LYC4        1 GROUP        1 X    LYC  0     **** LYC X 4
     4 GLC5       15 GROUP        1 X    GLC  0     **** GLC X 6
     5 ALP1       25 GROUP        1 Y    ALP  0     ROOT ALP Y 8
     6 SEP2        6 GROUP        1 Y    SEP  0     **** SEP Y 9
     7 LYP4        3 GROUP        1 Y    LYP  0     **** LYP Y 11
     8 GLP5       17 GROUP        1 Y    GLP  0     **** GLP Y 13
     9 ALL1       24 GROUP        1 Z    ALL  0     ROOT ALL Z 15
    10 SEL2        5 GROUP        1 Z    SEL  0     **** SEL Z 16
    11 LYL4        2 GROUP        1 Z    LYL  0     **** LYL Z 18
    12 GLL5       16 GROUP        1 Z    GLL  0     **** GLL Z 20
@<TRIPOS>SET

