#    Name: 1yp4_ADQ_1_ligand
#    Modification time : Tue Mar 25 11:12:46 2014

@<TRIPOS>MOLECULE
1yp4_ADQ_1_ligand
   61    64     1     0     0
SMALL
NO_CHARGES


@<TRIPOS>ATOM
      1 PB          8.1550   29.6520   52.1390 P.3       1 ADQ506      0.0000 
      2 O1B         9.1080   28.7690   51.3940 O.co2     1 ADQ506      0.0000 
      3 O2B         7.5880   30.9020   51.2590 O.co2     1 ADQ506      0.0000 
      4 O3B         8.8630   30.1550   53.3220 O.3       1 ADQ506      0.0000 
      5 PA          6.6150   27.4690   53.2160 P.3       1 ADQ506      0.0000 
      6 O1A         6.1510   26.4550   52.2530 O.co2     1 ADQ506      0.0000 
      7 O2A         5.5990   27.6770   54.2790 O.co2     1 ADQ506      0.0000 
      8 O3A         6.8980   28.7990   52.4310 O.3       1 ADQ506      0.0000 
      9 O5D         8.0870   27.0550   53.8040 O.3       1 ADQ506      0.0000 
     10 C5D         8.2160   25.8770   54.6390 C.3       1 ADQ506      0.0000 
     11 C4D         9.3720   24.9270   54.2750 C.3       1 ADQ506      0.0000 
     12 O4D         8.8920   23.6060   54.5920 O.3       1 ADQ506      0.0000 
     13 C3D         9.7630   24.8900   52.7950 C.3       1 ADQ506      0.0000 
     14 O3D        11.1780   25.1910   52.6400 O.3       1 ADQ506      0.0000 
     15 C2D         9.4390   23.4820   52.2520 C.3       1 ADQ506      0.0000 
     16 O2D        10.6000   22.8150   51.6800 O.3       1 ADQ506      0.0000 
     17 C1D         8.8110   22.7410   53.4430 C.3       1 ADQ506      0.0000 
     18 N9          7.2920   22.3160   53.2810 N.pl3     1 ADQ506      0.0000 
     19 C8          6.3040   22.9850   52.6160 C.2       1 ADQ506      0.0000 
     20 N7          5.1350   22.3180   52.6950 N.2       1 ADQ506      0.0000 
     21 C5          5.3220   21.2290   53.3930 C.ar      1 ADQ506      0.0000 
     22 C6          4.5030   20.1340   53.8220 C.ar      1 ADQ506      0.0000 
     23 N6          3.2090   20.0920   53.4960 N.pl3     1 ADQ506      0.0000 
     24 N1          5.0480   19.0950   54.5890 N.ar      1 ADQ506      0.0000 
     25 C2          6.3900   19.0860   54.9590 C.ar      1 ADQ506      0.0000 
     26 N3          7.1880   20.1360   54.5500 N.ar      1 ADQ506      0.0000 
     27 C4          6.7170   21.2060   53.7860 C.ar      1 ADQ506      0.0000 
     28 C1'         8.9590   30.5740   54.7830 C.3       1 ADQ506      0.0000 
     29 C2'         8.1300   31.5120   55.7180 C.3       1 ADQ506      0.0000 
     30 C3'         8.5120   33.0550   55.5970 C.3       1 ADQ506      0.0000 
     31 C4'        10.0550   33.2590   55.6610 C.3       1 ADQ506      0.0000 
     32 C5'        10.7470   32.3360   54.5900 C.3       1 ADQ506      0.0000 
     33 C6'        12.2930   32.3800   54.5510 C.3       1 ADQ506      0.0000 
     34 O2'         6.7070   31.3370   55.4060 O.3       1 ADQ506      0.0000 
     35 O3'         7.8870   33.7780   56.6850 O.3       1 ADQ506      0.0000 
     36 O4'        10.5200   34.6020   55.3460 O.3       1 ADQ506      0.0000 
     37 O5'        10.3720   30.9280   54.7740 O.3       1 ADQ506      0.0000 
     38 O6'        12.8040   31.3890   53.5840 O.3       1 ADQ506      0.0000 
     39 H           7.2754   25.2742   54.6195 H         1 ADQ506      0.0000 
     40 H           8.3509   26.1650   55.7102 H         1 ADQ506      0.0000 
     41 H          10.2223   25.1573   54.8705 H         1 ADQ506      0.0000 
     42 H           9.1502   25.5972   52.2684 H         1 ADQ506      0.0000 
     43 H           8.6468   23.6157   51.5123 H         1 ADQ506      0.0000 
     44 H           9.3792   21.8363   53.6334 H         1 ADQ506      0.0000 
     45 H           6.4368   23.8341   52.1480 H         1 ADQ506      0.0000 
     46 H           2.7050   19.2831   53.7988 H         1 ADQ506      0.0000 
     47 H           2.8601   20.8732   52.9783 H         1 ADQ506      0.0000 
     48 H           6.7680   18.3232   55.5164 H         1 ADQ506      0.0000 
     49 H           9.0230   29.5303   55.3536 H         1 ADQ506      0.0000 
     50 H           8.3165   31.2131   56.7433 H         1 ADQ506      0.0000 
     51 H           8.1610   33.3972   54.6461 H         1 ADQ506      0.0000 
     52 H          10.4192   32.9317   56.6155 H         1 ADQ506      0.0000 
     53 H          10.3907   32.6563   53.5979 H         1 ADQ506      0.0000 
     54 H          12.6619   32.1698   55.5545 H         1 ADQ506      0.0000 
     55 H          12.5948   33.3886   54.2700 H         1 ADQ506      0.0000 
     56 H          11.3941   24.9396   51.6966 H         1 ADQ506      0.0000 
     57 H          10.4496   21.8414   51.8516 H         1 ADQ506      0.0000 
     58 H           6.4132   32.2180   55.0352 H         1 ADQ506      0.0000 
     59 H           7.1159   34.2584   56.2671 H         1 ADQ506      0.0000 
     60 H          11.3729   34.7071   55.8574 H         1 ADQ506      0.0000 
     61 H          12.6827   30.5035   54.0325 H         1 ADQ506      0.0000 
@<TRIPOS>BOND
     1    2    1 ar   
     2    3    1 ar   
     3    4    1 1    
     4    8    1 1    
     5   28    4 1    
     6    6    5 ar   
     7    7    5 ar   
     8    8    5 1    
     9    9    5 1    
    10   10    9 1    
    11   11   10 1    
    12   39   10 1    
    13   40   10 1    
    14   12   11 1    
    15   13   11 1    
    16   41   11 1    
    17   17   12 1    
    18   14   13 1    
    19   15   13 1    
    20   42   13 1    
    21   56   14 1    
    22   16   15 1    
    23   17   15 1    
    24   43   15 1    
    25   57   16 1    
    26   18   17 1    
    27   44   17 1    
    28   19   18 1    
    29   27   18 1    
    30   20   19 2    
    31   45   19 1    
    32   21   20 1    
    33   22   21 ar   
    34   27   21 ar   
    35   23   22 1    
    36   24   22 ar   
    37   46   23 1    
    38   47   23 1    
    39   25   24 ar   
    40   26   25 ar   
    41   48   25 1    
    42   27   26 ar   
    43   29   28 1    
    44   37   28 1    
    45   49   28 1    
    46   30   29 1    
    47   34   29 1    
    48   50   29 1    
    49   31   30 1    
    50   35   30 1    
    51   51   30 1    
    52   32   31 1    
    53   36   31 1    
    54   52   31 1    
    55   33   32 1    
    56   37   32 1    
    57   53   32 1    
    58   38   33 1    
    59   54   33 1    
    60   55   33 1    
    61   58   34 1    
    62   59   35 1    
    63   60   36 1    
    64   61   38 1    
@<TRIPOS>SUBSTRUCTURE
     1 ADQ506      1 GROUP   
@<TRIPOS>SET

