#    Name: 1z3w_IDC_1_INTS_M
#    Modification time : Tue Mar 25 11:26:51 2014

@<TRIPOS>MOLECULE
1z3w_IDC_1_INTS_M
   47     0     9     0     0
SMALL
NO_CHARGES


@<TRIPOS>ATOM
      1 CA          2.1860    8.4510   23.4570 C.3       3 GLC5        0.0000 
      2 CA          3.9750    9.4380   23.4730 C.3       9 GLL5        0.0000 
      3 CA          0.3970    7.4640   23.4410 C.3       6 GLP5        0.0000 
      4 CA          3.0420    6.7600   23.0880 C.3       3 GLC5        0.0000 
      5 CA          5.0320    7.2200   23.0960 C.3       9 GLL5        0.0000 
      6 CA          1.0520    6.3000   23.0800 C.3       6 GLP5        0.0000 
      7 CA          3.3375    6.2310   24.3300 C.3       3 GLC5        0.0000 
      8 CA          5.1820    7.0730   24.6140 C.3       9 GLL5        0.0000 
      9 CA          1.4930    5.3890   24.0460 C.3       6 GLP5        0.0000 
     10 CA          2.7210    6.7580   25.3605 C.3       3 GLC5        0.0000 
     11 CA          4.1160    7.8920   25.3410 C.3       9 GLL5        0.0000 
     12 CA          1.3260    5.6240   25.3800 C.3       6 GLP5        0.0000 
     13 CA          3.8335    5.9975   27.6265 C.3       3 GLC5        0.0000 
     14 CA          4.3940    7.8950   26.8350 C.3       9 GLL5        0.0000 
     15 CA          3.2730    4.1000   28.4180 C.3       6 GLP5        0.0000 
     16 CA          2.5390    7.3485   26.2905 C.3       3 GLC5        0.0000 
     17 CA          0.6840    6.8020   25.7460 C.3       6 GLP5        0.0000 
     18 O           5.3840   10.0045   20.7185 O.2       1 ALC1        0.0000 
     19 O           4.8960    8.8660   21.3160 O.2       7 ALL1        0.0000 
     20 O           5.8720   11.1430   20.1210 O.2       4 ALP1        0.0000 
     21 N           7.1060    7.1105   21.5230 N.am      2 SEC2        0.0000 
     22 N           6.0480    6.5230   22.3690 N.am      8 SEL2        0.0000 
     23 N           8.1640    7.6980   20.6770 N.am      5 SEP2        0.0000 
     24 N           7.2460    6.3225   23.1780 N.am      2 SEC2        0.0000 
     25 N           8.4440    6.1220   23.9870 N.am      5 SEP2        0.0000 
     26 O           5.3840    5.4015   21.9525 O.2       1 ALC1        0.0000 
     27 O           6.0480    6.5230   22.3690 O.2       7 ALL1        0.0000 
     28 O           4.7200    4.2800   21.5360 O.2       4 ALP1        0.0000 
     29 O           4.6905    4.6535   24.3025 O.2       1 ALC1        0.0000 
     30 O           5.0270    5.7160   25.0120 O.2       7 ALL1        0.0000 
     31 O           4.3540    3.5910   23.5930 O.2       4 ALP1        0.0000 
     32 CA          0.3985   11.7425   24.7655 C.3       3 GLC5        0.0000 
     33 CA          1.8270   13.4460   24.5940 C.3       9 GLL5        0.0000 
     34 CA         -1.0300   10.0390   24.9370 C.3       6 GLP5        0.0000 
     35 CA          0.4350   13.7565   25.7005 C.3       3 GLC5        0.0000 
     36 CA         -0.9570   14.0670   26.8070 C.3       6 GLP5        0.0000 
     37 N           4.8995   11.7790   26.2345 N.am      2 SEC2        0.0000 
     38 N           3.3300   11.9490   25.6820 N.am      8 SEL2        0.0000 
     39 N           6.4690   11.6090   26.7870 N.am      5 SEP2        0.0000 
     40 N           4.5775   12.8215   25.8745 N.am      2 SEC2        0.0000 
     41 N           5.8250   13.6940   26.0670 N.am      5 SEP2        0.0000 
     42 N          -0.5215   11.2890   21.5805 N.am      2 SEC2        0.0000 
     43 N           0.7950   10.7580   21.4830 N.am      8 SEL2        0.0000 
     44 N          -1.8380   11.8200   21.6780 N.am      5 SEP2        0.0000 
     45 CA          4.7613   12.4045   22.0815 C.3       3 GLC5        0.0000 
     46 CA          2.7030   12.3070   21.9290 C.3       9 GLL5        0.0000 
     47 CA          6.7240   12.8470   21.5590 C.3       6 GLP5        0.0000 
@<TRIPOS>BOND
@<TRIPOS>SUBSTRUCTURE
     1 ALC1       18 GROUP        1 X    ALC  0     ROOT ALC X 1
     2 SEC2       21 GROUP        1 X    SEC  0     **** SEC X 2
     3 GLC5        1 GROUP        1 X    GLC  0     **** GLC X 6
     4 ALP1       20 GROUP        1 Y    ALP  0     ROOT ALP Y 8
     5 SEP2       23 GROUP        1 Y    SEP  0     **** SEP Y 9
     6 GLP5        3 GROUP        1 Y    GLP  0     **** GLP Y 13
     7 ALL1       19 GROUP        1 Z    ALL  0     ROOT ALL Z 15
     8 SEL2       22 GROUP        1 Z    SEL  0     **** SEL Z 16
     9 GLL5        2 GROUP        1 Z    GLL  0     **** GLL Z 20
@<TRIPOS>SET

