#    Name: 1z3w_IDC_1_ligand
#    Modification time : Tue Mar 25 11:26:51 2014

@<TRIPOS>MOLECULE
1z3w_IDC_1_ligand
   47    49     1     0     0
SMALL
NO_CHARGES


@<TRIPOS>ATOM
      1 C1A         3.9750    9.4380   23.4730 C.3       1 IDC600      0.0000 
      2 C2A         5.0620    8.6900   22.7150 C.3       1 IDC600      0.0000 
      3 C3A         5.0320    7.2200   23.0960 C.3       1 IDC600      0.0000 
      4 C4A         5.1820    7.0730   24.6140 C.3       1 IDC600      0.0000 
      5 C5A         4.1160    7.8920   25.3410 C.3       1 IDC600      0.0000 
      6 C6A         4.3940    7.8950   26.8350 C.3       1 IDC600      0.0000 
      7 O2A         4.8960    8.8660   21.3160 O.3       1 IDC600      0.0000 
      8 O3A         6.0480    6.5230   22.3690 O.3       1 IDC600      0.0000 
      9 O4A         5.0270    5.7160   25.0120 O.3       1 IDC600      0.0000 
     10 O5A         4.1650    9.2310   24.8620 O.3       1 IDC600      0.0000 
     11 O6A         5.7070    8.4100   27.0340 O.3       1 IDC600      0.0000 
     12 C1B         1.5840   14.0820   23.2640 C.2       1 IDC600      0.0000 
     13 C2B         1.8270   13.4460   24.5940 C.3       1 IDC600      0.0000 
     14 C3B         3.0830   12.6080   24.4380 C.3       1 IDC600      0.0000 
     15 C4B         2.8940   11.6170   23.2790 C.3       1 IDC600      0.0000 
     16 C5B         2.7030   12.3070   21.9290 C.3       1 IDC600      0.0000 
     17 C6B         1.9010   11.4640   20.9260 C.3       1 IDC600      0.0000 
     18 O2B         2.0540   14.4230   25.6000 O.3       1 IDC600      0.0000 
     19 O3B         3.3300   11.9490   25.6820 O.3       1 IDC600      0.0000 
     20 O4B         4.0650   10.8210   23.1740 O.3       1 IDC600      0.0000 
     21 N1B         1.9600   13.5510   22.1140 N.pl3     1 IDC600      0.0000 
     22 O6B         0.7950   10.7580   21.4830 O.3       1 IDC600      0.0000 
     23 N2B         0.9500   15.2310   23.0400 N.2       1 IDC600      0.0000 
     24 C7B         0.9550   15.4000   21.7140 C.2       1 IDC600      0.0000 
     25 C8B         1.5850   14.3660   21.1350 C.2       1 IDC600      0.0000 
     26 H           3.0251    9.0350   23.1516 H         1 IDC600      0.0000 
     27 H           6.0224    9.0957   23.0458 H         1 IDC600      0.0000 
     28 H           4.0400    6.8408   22.8264 H         1 IDC600      0.0000 
     29 H           6.1469    7.4577   24.9023 H         1 IDC600      0.0000 
     30 H           3.1624    7.4428   25.1663 H         1 IDC600      0.0000 
     31 H           4.2982    6.8723   27.1988 H         1 IDC600      0.0000 
     32 H           3.6369    8.5119   27.3186 H         1 IDC600      0.0000 
     33 H           1.0201   12.7918   24.8286 H         1 IDC600      0.0000 
     34 H           3.8930   13.2771   24.1811 H         1 IDC600      0.0000 
     35 H           2.0337   11.0087   23.4797 H         1 IDC600      0.0000 
     36 H           3.6651   12.5206   21.4974 H         1 IDC600      0.0000 
     37 H           2.6237   10.7653   20.4369 H         1 IDC600      0.0000 
     38 H           1.5726   12.1540   20.1101 H         1 IDC600      0.0000 
     39 H           0.5626   16.1562   21.2381 H         1 IDC600      0.0000 
     40 H           1.7319   14.2466   20.1933 H         1 IDC600      0.0000 
     41 H           4.8431    9.8559   21.1843 H         1 IDC600      0.0000 
     42 H           5.6087    5.6825   22.0518 H         1 IDC600      0.0000 
     43 H           4.7305    5.2364   24.1861 H         1 IDC600      0.0000 
     44 H           6.3062    7.6101   27.0019 H         1 IDC600      0.0000 
     45 H           1.5341   15.2245   25.3043 H         1 IDC600      0.0000 
     46 H           3.6559   11.0374   25.4316 H         1 IDC600      0.0000 
     47 H           0.5943   10.0316   20.8257 H         1 IDC600      0.0000 
@<TRIPOS>BOND
     1    2    1 1    
     2   10    1 1    
     3   20    1 1    
     4   26    1 1    
     5    3    2 1    
     6    7    2 1    
     7   27    2 1    
     8    4    3 1    
     9    8    3 1    
    10   28    3 1    
    11    5    4 1    
    12    9    4 1    
    13   29    4 1    
    14    6    5 1    
    15   10    5 1    
    16   30    5 1    
    17   11    6 1    
    18   31    6 1    
    19   32    6 1    
    20   41    7 1    
    21   42    8 1    
    22   43    9 1    
    23   44   11 1    
    24   13   12 1    
    25   21   12 1    
    26   23   12 2    
    27   14   13 1    
    28   18   13 1    
    29   33   13 1    
    30   15   14 1    
    31   19   14 1    
    32   34   14 1    
    33   16   15 1    
    34   20   15 1    
    35   35   15 1    
    36   17   16 1    
    37   21   16 1    
    38   36   16 1    
    39   22   17 1    
    40   37   17 1    
    41   38   17 1    
    42   45   18 1    
    43   46   19 1    
    44   25   21 1    
    45   47   22 1    
    46   24   23 1    
    47   25   24 2    
    48   39   24 1    
    49   40   25 1    
@<TRIPOS>SUBSTRUCTURE
     1 IDC600      1 GROUP   
@<TRIPOS>SET

