#    Name: 3td8_D2R_1_INTS_M
#    Modification time : Mon Mar 24 19:32:44 2014

@<TRIPOS>MOLECULE
3td8_D2R_1_INTS_M
   96     0    12     0     0
SMALL
NO_CHARGES


@<TRIPOS>ATOM
      1 CA          8.5840   -1.6985   12.4045 C.3       4 GLC5        0.0000 
      2 CA         10.6290   -2.1000   12.1000 C.3      12 GLL5        0.0000 
      3 CA          6.5390   -1.2970   12.7090 C.3       8 GLP5        0.0000 
      4 CA          9.9915   -2.6945   13.9445 C.3       4 GLC5        0.0000 
      5 CA          9.3540   -3.2890   15.7890 C.3       8 GLP5        0.0000 
      6 CA         11.4620   -3.9090   12.4870 C.3       4 GLC5        0.0000 
      7 CA         12.2950   -5.7180   12.8740 C.3       8 GLP5        0.0000 
      8 CA         10.1930   -1.0490   10.3945 C.3       4 GLC5        0.0000 
      9 CA          9.7570    0.0020    8.6890 C.3       8 GLP5        0.0000 
     10 N          11.9485   -2.8690   10.3480 N.am      2 SEC2        0.0000 
     11 N          11.6560   -1.8720   11.2790 N.am     10 SEL2        0.0000 
     12 N          12.2410   -3.8660    9.4170 N.am      6 SEP2        0.0000 
     13 CA         11.0700   -0.3765   10.0595 C.3       4 GLC5        0.0000 
     14 CA         12.3830   -0.7550   11.4300 C.3      12 GLL5        0.0000 
     15 CA         10.2070   -1.7395   14.5945 C.3       4 GLC5        0.0000 
     16 CA         11.0600   -0.1900   13.4000 C.3      12 GLL5        0.0000 
     17 CA         17.6710    0.3615   14.7975 C.3       4 GLC5        0.0000 
     18 CA         18.1600    2.3660   15.4310 C.3      12 GLL5        0.0000 
     19 CA         17.1820   -1.6430   14.1640 C.3       8 GLP5        0.0000 
     20 CA         17.5110    4.0000   16.8335 C.3       4 GLC5        0.0000 
     21 CA         16.8620    5.6340   18.2360 C.3       8 GLP5        0.0000 
     22 CA         19.2055    3.4485   15.7345 C.3       4 GLC5        0.0000 
     23 CA         20.2510    4.5310   16.0380 C.3       8 GLP5        0.0000 
     24 CA         18.2685    1.4720   16.8770 C.3       4 GLC5        0.0000 
     25 CA         18.3770    0.5780   18.3230 C.3       8 GLP5        0.0000 
     26 CA         11.4425    2.9385   12.4810 C.3       4 GLC5        0.0000 
     27 CA         12.8520    2.4190   13.7090 C.3      12 GLL5        0.0000 
     28 CA         10.0330    3.4580   11.2530 C.3       8 GLP5        0.0000 
     29 CA         11.9120    4.1620   14.1095 C.3       4 GLC5        0.0000 
     30 CA         10.9720    5.9050   14.5100 C.3       8 GLP5        0.0000 
     31 CA         13.2050    1.2340   15.0755 C.3       4 GLC5        0.0000 
     32 CA         13.5580    0.0490   16.4420 C.3       8 GLP5        0.0000 
     33 O           9.3470   -4.2245   13.1395 O.2       1 ALC1        0.0000 
     34 O           9.8870   -3.2100   11.8780 O.2       9 ALL1        0.0000 
     35 O           8.8070   -5.2390   14.4010 O.2       5 ALP1        0.0000 
     36 O          10.0655   -3.9865   10.7590 O.2       1 ALC1        0.0000 
     37 O          10.2440   -4.7630    9.6400 O.2       5 ALP1        0.0000 
     38 O           9.5850   -0.0270   15.2620 O.2       1 ALC1        0.0000 
     39 O          10.7220    0.5680   14.4510 O.2       9 ALL1        0.0000 
     40 O           8.4480   -0.6220   16.0730 O.2       5 ALP1        0.0000 
     41 O          10.9845    1.3995   15.5310 O.2       1 ALC1        0.0000 
     42 O          11.2470    2.2310   16.6110 O.2       5 ALP1        0.0000 
     43 NZ         10.2390    5.6745    7.4360 N.4       3 LYC4        0.0000 
     44 NZ         11.5420    4.9540    7.0480 N.4      11 LYL4        0.0000 
     45 NZ          8.8560    7.6200    7.2860 N.4       7 LYP4        0.0000 
     46 N          10.2390    5.6745    7.4360 N.am      2 SEC2        0.0000 
     47 N          11.5420    4.9540    7.0480 N.am     10 SEL2        0.0000 
     48 N           8.9360    6.3950    7.8240 N.am      6 SEP2        0.0000 
     49 NZ         10.9200    7.2830    6.0085 N.4       3 LYC4        0.0000 
     50 NZ         12.0690    6.5540    5.6200 N.4      11 LYL4        0.0000 
     51 N          10.9200    7.2830    6.0085 N.am      2 SEC2        0.0000 
     52 N          12.0690    6.5540    5.6200 N.am     10 SEL2        0.0000 
     53 N           9.7710    8.0120    6.3970 N.am      6 SEP2        0.0000 
     54 CA         17.4710    4.8610    7.3095 C.3       4 GLC5        0.0000 
     55 CA         16.2630    3.3810    8.3950 C.3      12 GLL5        0.0000 
     56 CA         18.6790    6.3410    6.2240 C.3       8 GLP5        0.0000 
     57 CA         18.8670    4.5215   11.5540 C.3       4 GLC5        0.0000 
     58 CA         18.6620    2.4060   10.8630 C.3      12 GLL5        0.0000 
     59 CA         19.0720    6.6370   12.2450 C.3       8 GLP5        0.0000 
     60 CA         16.6465    5.4290    6.5100 C.3       4 GLC5        0.0000 
     61 CA         15.7670    3.7770    7.0630 C.3      12 GLL5        0.0000 
     62 CA         17.5260    7.0810    5.9570 C.3       8 GLP5        0.0000 
     63 CA         15.3800    6.0335    5.4180 C.3       4 GLC5        0.0000 
     64 CA         13.8040    5.0530    6.1520 C.3      12 GLL5        0.0000 
     65 CA         16.9560    7.0140    4.6840 C.3       8 GLP5        0.0000 
     66 N          18.9410    0.8355   15.7940 N.am      2 SEC2        0.0000 
     67 N          18.7740    1.5370   14.4300 N.am     10 SEL2        0.0000 
     68 N          19.1080    0.1340   17.1580 N.am      6 SEP2        0.0000 
     69 CA         19.2730    3.2200   14.6210 C.3       4 GLC5        0.0000 
     70 CA         18.2950    1.9090   13.2040 C.3      12 GLL5        0.0000 
     71 CA         16.2975    1.2830    9.2515 C.3       4 GLC5        0.0000 
     72 CA         17.2810    2.6560   10.7320 C.3      12 GLL5        0.0000 
     73 CA         15.3140   -0.0900    7.7710 C.3       8 GLP5        0.0000 
     74 CA         15.9060    1.5665    8.3517 C.3       4 GLC5        0.0000 
     75 CA         16.7330    3.0650    9.4700 C.3      12 GLL5        0.0000 
     76 CA         18.6280    4.1348    9.8995 C.3       4 GLC5        0.0000 
     77 CA         20.2490    5.4090    9.6980 C.3       8 GLP5        0.0000 
     78 CA         18.1045    0.5463   11.5808 C.3       4 GLC5        0.0000 
     79 CA         17.2870   -1.1190   11.6820 C.3       8 GLP5        0.0000 
     80 CA         19.5855    3.8102   10.5888 C.3       4 GLC5        0.0000 
     81 CA         19.1820    2.0170   12.0960 C.3      12 GLL5        0.0000 
     82 CA         15.6740   -0.0435   11.4330 C.3       4 GLC5        0.0000 
     83 CA         13.9930    1.5120   11.6850 C.3      12 GLL5        0.0000 
     84 CA         14.6875    0.4710    9.4775 C.3       4 GLC5        0.0000 
     85 CA         14.1290    0.5520   10.6830 C.3      12 GLL5        0.0000 
     86 CA         17.4470    0.4555   12.4062 C.3       4 GLC5        0.0000 
     87 CA         16.9190    2.1510   13.0570 C.3      12 GLL5        0.0000 
     88 CA         13.5165    6.0332    7.9617 C.3       4 GLC5        0.0000 
     89 CA         14.2800    4.0420    7.1810 C.3      12 GLL5        0.0000 
     90 CA         12.9910    7.5190    9.2570 C.3       8 GLP5        0.0000 
     91 CA         14.2519    2.6441    5.9790 C.3       4 GLC5        0.0000 
     92 CA         14.0900    0.8070    5.3210 C.3       8 GLP5        0.0000 
     93 CA         17.0650    0.7305   11.4795 C.3       4 GLC5        0.0000 
     94 CA         16.4050    2.5040   11.8220 C.3      12 GLL5        0.0000 
     95 CA         16.5815    4.5362   12.1586 C.3       4 GLC5        0.0000 
     96 CA         16.6240    6.4700   12.9170 C.3       8 GLP5        0.0000 
@<TRIPOS>BOND
@<TRIPOS>SUBSTRUCTURE
     1 ALC1       33 GROUP        1 X    ALC  0     ROOT ALC X 1
     2 SEC2       10 GROUP        1 X    SEC  0     **** SEC X 2
     3 LYC4       43 GROUP        1 X    LYC  0     **** LYC X 4
     4 GLC5        1 GROUP        1 X    GLC  0     **** GLC X 6
     5 ALP1       35 GROUP        1 Y    ALP  0     ROOT ALP Y 8
     6 SEP2       12 GROUP        1 Y    SEP  0     **** SEP Y 9
     7 LYP4       45 GROUP        1 Y    LYP  0     **** LYP Y 11
     8 GLP5        3 GROUP        1 Y    GLP  0     **** GLP Y 13
     9 ALL1       34 GROUP        1 Z    ALL  0     ROOT ALL Z 15
    10 SEL2       11 GROUP        1 Z    SEL  0     **** SEL Z 16
    11 LYL4       44 GROUP        1 Z    LYL  0     **** LYL Z 18
    12 GLL5        2 GROUP        1 Z    GLL  0     **** GLL Z 20
@<TRIPOS>SET

