#    Name: 3td8_D2R_1_ligand
#    Modification time : Mon Mar 24 19:32:44 2014

@<TRIPOS>MOLECULE
3td8_D2R_1_ligand
   52    54     1     0     0
SMALL
NO_CHARGES


@<TRIPOS>ATOM
      1 N1         10.3280   -1.2690   13.1140 N.ar      1 D2R302      0.0000 
      2 C2         10.6290   -2.1000   12.1000 C.ar      1 D2R302      0.0000 
      3 N3         11.6560   -1.8720   11.2790 N.ar      1 D2R302      0.0000 
      4 C4         12.3830   -0.7550   11.4300 C.ar      1 D2R302      0.0000 
      5 C5         12.1480    0.1490   12.5120 C.ar      1 D2R302      0.0000 
      6 C6         11.0600   -0.1900   13.4000 C.ar      1 D2R302      0.0000 
      7 CAA        18.1600    2.3660   15.4310 C.3       1 D2R302      0.0000 
      8 CAB        12.8520    2.4190   13.7090 C.3       1 D2R302      0.0000 
      9 NAC         9.8870   -3.2100   11.8780 N.pl3     1 D2R302      0.0000 
     10 NAD        10.7220    0.5680   14.4510 N.pl3     1 D2R302      0.0000 
     11 OAE        11.5420    4.9540    7.0480 O.co2     1 D2R302      0.0000 
     12 OAF        12.0690    6.5540    5.6200 O.co2     1 D2R302      0.0000 
     13 CAG        16.2630    3.3810    8.3950 C.1       1 D2R302      0.0000 
     14 CAH        16.7330    3.0650    9.4700 C.1       1 D2R302      0.0000 
     15 CAI        19.1820    2.0170   12.0960 C.ar      1 D2R302      0.0000 
     16 CAJ        18.6620    2.4060   10.8630 C.ar      1 D2R302      0.0000 
     17 CAK        14.1290    0.5520   10.6830 C.ar      1 D2R302      0.0000 
     18 CAL        16.9190    2.1510   13.0570 C.ar      1 D2R302      0.0000 
     19 CAM        15.7670    3.7770    7.0630 C.3       1 D2R302      0.0000 
     20 CAN        14.2800    4.0420    7.1810 C.3       1 D2R302      0.0000 
     21 CAO        13.8040    5.0530    6.1520 C.3       1 D2R302      0.0000 
     22 CAP        14.9320    2.7700   11.6970 C.3       1 D2R302      0.0000 
     23 NAQ        13.3720   -0.5460   10.5490 N.ar      1 D2R302      0.0000 
     24 OAT        18.7740    1.5370   14.4300 O.3       1 D2R302      0.0000 
     25 CAU        12.3590    5.5540    6.3010 C.2       1 D2R302      0.0000 
     26 CAX        12.9640    1.3230   12.6220 C.ar      1 D2R302      0.0000 
     27 CAY        18.2950    1.9090   13.2040 C.ar      1 D2R302      0.0000 
     28 CAZ        17.2810    2.6560   10.7320 C.ar      1 D2R302      0.0000 
     29 CBA        13.9930    1.5120   11.6850 C.ar      1 D2R302      0.0000 
     30 CBB        16.4050    2.5040   11.8220 C.ar      1 D2R302      0.0000 
     31 H           9.4772   -3.6341   12.6856 H         1 D2R302      0.0000 
     32 H           9.8143   -3.5076   10.9261 H         1 D2R302      0.0000 
     33 H           9.7526    0.5732   14.6961 H         1 D2R302      0.0000 
     34 H          11.4693    1.0609   14.8965 H         1 D2R302      0.0000 
     35 H          20.1659    1.8129   12.2151 H         1 D2R302      0.0000 
     36 H          19.2752    2.5119   10.0505 H         1 D2R302      0.0000 
     37 H          14.9126    0.7262    9.9684 H         1 D2R302      0.0000 
     38 H          16.3013    2.0632   13.8737 H         1 D2R302      0.0000 
     39 H          15.9281    2.9822    6.3440 H         1 D2R302      0.0000 
     40 H          16.2609    4.6805    6.7249 H         1 D2R302      0.0000 
     41 H          14.0575    4.4189    8.1850 H         1 D2R302      0.0000 
     42 H          13.7325    3.1035    7.0430 H         1 D2R302      0.0000 
     43 H          13.9180    4.6143    5.1346 H         1 D2R302      0.0000 
     44 H          14.4830    5.9356    6.1714 H         1 D2R302      0.0000 
     45 H          14.5942    3.4253   12.5297 H         1 D2R302      0.0000 
     46 H          14.7289    3.3416   10.7648 H         1 D2R302      0.0000 
     47 H          18.4754    2.1328   16.3509 H         1 D2R302      0.0000 
     48 H          18.3644    3.3343   15.2877 H         1 D2R302      0.0000 
     49 H          17.1643    2.2734   15.4303 H         1 D2R302      0.0000 
     50 H          12.9909    2.0473   14.6269 H         1 D2R302      0.0000 
     51 H          13.5312    3.1414   13.5794 H         1 D2R302      0.0000 
     52 H          11.9532    2.8573   13.7032 H         1 D2R302      0.0000 
@<TRIPOS>BOND
     1    2    1 ar   
     2    6    1 ar   
     3    3    2 ar   
     4    9    2 1    
     5    4    3 ar   
     6    5    4 ar   
     7   23    4 ar   
     8    6    5 ar   
     9   26    5 ar   
    10   10    6 1    
    11   24    7 1    
    12   47    7 1    
    13   48    7 1    
    14   49    7 1    
    15   26    8 1    
    16   50    8 1    
    17   51    8 1    
    18   52    8 1    
    19   31    9 1    
    20   32    9 1    
    21   33   10 1    
    22   34   10 1    
    23   25   11 ar   
    24   25   12 ar   
    25   14   13 3    
    26   19   13 1    
    27   28   14 1    
    28   16   15 ar   
    29   27   15 ar   
    30   35   15 1    
    31   28   16 ar   
    32   36   16 1    
    33   23   17 ar   
    34   29   17 ar   
    35   37   17 1    
    36   27   18 ar   
    37   30   18 ar   
    38   38   18 1    
    39   20   19 1    
    40   39   19 1    
    41   40   19 1    
    42   21   20 1    
    43   41   20 1    
    44   42   20 1    
    45   25   21 1    
    46   43   21 1    
    47   44   21 1    
    48   29   22 1    
    49   30   22 1    
    50   45   22 1    
    51   46   22 1    
    52   27   24 1    
    53   29   26 ar   
    54   30   28 ar   
@<TRIPOS>SUBSTRUCTURE
     1 D2R302      1 GROUP   
@<TRIPOS>SET

