#    Name: 1qbq_HFP_1_INTS_M
#    Modification time : Mon Mar 24 23:20:30 2014

@<TRIPOS>MOLECULE
1qbq_HFP_1_INTS_M
   67     0     9     0     0
SMALL
NO_CHARGES


@<TRIPOS>ATOM
      1 NZ        199.2320  128.4680   32.5685 N.4       2 LYC4        0.0000 
      2 NZ        198.9400  126.9520   32.6260 N.4       8 LYL4        0.0000 
      3 NZ        199.5240  129.9840   32.5110 N.4       5 LYP4        0.0000 
      4 N         199.2320  128.4680   32.5685 N.am      1 SEC2        0.0000 
      5 N         198.9400  126.9520   32.6260 N.am      7 SEL2        0.0000 
      6 N         199.5240  129.9840   32.5110 N.am      4 SEP2        0.0000 
      7 N         200.0135  125.6515   32.2730 N.am      1 SEC2        0.0000 
      8 N         201.0870  124.3510   31.9200 N.am      4 SEP2        0.0000 
      9 NZ        199.5860  124.4985   32.5275 N.4       2 LYC4        0.0000 
     10 NZ        198.0850  124.6460   33.1350 N.4       8 LYL4        0.0000 
     11 NZ        201.4290  123.0790   31.8620 N.4       5 LYP4        0.0000 
     12 N         197.2545  123.4765   32.9365 N.am      1 SEC2        0.0000 
     13 N         198.0850  124.6460   33.1350 N.am      7 SEL2        0.0000 
     14 N         196.4240  122.3070   32.7380 N.am      4 SEP2        0.0000 
     15 N         199.5860  124.4985   32.5275 N.am      1 SEC2        0.0000 
     16 CA        198.2595  124.8965   29.4805 C.3       3 GLC5        0.0000 
     17 CA        197.1530  125.9630   30.9050 C.3       9 GLL5        0.0000 
     18 CA        199.3660  123.8300   28.0560 C.3       6 GLP5        0.0000 
     19 N         196.0880  127.8865   29.5895 N.am      1 SEC2        0.0000 
     20 N         197.3570  127.2210   30.2330 N.am      7 SEL2        0.0000 
     21 N         194.8190  128.5520   28.9460 N.am      4 SEP2        0.0000 
     22 CA        196.9670  123.0190   28.0775 C.3       3 GLC5        0.0000 
     23 CA        195.9350  124.0970   29.0060 C.3       9 GLL5        0.0000 
     24 CA        197.9990  121.9410   27.1490 C.3       6 GLP5        0.0000 
     25 CA        196.5935  122.7100   30.6315 C.3       3 GLC5        0.0000 
     26 CA        197.2520  121.3230   32.2570 C.3       6 GLP5        0.0000 
     27 CA        192.7730  125.1650   28.4320 C.3       3 GLC5        0.0000 
     28 CA        193.6120  124.5120   30.1220 C.3       9 GLL5        0.0000 
     29 CA        191.9340  125.8180   26.7420 C.3       6 GLP5        0.0000 
     30 CA        193.4985  122.8895   28.8960 C.3       3 GLC5        0.0000 
     31 CA        193.3850  121.2670   27.6700 C.3       6 GLP5        0.0000 
     32 CA        190.8125  123.3190   35.6910 C.3       3 GLC5        0.0000 
     33 CA        191.3850  124.1140   33.9120 C.3       9 GLL5        0.0000 
     34 CA        190.2400  122.5240   37.4700 C.3       6 GLP5        0.0000 
     35 CA        190.8525  121.1135   33.3280 C.3       3 GLC5        0.0000 
     36 CA        189.8710  122.3880   32.6710 C.3       9 GLL5        0.0000 
     37 CA        191.8340  119.8390   33.9850 C.3       6 GLP5        0.0000 
     38 CA        189.0865  122.5040   34.5055 C.3       3 GLC5        0.0000 
     39 CA        188.3020  122.6200   36.3400 C.3       6 GLP5        0.0000 
     40 CA        187.9620  122.9795   33.7155 C.3       3 GLC5        0.0000 
     41 CA        188.7720  122.9300   31.7860 C.3       9 GLL5        0.0000 
     42 CA        187.1520  123.0290   35.6450 C.3       6 GLP5        0.0000 
     43 CA        184.6640  124.7895   30.7040 C.3       3 GLC5        0.0000 
     44 CA        186.2070  123.5610   30.4170 C.3       9 GLL5        0.0000 
     45 CA        183.1210  126.0180   30.9910 C.3       6 GLP5        0.0000 
     46 CA        187.4470  123.2945   29.0145 C.3       3 GLC5        0.0000 
     47 CA        188.6870  123.0280   27.6120 C.3       6 GLP5        0.0000 
     48 CA        183.0450  121.9690   32.3075 C.3       3 GLC5        0.0000 
     49 CA        185.1120  121.5150   31.5740 C.3       9 GLL5        0.0000 
     50 CA        180.9780  122.4230   33.0410 C.3       6 GLP5        0.0000 
     51 CA        184.3650  119.8655   31.3980 C.3       3 GLC5        0.0000 
     52 CA        183.6180  118.2160   31.2220 C.3       6 GLP5        0.0000 
     53 CA        195.0265  122.6008   28.9015 C.3       3 GLC5        0.0000 
     54 CA        195.1050  124.7900   30.0580 C.3       9 GLL5        0.0000 
     55 CA        194.5330  120.7580   28.2710 C.3       6 GLP5        0.0000 
     56 CA        191.6379  121.7835   33.5054 C.3       3 GLC5        0.0000 
     57 CA        191.9070  123.3810   31.6060 C.3       9 GLL5        0.0000 
     58 CA        184.4130  123.6663   31.8362 C.3       3 GLC5        0.0000 
     59 CA        186.3380  122.3820   31.3550 C.3       9 GLL5        0.0000 
     60 CA        183.1010  125.3840   32.2080 C.3       6 GLP5        0.0000 
     61 CA        187.8764  121.9836   29.7415 C.3       3 GLC5        0.0000 
     62 CA        188.5130  121.5200   27.8660 C.3       6 GLP5        0.0000 
     63 CA        186.7716  120.2174   31.2084 C.3       3 GLC5        0.0000 
     64 CA        187.5110  122.0950   31.9720 C.3       9 GLL5        0.0000 
     65 CA        187.5250  118.5580   30.7980 C.3       6 GLP5        0.0000 
     66 CA        186.1486  121.9669   33.4149 C.3       3 GLC5        0.0000 
     67 CA        186.2790  122.0570   35.2110 C.3       6 GLP5        0.0000 
@<TRIPOS>BOND
@<TRIPOS>SUBSTRUCTURE
     1 SEC2        4 GROUP        1 X    SEC  0     ROOT SEC X 2
     2 LYC4        1 GROUP        1 X    LYC  0     **** LYC X 4
     3 GLC5       16 GROUP        1 X    GLC  0     **** GLC X 6
     4 SEP2        6 GROUP        1 Y    SEP  0     ROOT SEP Y 9
     5 LYP4        3 GROUP        1 Y    LYP  0     **** LYP Y 11
     6 GLP5       18 GROUP        1 Y    GLP  0     **** GLP Y 13
     7 SEL2        5 GROUP        1 Z    SEL  0     ROOT SEL Z 16
     8 LYL4        2 GROUP        1 Z    LYL  0     **** LYL Z 18
     9 GLL5       17 GROUP        1 Z    GLL  0     **** GLL Z 20
@<TRIPOS>SET

