#    Name: 1qbq_HFP_1_ligand
#    Modification time : Mon Mar 24 23:20:30 2014

@<TRIPOS>MOLECULE
1qbq_HFP_1_ligand
   51    50     1     0     0
SMALL
NO_CHARGES


@<TRIPOS>ATOM
      1 P         197.7660  126.0930   32.6320 P.3       1 HFP2001     0.0000 
      2 O1P       198.9400  126.9520   32.6260 O.co2     1 HFP2001     0.0000 
      3 O2P       198.0850  124.6460   33.1350 O.co2     1 HFP2001     0.0000 
      4 O3P       196.6260  126.6790   33.4890 O.co2     1 HFP2001     0.0000 
      5 C1        197.1530  125.9630   30.9050 C.3       1 HFP2001     0.0000 
      6 O1        197.3570  127.2210   30.2330 O.3       1 HFP2001     0.0000 
      7 C2        195.6740  125.6470   30.9190 C.3       1 HFP2001     0.0000 
      8 C3        195.1050  124.7900   30.0580 C.3       1 HFP2001     0.0000 
      9 C4        195.9350  124.0970   29.0060 C.3       1 HFP2001     0.0000 
     10 C5        193.6120  124.5120   30.1220 C.3       1 HFP2001     0.0000 
     11 C6        193.1310  124.2850   31.5860 C.3       1 HFP2001     0.0000 
     12 C7        191.9070  123.3810   31.6060 C.3       1 HFP2001     0.0000 
     13 C8        191.0900  123.3030   32.6730 C.3       1 HFP2001     0.0000 
     14 C9        191.3850  124.1140   33.9120 C.3       1 HFP2001     0.0000 
     15 C10       189.8710  122.3880   32.6710 C.3       1 HFP2001     0.0000 
     16 C11       188.7720  122.9300   31.7860 C.3       1 HFP2001     0.0000 
     17 C12       187.5110  122.0950   31.9720 C.3       1 HFP2001     0.0000 
     18 C13       186.3380  122.3820   31.3550 C.3       1 HFP2001     0.0000 
     19 C14       186.2070  123.5610   30.4170 C.3       1 HFP2001     0.0000 
     20 C15       185.1120  121.5150   31.5740 C.3       1 HFP2001     0.0000 
     21 H         197.7242  125.1673   30.5259 H         1 HFP2001     0.0000 
     22 H         195.1457  126.6868   30.8935 H         1 HFP2001     0.0000 
     23 H         195.4410  125.3548   32.0242 H         1 HFP2001     0.0000 
     24 H         195.3323  123.6773   30.9502 H         1 HFP2001     0.0000 
     25 H         193.3766  123.6199   29.5414 H         1 HFP2001     0.0000 
     26 H         193.0605  125.3556   29.7067 H         1 HFP2001     0.0000 
     27 H         192.8867  125.2475   32.0209 H         1 HFP2001     0.0000 
     28 H         193.9381  123.8266   32.1461 H         1 HFP2001     0.0000 
     29 H         192.3052  122.3336   31.2971 H         1 HFP2001     0.0000 
     30 H         191.3207  123.6521   30.6397 H         1 HFP2001     0.0000 
     31 H         190.2669  124.3792   32.1810 H         1 HFP2001     0.0000 
     32 H         189.4994  122.2871   33.6949 H         1 HFP2001     0.0000 
     33 H         190.1698  121.3969   32.3172 H         1 HFP2001     0.0000 
     34 H         189.0818  122.8829   30.7468 H         1 HFP2001     0.0000 
     35 H         188.5610  123.9605   32.0536 H         1 HFP2001     0.0000 
     36 H         187.3713  122.0187   33.1256 H         1 HFP2001     0.0000 
     37 H         187.8434  121.0003   31.7544 H         1 HFP2001     0.0000 
     38 H         185.9148  123.2236   32.4484 H         1 HFP2001     0.0000 
     39 H         196.3759  124.7505   28.3907 H         1 HFP2001     0.0000 
     40 H         196.6605  123.5413   29.4119 H         1 HFP2001     0.0000 
     41 H         195.3816  123.4874   28.4384 H         1 HFP2001     0.0000 
     42 H         192.2732  123.8791   34.3069 H         1 HFP2001     0.0000 
     43 H         191.4004  125.0950   33.7188 H         1 HFP2001     0.0000 
     44 H         190.6991  123.9663   34.6246 H         1 HFP2001     0.0000 
     45 H         186.4126  124.4253   30.8759 H         1 HFP2001     0.0000 
     46 H         186.8301  123.4871   29.6383 H         1 HFP2001     0.0000 
     47 H         185.2818  123.6392   30.0457 H         1 HFP2001     0.0000 
     48 H         185.2694  120.5700   31.2873 H         1 HFP2001     0.0000 
     49 H         184.8432  121.4882   32.5368 H         1 HFP2001     0.0000 
     50 H         184.3232  121.8502   31.0587 H         1 HFP2001     0.0000 
     51 H         197.8957  127.7709   30.8713 H         1 HFP2001     0.0000 
@<TRIPOS>BOND
     1    2    1 ar   
     2    3    1 ar   
     3    4    1 ar   
     4    5    1 1    
     5    6    5 1    
     6    7    5 1    
     7   21    5 1    
     8   51    6 1    
     9    8    7 1    
    10   22    7 1    
    11   23    7 1    
    12    9    8 1    
    13   10    8 1    
    14   24    8 1    
    15   39    9 1    
    16   40    9 1    
    17   41    9 1    
    18   11   10 1    
    19   25   10 1    
    20   26   10 1    
    21   12   11 1    
    22   27   11 1    
    23   28   11 1    
    24   13   12 1    
    25   29   12 1    
    26   30   12 1    
    27   14   13 1    
    28   15   13 1    
    29   31   13 1    
    30   42   14 1    
    31   43   14 1    
    32   44   14 1    
    33   16   15 1    
    34   32   15 1    
    35   33   15 1    
    36   17   16 1    
    37   34   16 1    
    38   35   16 1    
    39   18   17 1    
    40   36   17 1    
    41   37   17 1    
    42   19   18 1    
    43   20   18 1    
    44   38   18 1    
    45   45   19 1    
    46   46   19 1    
    47   47   19 1    
    48   48   20 1    
    49   49   20 1    
    50   50   20 1    
@<TRIPOS>SUBSTRUCTURE
     1 HFP2001     1 GROUP   
@<TRIPOS>SET

