#    Name: 1l2s_STC_3_INTS_M
#    Modification time : Tue Mar 25 10:54:27 2014

@<TRIPOS>MOLECULE
1l2s_STC_3_INTS_M
   40     0     6     0     0
SMALL
NO_CHARGES


@<TRIPOS>ATOM
      1 CA         49.4845   -1.9345   20.4500 C.3       2 GLC5        0.0000 
      2 CA         50.3880   -3.3260   21.2360 C.3       6 GLL5        0.0000 
      3 CA         48.5810   -0.5430   19.6640 C.3       4 GLP5        0.0000 
      4 CA         54.0890   -5.1435   22.5735 C.3       2 GLC5        0.0000 
      5 CA         52.1200   -4.9330   21.9250 C.3       6 GLL5        0.0000 
      6 CA         56.0580   -5.3540   23.2220 C.3       4 GLP5        0.0000 
      7 CA         49.1790   -2.7090   19.5570 C.3       2 GLC5        0.0000 
      8 CA         50.6170   -3.6700   19.8840 C.3       6 GLL5        0.0000 
      9 CA         47.7410   -1.7480   19.2300 C.3       4 GLP5        0.0000 
     10 CA         50.6055   -5.5495   16.6045 C.3       2 GLC5        0.0000 
     11 CA         51.8780   -5.0840   17.9200 C.3       6 GLL5        0.0000 
     12 CA         49.3330   -6.0150   15.2890 C.3       4 GLP5        0.0000 
     13 CA         50.4105   -6.1045   18.3560 C.3       2 GLC5        0.0000 
     14 CA         48.9430   -7.1250   18.7920 C.3       4 GLP5        0.0000 
     15 CA         52.6730   -3.4360   18.0645 C.3       2 GLC5        0.0000 
     16 CA         53.4680   -1.7880   18.2090 C.3       4 GLP5        0.0000 
     17 N          51.2365   -2.8455   26.8710 N.am      1 SEC2        0.0000 
     18 N          51.5920   -2.1040   25.5610 N.am      5 SEL2        0.0000 
     19 N          50.8810   -3.5870   28.1810 N.am      3 SEP2        0.0000 
     20 CA         52.0650    0.0380   20.0050 C.3       2 GLC5        0.0000 
     21 CA         51.8130    0.8950   21.9990 C.3       6 GLL5        0.0000 
     22 CA         52.3170   -0.8190   18.0110 C.3       4 GLP5        0.0000 
     23 N          47.8110    0.6590   23.3530 N.am      1 SEC2        0.0000 
     24 N          49.0530    0.7200   22.9180 N.am      5 SEL2        0.0000 
     25 N          46.5690    0.5980   23.7880 N.am      3 SEP2        0.0000 
     26 CA         51.1215   -6.5672   20.3505 C.3       2 GLC5        0.0000 
     27 CA         50.0090   -8.0290   19.4480 C.3       4 GLP5        0.0000 
     28 CA         50.0247   -5.6423   19.2575 C.3       2 GLC5        0.0000 
     29 CA         51.5960   -4.6490   19.5620 C.3       6 GLL5        0.0000 
     30 CA         52.5976   -3.2534   19.1805 C.3       2 GLC5        0.0000 
     31 CA         50.0560   -0.0708   21.0385 C.3       2 GLC5        0.0000 
     32 CA         51.2490   -0.0920   22.8270 C.3       6 GLL5        0.0000 
     33 CA         55.2228    0.5375   21.7302 C.3       2 GLC5        0.0000 
     34 CA         53.4340   -0.6000   22.5210 C.3       6 GLL5        0.0000 
     35 CA         57.1460    1.0910   21.2940 C.3       4 GLP5        0.0000 
     36 CA         53.9912   -0.4425   20.2623 C.3       2 GLC5        0.0000 
     37 CA         53.1650    0.5680   21.8120 C.3       6 GLL5        0.0000 
     38 CA         54.6830   -0.8690   18.3580 C.3       4 GLP5        0.0000 
     39 CA         53.4583   -0.2205   24.1916 C.3       2 GLC5        0.0000 
     40 CA         54.3890   -0.1580   25.8020 C.3       4 GLP5        0.0000 
@<TRIPOS>BOND
@<TRIPOS>SUBSTRUCTURE
     1 SEC2       17 GROUP        1 X    SEC  0     ROOT SEC X 2
     2 GLC5        1 GROUP        1 X    GLC  0     **** GLC X 6
     3 SEP2       19 GROUP        1 Y    SEP  0     ROOT SEP Y 9
     4 GLP5        3 GROUP        1 Y    GLP  0     **** GLP Y 13
     5 SEL2       18 GROUP        1 Z    SEL  0     ROOT SEL Z 16
     6 GLL5        2 GROUP        1 Z    GLL  0     **** GLL Z 20
@<TRIPOS>SET

