#    Name: 1l2s_STC_3_ligand
#    Modification time : Tue Mar 25 10:54:27 2014

@<TRIPOS>MOLECULE
1l2s_STC_3_ligand
   26    27     1     0     0
SMALL
NO_CHARGES


@<TRIPOS>ATOM
      1 N1         50.9460   -3.6190   23.5860 N.pl3     1 STC3115     0.0000 
      2 C2         51.1410   -3.9620   22.2510 C.ar      1 STC3115     0.0000 
      3 C3         50.3880   -3.3260   21.2360 C.ar      1 STC3115     0.0000 
      4 C4         52.1200   -4.9330   21.9250 C.ar      1 STC3115     0.0000 
      5 C5         50.6170   -3.6700   19.8840 C.ar      1 STC3115     0.0000 
      6 C6         52.3480   -5.2780   20.5810 C.ar      1 STC3115     0.0000 
      7 C7         51.5960   -4.6490   19.5620 C.ar      1 STC3115     0.0000 
      8 CL8        51.8780   -5.0840   17.9200 Cl        1 STC3115     0.0000 
      9 S13        52.0910   -2.5070   24.2750 S.o2      1 STC3115     0.0000 
     10 C15        52.2620   -1.0080   23.1650 C.2       1 STC3115     0.0000 
     11 O16        51.5920   -2.1040   25.5610 O.2       1 STC3115     0.0000 
     12 O17        53.3620   -3.1560   24.4130 O.2       1 STC3115     0.0000 
     13 C18        51.2490   -0.0920   22.8270 C.2       1 STC3115     0.0000 
     14 C19        53.4340   -0.6000   22.5210 C.2       1 STC3115     0.0000 
     15 S20        51.8130    0.8950   21.9990 S.3       1 STC3115     0.0000 
     16 C21        49.8310   -0.1500   23.2590 C.2       1 STC3115     0.0000 
     17 C22        53.1650    0.5680   21.8120 C.2       1 STC3115     0.0000 
     18 O23        49.4040   -1.1430   23.9960 O.co2     1 STC3115     0.0000 
     19 O24        49.0530    0.7200   22.9180 O.co2     1 STC3115     0.0000 
     20 H          50.2815   -3.8864   24.2171 H         1 STC3115     0.0000 
     21 H          49.6895   -2.6288   21.4769 H         1 STC3115     0.0000 
     22 H          52.6577   -5.3797   22.6697 H         1 STC3115     0.0000 
     23 H          50.0852   -3.2208   19.1422 H         1 STC3115     0.0000 
     24 H          53.0495   -5.9760   20.3394 H         1 STC3115     0.0000 
     25 H          54.2700   -1.0459   22.5621 H         1 STC3115     0.0000 
     26 H          53.7827    1.0608   21.2921 H         1 STC3115     0.0000 
@<TRIPOS>BOND
     1    2    1 1    
     2    9    1 1    
     3   20    1 1    
     4    3    2 ar   
     5    4    2 ar   
     6    5    3 ar   
     7   21    3 1    
     8    6    4 ar   
     9   22    4 1    
    10    7    5 ar   
    11   23    5 1    
    12    7    6 ar   
    13   24    6 1    
    14    8    7 1    
    15   10    9 1    
    16   11    9 2    
    17   12    9 2    
    18   13   10 2    
    19   14   10 1    
    20   15   13 1    
    21   16   13 1    
    22   17   14 2    
    23   25   14 1    
    24   17   15 1    
    25   18   16 ar   
    26   19   16 ar   
    27   26   17 1    
@<TRIPOS>SUBSTRUCTURE
     1 STC3115     1 GROUP   
@<TRIPOS>SET

