#    Name: 1k7l_544_1_INTS_M
#    Modification time : Tue Mar 25 09:41:08 2014

@<TRIPOS>MOLECULE
1k7l_544_1_INTS_M
  111     0     6     0     0
SMALL
NO_CHARGES


@<TRIPOS>ATOM
      1 CA        -18.2940  -13.5955   -2.3965 C.3       2 GLC5        0.0000 
      2 CA        -19.6200  -12.4640   -0.9740 C.3       6 GLL5        0.0000 
      3 CA        -16.9680  -14.7270   -3.8190 C.3       4 GLP5        0.0000 
      4 CA        -20.8280   -9.7150   -2.1285 C.3       2 GLC5        0.0000 
      5 CA        -19.5310  -11.0570   -1.6980 C.3       6 GLL5        0.0000 
      6 CA        -22.1250   -8.3730   -2.5590 C.3       4 GLP5        0.0000 
      7 CA        -20.4805  -11.5145   -5.9720 C.3       2 GLC5        0.0000 
      8 CA        -19.3650  -11.3180   -4.2620 C.3       6 GLL5        0.0000 
      9 CA        -21.5960  -11.7110   -7.6820 C.3       4 GLP5        0.0000 
     10 CA        -19.5475  -10.9595   -6.9645 C.3       2 GLC5        0.0000 
     11 CA        -18.6110  -11.3820   -5.4580 C.3       6 GLL5        0.0000 
     12 CA        -20.4840  -10.5370   -8.4710 C.3       4 GLP5        0.0000 
     13 CA        -20.6385  -17.0200   -0.2285 C.3       2 GLC5        0.0000 
     14 CA        -19.5260  -15.7020   -0.4520 C.3       6 GLL5        0.0000 
     15 CA        -21.7510  -18.3380   -0.0050 C.3       4 GLP5        0.0000 
     16 CA        -17.5045  -15.5060   -0.0570 C.3       2 GLC5        0.0000 
     17 CA        -15.4830  -15.3100    0.3380 C.3       4 GLP5        0.0000 
     18 CA        -19.4270  -16.2835    1.6170 C.3       2 GLC5        0.0000 
     19 CA        -19.3280  -16.8650    3.6860 C.3       4 GLP5        0.0000 
     20 CA        -22.8505  -14.6725   -6.0885 C.3       2 GLC5        0.0000 
     21 CA        -21.4670  -15.6880   -6.6250 C.3       6 GLL5        0.0000 
     22 CA        -24.2340  -13.6570   -5.5520 C.3       4 GLP5        0.0000 
     23 CA        -23.4115  -15.5855   -7.0215 C.3       2 GLC5        0.0000 
     24 CA        -21.7310  -16.5590   -7.7200 C.3       6 GLL5        0.0000 
     25 CA        -25.0920  -14.6120   -6.3230 C.3       4 GLP5        0.0000 
     26 CA        -21.8680  -19.0230   -9.0850 C.3       2 GLC5        0.0000 
     27 CA        -21.6570  -17.9640   -7.5310 C.3       6 GLL5        0.0000 
     28 CA        -22.0790  -20.0820  -10.6390 C.3       4 GLP5        0.0000 
     29 CA        -17.3015  -14.3505   -7.2115 C.3       2 GLC5        0.0000 
     30 CA        -17.4200  -13.6920   -8.8580 C.3       6 GLL5        0.0000 
     31 CA        -17.1830  -15.0090   -5.5650 C.3       4 GLP5        0.0000 
     32 CA        -18.1330  -12.3770   -9.9845 C.3       2 GLC5        0.0000 
     33 CA        -18.8460  -11.0620  -11.1110 C.3       4 GLP5        0.0000 
     34 CA        -18.9520  -12.1145   -8.6645 C.3       2 GLC5        0.0000 
     35 CA        -13.1380  -15.0135  -10.0335 C.3       2 GLC5        0.0000 
     36 CA        -13.3750  -16.6320   -8.6980 C.3       6 GLL5        0.0000 
     37 CA        -12.9010  -13.3950  -11.3690 C.3       4 GLP5        0.0000 
     38 CA        -11.6995  -15.0410   -9.6965 C.3       2 GLC5        0.0000 
     39 CA        -11.9300  -16.6070   -8.4790 C.3       6 GLL5        0.0000 
     40 CA        -11.4690  -13.4750  -10.9140 C.3       4 GLP5        0.0000 
     41 CA         -9.2175  -17.8750   -8.4460 C.3       2 GLC5        0.0000 
     42 CA        -11.1600  -17.7980   -8.5680 C.3       6 GLL5        0.0000 
     43 CA         -7.2750  -17.9520   -8.3240 C.3       4 GLP5        0.0000 
     44 CA        -15.0990  -17.5030  -10.7300 C.3       2 GLC5        0.0000 
     45 CA        -13.9860  -17.8890   -9.0010 C.3       6 GLL5        0.0000 
     46 CA        -16.2120  -17.1170  -12.4590 C.3       4 GLP5        0.0000 
     47 CA        -16.1305  -13.2260   -6.1345 C.3       2 GLC5        0.0000 
     48 CA        -15.0780  -11.4430   -6.7040 C.3       6 GLL5        0.0000 
     49 CA        -14.0410  -10.6135   -4.9855 C.3       2 GLC5        0.0000 
     50 CA        -13.0040   -9.7840   -3.2670 C.3       4 GLP5        0.0000 
     51 CA        -16.0525  -11.0180   -9.4250 C.3       2 GLC5        0.0000 
     52 CA        -14.6980  -11.8190   -8.1390 C.3       6 GLL5        0.0000 
     53 CA        -17.4070  -10.2170  -10.7110 C.3       4 GLP5        0.0000 
     54 CA        -13.7995  -12.6070   -9.7540 C.3       2 GLC5        0.0000 
     55 N         -17.9575  -11.6280    0.8440 N.am      1 SEC2        0.0000 
     56 N         -19.1070  -12.1830    1.3180 N.am      5 SEL2        0.0000 
     57 N         -16.8080  -11.0730    0.3700 N.am      3 SEP2        0.0000 
     58 N         -19.3745  -11.4865    2.4380 N.am      1 SEC2        0.0000 
     59 N         -19.6420  -10.7900    3.5580 N.am      3 SEP2        0.0000 
     60 N         -22.0085  -12.0610    1.5155 N.am      1 SEC2        0.0000 
     61 N         -21.1600  -12.7460    0.8070 N.am      5 SEL2        0.0000 
     62 N         -22.8570  -11.3760    2.2240 N.am      3 SEP2        0.0000 
     63 CA        -19.9378  -10.4793    0.2670 C.3       2 GLC5        0.0000 
     64 CA        -20.3000   -9.1980    1.8700 C.3       4 GLP5        0.0000 
     65 CA        -18.0008  -12.9730   -3.7240 C.3       2 GLC5        0.0000 
     66 CA        -18.7020  -11.1200   -2.9960 C.3       6 GLL5        0.0000 
     67 CA        -16.9398  -12.8720   -3.6770 C.3       2 GLC5        0.0000 
     68 CA        -16.5370  -11.0480   -4.1230 C.3       6 GLL5        0.0000 
     69 CA        -14.9577  -10.4005   -3.4010 C.3       2 GLC5        0.0000 
     70 CA        -17.1998   -9.3475   -4.6425 C.3       2 GLC5        0.0000 
     71 CA        -17.4880   -7.6780   -5.7500 C.3       4 GLP5        0.0000 
     72 CA        -17.5415  -13.1625   -5.5015 C.3       2 GLC5        0.0000 
     73 CA        -17.1890  -11.2500   -5.4180 C.3       6 GLL5        0.0000 
     74 CA        -17.7882   -9.4890   -5.4445 C.3       2 GLC5        0.0000 
     75 CA        -20.7125  -17.0985   -1.7517 C.3       2 GLC5        0.0000 
     76 CA        -19.9730  -14.9840   -1.7440 C.3       6 GLL5        0.0000 
     77 CA        -21.2630  -18.8300   -1.2200 C.3       4 GLP5        0.0000 
     78 CA        -18.4060  -15.1308   -2.5934 C.3       2 GLC5        0.0000 
     79 CA        -20.3510  -15.7500   -2.8230 C.3       6 GLL5        0.0000 
     80 CA        -19.2400  -15.4798   -5.7690 C.3       2 GLC5        0.0000 
     81 CA        -21.1270  -16.2130   -5.3210 C.3       6 GLL5        0.0000 
     82 CA        -22.9007  -16.7330   -4.9870 C.3       2 GLC5        0.0000 
     83 CA        -24.7080  -16.5390   -4.7360 C.3       4 GLP5        0.0000 
     84 CA        -21.7770  -14.4553   -8.1333 C.3       2 GLC5        0.0000 
     85 CA        -21.9550  -12.7870   -9.0940 C.3       4 GLP5        0.0000 
     86 CA        -19.7415  -17.8747   -7.6702 C.3       2 GLC5        0.0000 
     87 CA        -17.7890  -18.4880   -7.7150 C.3       4 GLP5        0.0000 
     88 CA        -20.9630  -16.9372   -9.4162 C.3       2 GLC5        0.0000 
     89 CA        -20.2320  -16.6130  -11.2070 C.3       4 GLP5        0.0000 
     90 CA        -23.0933  -19.3313   -7.0717 C.3       2 GLC5        0.0000 
     91 CA        -24.6960  -20.4290   -7.2510 C.3       4 GLP5        0.0000 
     92 CA        -23.0992  -17.3863   -5.8142 C.3       2 GLC5        0.0000 
     93 CA        -19.4905  -18.2800   -6.7097 C.3       2 GLC5        0.0000 
     94 CA        -21.3240  -18.5030   -6.2540 C.3       6 GLL5        0.0000 
     95 CA        -19.8110  -18.6240   -4.4817 C.3       2 GLC5        0.0000 
     96 CA        -18.4300  -19.1760   -3.2590 C.3       4 GLP5        0.0000 
     97 CA        -16.2790  -14.3798   -7.0538 C.3       2 GLC5        0.0000 
     98 CA        -15.9500  -14.1450   -8.6950 C.3       6 GLL5        0.0000 
     99 CA        -14.1380  -13.5727   -9.9558 C.3       2 GLC5        0.0000 
    100 CA        -16.3425  -14.0098  -10.9243 C.3       2 GLC5        0.0000 
    101 CA        -16.0000  -14.1010  -13.0720 C.3       4 GLP5        0.0000 
    102 CA        -13.0592  -20.4725  -10.2990 C.3       2 GLC5        0.0000 
    103 CA        -11.7830  -19.0260   -8.8690 C.3       6 GLL5        0.0000 
    104 CA        -13.6320  -21.8930  -11.6210 C.3       4 GLP5        0.0000 
    105 CA        -15.2545  -19.5478   -8.9165 C.3       2 GLC5        0.0000 
    106 CA        -13.1900  -19.0780   -9.0850 C.3       6 GLL5        0.0000 
    107 CA        -16.9210  -20.6120   -8.7900 C.3       4 GLP5        0.0000 
    108 CA        -12.0629  -19.0075   -7.1949 C.3       2 GLC5        0.0000 
    109 CA        -11.7950  -19.2700   -5.4880 C.3       4 GLP5        0.0000 
    110 CA        -13.0476  -17.5256   -6.9909 C.3       2 GLC5        0.0000 
    111 CA        -12.7760  -17.7970   -5.1870 C.3       4 GLP5        0.0000 
@<TRIPOS>BOND
@<TRIPOS>SUBSTRUCTURE
     1 SEC2       55 GROUP        1 X    SEC  0     ROOT SEC X 2
     2 GLC5        1 GROUP        1 X    GLC  0     **** GLC X 6
     3 SEP2       57 GROUP        1 Y    SEP  0     ROOT SEP Y 9
     4 GLP5        3 GROUP        1 Y    GLP  0     **** GLP Y 13
     5 SEL2       56 GROUP        1 Z    SEL  0     ROOT SEL Z 16
     6 GLL5        2 GROUP        1 Z    GLL  0     **** GLL Z 20
@<TRIPOS>SET

