#    Name: 1k7l_544_1_ligand
#    Modification time : Tue Mar 25 09:41:08 2014

@<TRIPOS>MOLECULE
1k7l_544_1_ligand
   68    71     1     0     0
SMALL
NO_CHARGES


@<TRIPOS>ATOM
      1 N         -20.0030  -13.6120   -1.9140 N.4       1 544469      0.0000 
      2 CA        -19.6200  -12.4640   -0.9740 C.3       1 544469      0.0000 
      3 CB        -19.5310  -11.0570   -1.6980 C.3       1 544469      0.0000 
      4 CG        -18.7020  -11.1200   -2.9960 C.ar      1 544469      0.0000 
      5 CD1       -19.3650  -11.3180   -4.2620 C.ar      1 544469      0.0000 
      6 CD2       -17.2860  -10.9860   -2.9470 C.ar      1 544469      0.0000 
      7 CE1       -18.6110  -11.3820   -5.4580 C.ar      1 544469      0.0000 
      8 CE2       -16.5370  -11.0480   -4.1230 C.ar      1 544469      0.0000 
      9 CZ        -17.1890  -11.2500   -5.4180 C.ar      1 544469      0.0000 
     10 OH        -16.5310  -11.3270   -6.6570 O.3       1 544469      0.0000 
     11 C1A       -19.9730  -14.9840   -1.7440 C.3       1 544469      0.0000 
     12 C1F       -20.3510  -15.7500   -2.8230 C.3       1 544469      0.0000 
     13 C1B       -19.5260  -15.7020   -0.4520 C.3       1 544469      0.0000 
     14 C1H       -21.1270  -16.2130   -5.3210 C.ar      1 544469      0.0000 
     15 C1I       -21.4670  -15.6880   -6.6250 C.ar      1 544469      0.0000 
     16 C1J       -21.7310  -16.5590   -7.7200 C.ar      1 544469      0.0000 
     17 C1K       -21.6570  -17.9640   -7.5310 C.ar      1 544469      0.0000 
     18 C1L       -21.3240  -18.5030   -6.2540 C.ar      1 544469      0.0000 
     19 C1M       -21.0600  -17.6410   -5.1550 C.ar      1 544469      0.0000 
     20 C1G       -20.8540  -15.2890   -4.2480 C.2       1 544469      0.0000 
     21 O1G       -21.0410  -14.0790   -4.4500 O.2       1 544469      0.0000 
     22 O3F       -15.5480  -15.4250   -8.8330 O.3       1 544469      0.0000 
     23 C3G       -14.1670  -15.4630   -8.6260 C.2       1 544469      0.0000 
     24 N3H       -13.6830  -14.1770   -8.3420 N.2       1 544469      0.0000 
     25 C3C       -14.8000  -13.3560   -8.3900 C.2       1 544469      0.0000 
     26 C3D       -15.9500  -14.1450   -8.6950 C.2       1 544469      0.0000 
     27 C3E       -17.4200  -13.6920   -8.8580 C.3       1 544469      0.0000 
     28 C3I       -13.3750  -16.6320   -8.6980 C.ar      1 544469      0.0000 
     29 C3N       -11.9300  -16.6070   -8.4790 C.ar      1 544469      0.0000 
     30 C3M       -11.1600  -17.7980   -8.5680 C.ar      1 544469      0.0000 
     31 C3L       -11.7830  -19.0260   -8.8690 C.ar      1 544469      0.0000 
     32 C3K       -13.1900  -19.0780   -9.0850 C.ar      1 544469      0.0000 
     33 C3J       -13.9860  -17.8890   -9.0010 C.ar      1 544469      0.0000 
     34 C3A       -15.0780  -11.4430   -6.7040 C.3       1 544469      0.0000 
     35 C3B       -14.6980  -11.8190   -8.1390 C.3       1 544469      0.0000 
     36 O2        -19.1070  -12.1830    1.3180 O.co2     1 544469      0.0000 
     37 O1        -21.1600  -12.7460    0.8070 O.co2     1 544469      0.0000 
     38 C         -19.9970  -12.4660    0.4840 C.2       1 544469      0.0000 
     39 H         -18.3746  -12.6779   -0.8921 H         1 544469      0.0000 
     40 H         -19.0764  -10.3517   -1.0065 H         1 544469      0.0000 
     41 H         -20.5434  -10.7316   -1.9250 H         1 544469      0.0000 
     42 H         -20.3775  -11.4105   -4.2823 H         1 544469      0.0000 
     43 H         -16.8286  -10.8446   -2.0436 H         1 544469      0.0000 
     44 H         -19.0779  -11.5224   -6.3528 H         1 544469      0.0000 
     45 H         -15.5197  -10.9546   -4.1112 H         1 544469      0.0000 
     46 H         -21.3300  -14.9856   -1.2607 H         1 544469      0.0000 
     47 H         -21.1730  -16.5436   -2.4955 H         1 544469      0.0000 
     48 H         -19.5016  -16.5393   -3.0841 H         1 544469      0.0000 
     49 H         -21.5160  -14.6765   -6.7524 H         1 544469      0.0000 
     50 H         -21.9703  -16.1761   -8.6288 H         1 544469      0.0000 
     51 H         -21.8427  -18.5938   -8.3119 H         1 544469      0.0000 
     52 H         -21.2753  -19.5147   -6.1298 H         1 544469      0.0000 
     53 H         -20.8222  -18.0272   -4.2448 H         1 544469      0.0000 
     54 H         -11.4868  -15.7176   -8.2612 H         1 544469      0.0000 
     55 H         -10.1507  -17.7587   -8.4123 H         1 544469      0.0000 
     56 H         -11.2318  -19.8816   -8.9337 H         1 544469      0.0000 
     57 H         -13.6390  -19.9679   -9.3017 H         1 544469      0.0000 
     58 H         -14.9891  -17.9410   -9.1577 H         1 544469      0.0000 
     59 H         -14.7234  -12.2217   -6.0419 H         1 544469      0.0000 
     60 H         -14.5997  -10.5040   -6.4592 H         1 544469      0.0000 
     61 H         -15.3630  -11.3111   -8.8380 H         1 544469      0.0000 
     62 H         -13.6735  -11.5045   -8.3399 H         1 544469      0.0000 
     63 H         -18.5804  -15.4815   -0.2127 H         1 544469      0.0000 
     64 H         -20.0936  -15.4461    0.3305 H         1 544469      0.0000 
     65 H         -19.5814  -16.6964   -0.5416 H         1 544469      0.0000 
     66 H         -17.5223  -12.7066   -8.7216 H         1 544469      0.0000 
     67 H         -17.7738  -13.8999   -9.7699 H         1 544469      0.0000 
     68 H         -18.0228  -14.1431   -8.1999 H         1 544469      0.0000 
@<TRIPOS>BOND
     1    2    1 1    
     2   11    1 1    
     3    3    2 1    
     4   38    2 1    
     5   39    2 1    
     6    4    3 1    
     7   40    3 1    
     8   41    3 1    
     9    5    4 ar   
    10    6    4 ar   
    11    7    5 ar   
    12   42    5 1    
    13    8    6 ar   
    14   43    6 1    
    15    9    7 ar   
    16   44    7 1    
    17    9    8 ar   
    18   45    8 1    
    19   10    9 1    
    20   34   10 1    
    21   12   11 1    
    22   13   11 1    
    23   46   11 1    
    24   20   12 1    
    25   47   12 1    
    26   48   12 1    
    27   63   13 1    
    28   64   13 1    
    29   65   13 1    
    30   15   14 ar   
    31   19   14 ar   
    32   20   14 1    
    33   16   15 ar   
    34   49   15 1    
    35   17   16 ar   
    36   50   16 1    
    37   18   17 ar   
    38   51   17 1    
    39   19   18 ar   
    40   52   18 1    
    41   53   19 1    
    42   21   20 2    
    43   23   22 1    
    44   26   22 1    
    45   24   23 2    
    46   28   23 1    
    47   25   24 1    
    48   26   25 2    
    49   35   25 1    
    50   27   26 1    
    51   66   27 1    
    52   67   27 1    
    53   68   27 1    
    54   29   28 ar   
    55   33   28 ar   
    56   30   29 ar   
    57   54   29 1    
    58   31   30 ar   
    59   55   30 1    
    60   32   31 ar   
    61   56   31 1    
    62   33   32 ar   
    63   57   32 1    
    64   58   33 1    
    65   35   34 1    
    66   59   34 1    
    67   60   34 1    
    68   61   35 1    
    69   62   35 1    
    70   38   36 ar   
    71   38   37 ar   
@<TRIPOS>SUBSTRUCTURE
     1 544469      1 GROUP   
@<TRIPOS>SET

