#    Name: 2XJE_1_CAVITY_N1_6.mol2
#    Modification time : Mon Mar 10 23:42:04 2014

@<TRIPOS>MOLECULE
2XJE_1_CAVITY_N1_6.mol2
  137     0     7     0     0
SMALL
NO_CHARGES


@<TRIPOS>ATOM
      1 CZ          6.3257    9.1806   39.2832 C.ar      5 PHE5        0.0000 
      2 CZ          5.0806    9.5260   37.6009 C.ar      5 PHE5        0.0000 
      3 N           7.1787   10.1688   41.5295 N.2       2 ALA2        0.0000 
      4 N           7.3689   10.7954   40.1800 N.2       2 ALA2        0.0000 
      5 CZ          5.7434    9.8875   41.1967 C.ar      5 PHE5        0.0000 
      6 CZ          5.9336   10.5141   39.8472 C.ar      5 PHE5        0.0000 
      7 OG          4.9710    9.9678   44.4596 O.2       1 SER1        0.0000 
      8 OG          5.3513   11.2210   41.7606 O.2       1 SER1        0.0000 
      9 CZ          5.5415   11.8476   40.4111 C.ar      5 PHE5        0.0000 
     10 O           6.0142   11.5825   45.3564 O.2       2 ALA2        0.0000 
     11 OG          4.5789   11.3012   45.0236 O.2       1 SER1        0.0000 
     12 OG          4.7690   11.9279   43.6741 O.2       1 SER1        0.0000 
     13 OG          5.1493   13.1811   40.9750 O.2       1 SER1        0.0000 
     14 OG          5.3395   13.8077   39.6255 O.2       1 SER1        0.0000 
     15 OG          3.1436   11.0199   44.6907 O.2       1 SER1        0.0000 
     16 OD1         3.9042   13.5264   39.2927 O.3       3 ASP3        0.0000 
     17 CA          4.0943   14.1531   37.9432 C.3       6 GLY6        0.0000 
     18 OG          1.7083   10.7386   44.3579 O.2       1 SER1        0.0000 
     19 OD1         2.4689   13.2451   38.9598 O.3       3 ASP3        0.0000 
     20 CZ          0.2730   10.4573   44.0250 C.ar      5 PHE5        0.0000 
     21 O           3.9966   12.0081   46.9370 O.2       2 ALA2        0.0000 
     22 O           4.1867   12.6347   45.5875 O.2       2 ALA2        0.0000 
     23 O           4.3769   13.2614   44.2380 O.2       2 ALA2        0.0000 
     24 CA          4.5670   13.8880   42.8885 C.3       6 GLY6        0.0000 
     25 CA          4.7572   14.5146   41.5390 C.3       6 GLY6        0.0000 
     26 OG          4.9473   15.1412   40.1895 O.2       1 SER1        0.0000 
     27 DU          2.5613   11.7268   46.6042 H         7 CUB7        0.0000 
     28 OG          2.7514   12.3534   45.2546 O.2       1 SER1        0.0000 
     29 OG          3.3219   14.2333   41.2061 O.2       1 SER1        0.0000 
     30 DU          3.5121   14.8599   39.8566 H         7 CUB7        0.0000 
     31 OG          3.7022   15.4866   38.5071 O.2       1 SER1        0.0000 
     32 DU          1.1260   11.4455   46.2713 H         7 CUB7        0.0000 
     33 OG          1.3161   12.0721   44.9218 O.2       1 SER1        0.0000 
     34 OG          1.8866   13.9520   40.8733 O.2       1 SER1        0.0000 
     35 O           2.0768   14.5786   39.5237 O.2       2 ALA2        0.0000 
     36 O           2.2669   15.2053   38.1742 O.2       2 ALA2        0.0000 
     37 NZ         -0.1192   11.7908   44.5889 N.2       4 LYS4        0.0000 
     38 OG          0.0710   12.4175   43.2394 O.2       1 SER1        0.0000 
     39 OG          0.2611   13.0441   41.8899 O.2       1 SER1        0.0000 
     40 CA          0.4513   13.6707   40.5404 C.3       6 GLY6        0.0000 
     41 NZ         -1.7446   10.8829   45.6056 N.2       4 LYS4        0.0000 
     42 NZ         -1.1741   12.7628   41.5570 N.2       4 LYS4        0.0000 
     43 CA          5.8004   16.1294   42.4358 C.3       6 GLY6        0.0000 
     44 O           3.6044   13.3416   47.5010 O.2       2 ALA2        0.0000 
     45 O           3.9847   14.5949   44.8019 O.2       2 ALA2        0.0000 
     46 CA          4.1749   15.2215   43.4524 C.3       6 GLY6        0.0000 
     47 CA          4.3651   15.8481   42.1029 C.3       6 GLY6        0.0000 
     48 NZ          4.5552   16.4747   40.7534 N.2       4 LYS4        0.0000 
     49 DU          2.1691   13.0603   47.1681 H         7 CUB7        0.0000 
     50 O           2.3593   13.6869   45.8186 O.2       2 ALA2        0.0000 
     51 OG          2.5495   14.3136   44.4691 O.2       1 SER1        0.0000 
     52 OG          2.7396   14.9402   43.1196 O.2       1 SER1        0.0000 
     53 CZ          2.9298   15.5668   41.7700 C.ar      5 PHE5        0.0000 
     54 CZ          3.1199   16.1934   40.4205 C.ar      5 PHE5        0.0000 
     55 CZ          3.3101   16.8201   39.0710 C.ar      5 PHE5        0.0000 
     56 DU          0.9240   13.4056   45.4857 H         7 CUB7        0.0000 
     57 OG          1.1142   14.0323   44.1362 O.2       1 SER1        0.0000 
     58 OG          1.3043   14.6589   42.7867 O.2       1 SER1        0.0000 
     59 CZ          1.4945   15.2855   41.4372 C.ar      5 PHE5        0.0000 
     60 CZ          1.6846   15.9121   40.0877 C.ar      5 PHE5        0.0000 
     61 DU         -0.7014   12.4977   46.5024 H         7 CUB7        0.0000 
     62 NZ         -0.5113   13.1243   45.1529 N.2       4 LYS4        0.0000 
     63 NZ         -0.3211   13.7510   43.8033 N.2       4 LYS4        0.0000 
     64 DU         -0.1310   14.3776   42.4538 H         7 CUB7        0.0000 
     65 O           0.0592   15.0042   41.1043 O.2       2 ALA2        0.0000 
     66 O          -2.1367   12.2164   46.1695 O.2       2 ALA2        0.0000 
     67 NZ         -1.9466   12.8430   44.8200 N.2       4 LYS4        0.0000 
     68 NZ         -1.7564   13.4697   43.4705 N.2       4 LYS4        0.0000 
     69 NZ         -1.5663   14.0963   42.1210 N.2       4 LYS4        0.0000 
     70 CA         -1.3761   14.7229   40.7715 C.3       6 GLY6        0.0000 
     71 CA         -3.0016   13.8150   41.7881 C.3       6 GLY6        0.0000 
     72 CA          6.6534   17.1176   44.6821 C.3       6 GLY6        0.0000 
     73 O           6.8435   17.7442   43.3326 O.2       2 ALA2        0.0000 
     74 CA          5.2181   16.8363   44.3492 C.3       6 GLY6        0.0000 
     75 CA          5.4082   17.4629   42.9997 C.3       6 GLY6        0.0000 
     76 NZ          5.5984   18.0895   41.6502 N.2       4 LYS4        0.0000 
     77 N           3.2123   14.6751   48.0649 N.2       2 ALA2        0.0000 
     78 O           3.4025   15.3017   46.7154 O.2       2 ALA2        0.0000 
     79 O           3.5926   15.9284   45.3659 O.2       2 ALA2        0.0000 
     80 O           3.7828   16.5550   44.0164 O.2       2 ALA2        0.0000 
     81 CZ          3.9729   17.1816   42.6668 C.ar      5 PHE5        0.0000 
     82 CZ          4.1631   17.8082   41.3173 C.ar      5 PHE5        0.0000 
     83 DU          1.7770   14.3938   47.7320 H         7 CUB7        0.0000 
     84 DU          1.9672   15.0204   46.3825 H         7 CUB7        0.0000 
     85 DU          2.1573   15.6471   45.0330 H         7 CUB7        0.0000 
     86 CZ          2.3475   16.2737   43.6835 C.ar      5 PHE5        0.0000 
     87 CZ          2.5376   16.9003   42.3340 C.ar      5 PHE5        0.0000 
     88 DU          0.7220   15.3658   44.7001 H         7 CUB7        0.0000 
     89 CZ          0.9122   15.9924   43.3506 C.ar      5 PHE5        0.0000 
     90 OG         -1.2837   13.2046   48.4158 O.2       1 SER1        0.0000 
     91 DU         -1.0936   13.8312   47.0663 H         7 CUB7        0.0000 
     92 DU         -0.9034   14.4578   45.7168 H         7 CUB7        0.0000 
     93 DU         -0.7133   15.0845   44.3673 H         7 CUB7        0.0000 
     94 CA         -0.5231   15.7111   43.0178 C.3       6 GLY6        0.0000 
     95 CZ         -0.3330   16.3377   41.6683 C.ar      5 PHE5        0.0000 
     96 OG         -2.7190   12.9233   48.0830 O.2       1 SER1        0.0000 
     97 OG         -2.5289   13.5499   46.7334 O.2       1 SER1        0.0000 
     98 O          -2.3387   14.1765   45.3839 O.2       2 ALA2        0.0000 
     99 O          -2.1486   14.8031   44.0344 O.2       2 ALA2        0.0000 
    100 CA         -1.9584   15.4298   42.6849 C.3       6 GLY6        0.0000 
    101 CA         -1.7683   16.0564   41.3354 C.3       6 GLY6        0.0000 
    102 CA         -3.3937   15.1485   42.3520 C.3       6 GLY6        0.0000 
    103 N          -3.2036   15.7751   41.0025 N.2       2 ALA2        0.0000 
    104 CA          6.0711   17.8245   46.5955 C.3       6 GLY6        0.0000 
    105 O           6.2612   18.4511   45.2460 O.2       2 ALA2        0.0000 
    106 O           4.4456   16.9165   47.6122 O.2       2 ALA2        0.0000 
    107 O           4.6358   17.5432   46.2627 O.2       2 ALA2        0.0000 
    108 OD1         4.8259   18.1698   44.9131 O.3       3 ASP3        0.0000 
    109 OD1         5.0161   18.7964   43.5636 O.3       3 ASP3        0.0000 
    110 O           3.0103   16.6352   47.2793 O.2       2 ALA2        0.0000 
    111 O           3.2005   17.2619   45.9298 O.2       2 ALA2        0.0000 
    112 DU          3.3906   17.8885   44.5803 H         7 CUB7        0.0000 
    113 CZ          3.5808   18.5151   43.2308 C.ar      5 PHE5        0.0000 
    114 O           1.3849   15.7273   48.2960 O.2       2 ALA2        0.0000 
    115 O           1.5750   16.3539   46.9465 O.2       2 ALA2        0.0000 
    116 O           1.7652   16.9806   45.5969 O.2       2 ALA2        0.0000 
    117 CZ          1.9553   17.6072   44.2474 C.ar      5 PHE5        0.0000 
    118 O           0.1397   16.0726   46.6136 O.2       2 ALA2        0.0000 
    119 OG          0.3299   16.6992   45.2641 O.2       1 SER1        0.0000 
    120 CZ          0.5200   17.3259   43.9146 C.ar      5 PHE5        0.0000 
    121 OG         -1.4857   15.1647   47.6302 O.2       1 SER1        0.0000 
    122 DU         -1.2956   15.7913   46.2807 H         7 CUB7        0.0000 
    123 OG         -1.1054   16.4179   44.9312 O.2       1 SER1        0.0000 
    124 CA         -0.9153   17.0446   43.5817 C.3       6 GLY6        0.0000 
    125 O          -2.7309   15.5100   45.9479 O.2       2 ALA2        0.0000 
    126 O          -2.5407   16.1366   44.5984 O.2       2 ALA2        0.0000 
    127 CA         -2.3505   16.7633   43.2488 C.3       6 GLY6        0.0000 
    128 NZ          5.6789   19.1580   47.1595 N.2       4 LYS4        0.0000 
    129 OD1         5.8691   19.7846   45.8099 O.3       3 ASP3        0.0000 
    130 O           4.2436   18.8767   46.8266 O.2       2 ALA2        0.0000 
    131 OD1         4.4338   19.5033   45.4771 O.3       3 ASP3        0.0000 
    132 O           2.9985   19.2220   45.1442 O.2       2 ALA2        0.0000 
    133 OD1         3.1887   19.8486   43.7947 O.3       3 ASP3        0.0000 
    134 O           1.3731   18.3140   46.1609 O.2       2 ALA2        0.0000 
    135 CZ          1.5632   18.9407   44.8114 C.ar      5 PHE5        0.0000 
    136 OG         -0.0622   18.0327   45.8280 O.2       1 SER1        0.0000 
    137 N          -1.6877   17.1248   46.8447 N.2       2 ALA2        0.0000 
@<TRIPOS>BOND
@<TRIPOS>SUBSTRUCTURE
     1 SER1        7 GROUP   
     2 ALA2        3 GROUP   
     3 ASP3       16 GROUP   
     4 LYS4       37 GROUP   
     5 PHE5        1 GROUP   
     6 GLY6       17 GROUP   
     7 CUB7       27 GROUP   
@<TRIPOS>SET

