#    Name: 2xje_U5P_1_INTS_M
#    Modification time : Tue Mar 25 06:05:35 2014

@<TRIPOS>MOLECULE
2xje_U5P_1_INTS_M
   60     0    15     0     0
SMALL
NO_CHARGES


@<TRIPOS>ATOM
      1 CA         -2.1170   11.2800   41.2455 C.3       5 GLC5        0.0000 
      2 CA         -0.8150   12.7710   41.8590 C.3      15 GLL5        0.0000 
      3 CA         -3.4190    9.7890   40.6320 C.3      10 GLP5        0.0000 
      4 CA          0.1560   11.2535   41.5540 C.3       5 GLC5        0.0000 
      5 CA          1.1270    9.7360   41.2490 C.3      10 GLP5        0.0000 
      6 CA          1.4430   11.6925   41.2905 C.3       5 GLC5        0.0000 
      7 CA          0.5060   12.9890   41.4740 C.3      15 GLL5        0.0000 
      8 CA          2.3800   10.3960   41.1070 C.3      10 GLP5        0.0000 
      9 N          -3.9130   13.4875   43.5290 N.am      2 SEC2        0.0000 
     10 N          -2.7190   13.6330   42.8220 N.am     12 SEL2        0.0000 
     11 N          -5.1070   13.3420   44.2360 N.am      7 SEP2        0.0000 
     12 CA          2.4475   12.3740   41.1655 C.3       5 GLC5        0.0000 
     13 CA          2.5150   14.3520   41.2240 C.3      15 GLL5        0.0000 
     14 CA          0.7645   14.4490   39.0255 C.3       5 GLC5        0.0000 
     15 CA          2.6340   15.1330   39.9380 C.3      15 GLL5        0.0000 
     16 CA         -1.1050   13.7650   38.1130 C.3      10 GLP5        0.0000 
     17 N           2.9905   13.1970   37.6250 N.am      2 SEC2        0.0000 
     18 N           2.4070   14.2180   38.8760 N.am     12 SEL2        0.0000 
     19 N           3.5740   12.1760   36.3740 N.am      7 SEP2        0.0000 
     20 O           1.0630   14.5205   38.3235 O.2       1 ALC1        0.0000 
     21 O           2.4070   14.2180   38.8760 O.2      11 ALL1        0.0000 
     22 O          -0.2810   14.8230   37.7710 O.2       6 ALP1        0.0000 
     23 O           6.1070   15.1965   38.8825 O.2       1 ALC1        0.0000 
     24 O           4.8190   14.7940   39.0710 O.2      11 ALL1        0.0000 
     25 O           7.3950   15.5990   38.6940 O.2       6 ALP1        0.0000 
     26 CA          5.0975   18.4660   41.0100 C.3       5 GLC5        0.0000 
     27 CA          4.8840   16.9060   42.1860 C.3      15 GLL5        0.0000 
     28 CA          5.3110   20.0260   39.8340 C.3      10 GLP5        0.0000 
     29 N           9.1780   20.1350   41.8395 N.am      2 SEC2        0.0000 
     30 N           8.2650   18.7620   42.0230 N.am     12 SEL2        0.0000 
     31 N          10.0910   21.5080   41.6560 N.am      7 SEP2        0.0000 
     32 N           7.8725   19.9680   41.0855 N.am      2 SEC2        0.0000 
     33 N           7.4800   21.1740   40.1480 N.am      7 SEP2        0.0000 
     34 N           7.6060   18.5460   40.7250 N.am      2 SEC2        0.0000 
     35 N           6.9470   18.3300   39.4270 N.am      7 SEP2        0.0000 
     36 N           9.0490   17.8330   41.5945 N.am      2 SEC2        0.0000 
     37 N           9.8330   16.9040   41.1660 N.am      7 SEP2        0.0000 
     38 Zn          5.9270   20.3870   43.4840 Zn        4 ZIC7        0.0000 
     39 Zn          6.1160   19.4200   43.2390 Zn       14 ZIL7        0.0000 
     40 Zn          5.7380   21.3540   43.7290 Zn        9 ZIP7        0.0000 
     41 N           7.2410   19.8175   43.6960 N.am      2 SEC2        0.0000 
     42 N           6.1160   19.4200   43.2390 N.am     12 SEL2        0.0000 
     43 N           8.3660   20.2150   44.1530 N.am      7 SEP2        0.0000 
     44 NZ          8.6190   18.2830   45.4745 N.4       3 LYC4        0.0000 
     45 NZ          7.6830   17.6920   44.2350 N.4      13 LYL4        0.0000 
     46 NZ          9.5550   18.8740   46.7140 N.4       8 LYP4        0.0000 
     47 N           8.5130   16.5550   43.9705 N.am      2 SEC2        0.0000 
     48 N           7.6830   17.6920   44.2350 N.am     12 SEL2        0.0000 
     49 N           9.3430   15.4180   43.7060 N.am      7 SEP2        0.0000 
     50 N           8.6190   18.2830   45.4745 N.am      2 SEC2        0.0000 
     51 N           9.5550   18.8740   46.7140 N.am      7 SEP2        0.0000 
     52 CA         -0.4017   12.6035   39.8777 C.3       5 GLC5        0.0000 
     53 CA         -0.6490   12.3270   38.0890 C.3      10 GLP5        0.0000 
     54 CA          2.6285   17.1945   39.7740 C.3       5 GLC5        0.0000 
     55 CA          1.9080   18.9970   39.6000 C.3      10 GLP5        0.0000 
     56 CA          3.2930   17.5975   41.4123 C.3       5 GLC5        0.0000 
     57 CA          4.5240   15.5900   41.4390 C.3      15 GLL5        0.0000 
     58 CA          1.8820   18.9470   41.0120 C.3      10 GLP5        0.0000 
     59 CA          5.9415   15.3215   43.0692 C.3       5 GLC5        0.0000 
     60 CA          7.1790   14.3950   44.3260 C.3      10 GLP5        0.0000 
@<TRIPOS>BOND
@<TRIPOS>SUBSTRUCTURE
     1 ALC1       20 GROUP        1 X    ALC  0     ROOT ALC X 1
     2 SEC2        9 GROUP        1 X    SEC  0     **** SEC X 2
     3 LYC4       44 GROUP        1 X    LYC  0     **** LYC X 4
     4 ZIC7       38 GROUP        1 X    ZIC  0     **** ZIC X 5
     5 GLC5        1 GROUP        1 X    GLC  0     **** GLC X 6
     6 ALP1       22 GROUP        1 Y    ALP  0     ROOT ALP Y 8
     7 SEP2       11 GROUP        1 Y    SEP  0     **** SEP Y 9
     8 LYP4       46 GROUP        1 Y    LYP  0     **** LYP Y 11
     9 ZIP7       40 GROUP        1 Y    ZIP  0     **** ZIP Y 12
    10 GLP5        3 GROUP        1 Y    GLP  0     **** GLP Y 13
    11 ALL1       21 GROUP        1 Z    ALL  0     ROOT ALL Z 15
    12 SEL2       10 GROUP        1 Z    SEL  0     **** SEL Z 16
    13 LYL4       45 GROUP        1 Z    LYL  0     **** LYL Z 18
    14 ZIL7       39 GROUP        1 Z    ZIL  0     **** ZIL Z 19
    15 GLL5        2 GROUP        1 Z    GLL  0     **** GLL Z 20
@<TRIPOS>SET

