#    Name: 2xje_U5P_1_ligand
#    Modification time : Tue Mar 25 06:05:35 2014

@<TRIPOS>MOLECULE
2xje_U5P_1_ligand
   32    33     1     0     0
SMALL
NO_CHARGES


@<TRIPOS>ATOM
      1 N1          1.0990   14.1780   41.6690 N.am      1 U5P1489     0.0000 
      2 C2          0.3290   15.1920   42.2850 C.2       1 U5P1489     0.0000 
      3 N3         -0.9420   14.9830   42.6590 N.am      1 U5P1489     0.0000 
      4 C4         -1.5300   13.8010   42.4640 C.2       1 U5P1489     0.0000 
      5 C5         -0.8150   12.7710   41.8590 C.2       1 U5P1489     0.0000 
      6 C6          0.5060   12.9890   41.4740 C.2       1 U5P1489     0.0000 
      7 O2          0.8290   16.3030   42.5030 O.2       1 U5P1489     0.0000 
      8 O4         -2.7190   13.6330   42.8220 O.2       1 U5P1489     0.0000 
      9 C1'         2.5150   14.3520   41.2240 C.3       1 U5P1489     0.0000 
     10 C2'         2.6340   15.1330   39.9380 C.3       1 U5P1489     0.0000 
     11 O2'         2.4070   14.2180   38.8760 O.3       1 U5P1489     0.0000 
     12 C3'         4.0640   15.6510   39.9580 C.3       1 U5P1489     0.0000 
     13 C4'         4.5240   15.5900   41.4390 C.3       1 U5P1489     0.0000 
     14 O3'         4.8190   14.7940   39.0710 O.3       1 U5P1489     0.0000 
     15 O4'         3.4160   15.0120   42.1370 O.3       1 U5P1489     0.0000 
     16 C5'         4.8840   16.9060   42.1860 C.3       1 U5P1489     0.0000 
     17 O5'         6.3020   17.1870   42.1370 O.3       1 U5P1489     0.0000 
     18 P           7.1390   18.3360   42.9730 P.3       1 U5P1489     0.0000 
     19 O1P         8.2650   18.7620   42.0230 O.co2     1 U5P1489     0.0000 
     20 O2P         6.1160   19.4200   43.2390 O.co2     1 U5P1489     0.0000 
     21 O3P         7.6830   17.6920   44.2350 O.co2     1 U5P1489     0.0000 
     22 H          -1.4811   15.7648   43.1128 H         1 U5P1489     0.0000 
     23 H          -1.2557   11.8612   41.6982 H         1 U5P1489     0.0000 
     24 H           1.0251   12.2007   41.0281 H         1 U5P1489     0.0000 
     25 H           2.9402   13.3444   40.9902 H         1 U5P1489     0.0000 
     26 H           1.9642   15.9367   39.9677 H         1 U5P1489     0.0000 
     27 H           4.0512   16.6622   39.6400 H         1 U5P1489     0.0000 
     28 H           5.3662   14.9083   41.5067 H         1 U5P1489     0.0000 
     29 H           4.5295   16.7985   43.2225 H         1 U5P1489     0.0000 
     30 H           4.2964   17.7134   41.7230 H         1 U5P1489     0.0000 
     31 H           1.8219   14.7100   38.2313 H         1 U5P1489     0.0000 
     32 H           5.7219   15.2190   39.0072 H         1 U5P1489     0.0000 
@<TRIPOS>BOND
     1    2    1 1    
     2    6    1 1    
     3    9    1 1    
     4    3    2 1    
     5    7    2 2    
     6    4    3 1    
     7   22    3 1    
     8    5    4 1    
     9    8    4 2    
    10    6    5 2    
    11   23    5 1    
    12   24    6 1    
    13   10    9 1    
    14   15    9 1    
    15   25    9 1    
    16   11   10 1    
    17   12   10 1    
    18   26   10 1    
    19   31   11 1    
    20   13   12 1    
    21   14   12 1    
    22   27   12 1    
    23   15   13 1    
    24   16   13 1    
    25   28   13 1    
    26   32   14 1    
    27   17   16 1    
    28   29   16 1    
    29   30   16 1    
    30   18   17 1    
    31   19   18 ar   
    32   20   18 ar   
    33   21   18 ar   
@<TRIPOS>SUBSTRUCTURE
     1 U5P1489     1 GROUP   
@<TRIPOS>SET

