#    Name: 3p5k_P5K_1_INTS_M
#    Modification time : Tue Mar 25 05:58:32 2014

@<TRIPOS>MOLECULE
3p5k_P5K_1_INTS_M
   85     0     9     0     0
SMALL
NO_CHARGES


@<TRIPOS>ATOM
      1 CA         50.2740   28.2215  -20.9630 C.3       3 GLC5        0.0000 
      2 CA         49.8890   28.2890  -19.2010 C.3       9 GLL5        0.0000 
      3 CA         50.6590   28.1540  -22.7250 C.3       6 GLP5        0.0000 
      4 CA         48.9195   29.6130  -20.4625 C.3       3 GLC5        0.0000 
      5 CA         47.9500   30.9370  -21.7240 C.3       6 GLP5        0.0000 
      6 CA         45.3950   26.4595  -20.5295 C.3       3 GLC5        0.0000 
      7 CA         46.7920   27.6530  -19.7150 C.3       9 GLL5        0.0000 
      8 CA         43.9980   25.2660  -21.3440 C.3       6 GLP5        0.0000 
      9 CA         45.4555   28.4765  -20.8020 C.3       3 GLC5        0.0000 
     10 CA         44.1190   29.3000  -21.8890 C.3       6 GLP5        0.0000 
     11 CA         47.3710   29.2950  -20.7195 C.3       3 GLC5        0.0000 
     12 CA         46.0125   24.6035  -16.8095 C.3       3 GLC5        0.0000 
     13 CA         46.6810   26.4300  -17.6890 C.3       9 GLL5        0.0000 
     14 CA         45.3440   22.7770  -15.9300 C.3       6 GLP5        0.0000 
     15 CA         44.7575   26.8850  -16.6520 C.3       3 GLC5        0.0000 
     16 CA         42.8340   27.3400  -15.6150 C.3       6 GLP5        0.0000 
     17 CA         48.7015   23.9520  -18.4115 C.3       3 GLC5        0.0000 
     18 CA         47.9830   25.5890  -19.7590 C.3       9 GLL5        0.0000 
     19 CA         49.4200   22.3150  -17.0640 C.3       6 GLP5        0.0000 
     20 CA         48.8245   24.1525  -20.6715 C.3       3 GLC5        0.0000 
     21 CA         49.6660   22.7160  -21.5840 C.3       6 GLP5        0.0000 
     22 CA         47.7365   25.4220  -21.6805 C.3       3 GLC5        0.0000 
     23 CA         47.4900   25.2550  -23.6020 C.3       6 GLP5        0.0000 
     24 CA         45.9905   25.4275  -20.5515 C.3       3 GLC5        0.0000 
     25 O          53.5125   29.5805  -17.5195 O.2       1 ALC1        0.0000 
     26 O          52.2150   29.3510  -18.0840 O.2       7 ALL1        0.0000 
     27 O          54.8100   29.8100  -16.9550 O.2       4 ALP1        0.0000 
     28 O          54.1715   30.3720  -18.0670 O.2       1 ALC1        0.0000 
     29 O          53.5330   30.9340  -19.1790 O.2       7 ALL1        0.0000 
     30 N          50.0490   31.0810  -19.6685 N.am      2 SEC2        0.0000 
     31 N          51.4070   30.5020  -19.8670 N.am      8 SEL2        0.0000 
     32 N          48.6910   31.6600  -19.4700 N.am      5 SEP2        0.0000 
     33 CA         51.6690   33.8650  -22.2860 C.3       3 GLC5        0.0000 
     34 CA         53.2620   34.2450  -20.7690 C.3       9 GLL5        0.0000 
     35 CA         50.0760   33.4850  -23.8030 C.3       6 GLP5        0.0000 
     36 CA         53.8125   27.9140  -14.0060 C.3       3 GLC5        0.0000 
     37 CA         52.2430   28.9240  -13.2770 C.3       9 GLL5        0.0000 
     38 CA         55.3820   26.9040  -14.7350 C.3       6 GLP5        0.0000 
     39 CA         58.6810   30.8320  -23.9080 C.3       3 GLC5        0.0000 
     40 CA         57.0840   31.9300  -22.8490 C.3       9 GLL5        0.0000 
     41 CA         60.2780   29.7340  -24.9670 C.3       6 GLP5        0.0000 
     42 CA         50.3445   33.0935  -13.8450 C.3       3 GLC5        0.0000 
     43 CA         50.7450   31.3280  -14.0140 C.3       9 GLL5        0.0000 
     44 CA         49.9440   34.8590  -13.6760 C.3       6 GLP5        0.0000 
     45 CA         52.8635   29.9075  -10.6175 C.3       3 GLC5        0.0000 
     46 CA         51.5150   29.6600  -12.1260 C.3       9 GLL5        0.0000 
     47 CA         54.2120   30.1550   -9.1090 C.3       6 GLP5        0.0000 
     48 CA         50.0977   25.7777  -16.0515 C.3       3 GLC5        0.0000 
     49 CA         50.5990   28.0370  -16.7650 C.3       9 GLL5        0.0000 
     50 CA         50.2020   23.8700  -15.2490 C.3       6 GLP5        0.0000 
     51 CA         51.6782   27.3095  -19.4552 C.3       3 GLC5        0.0000 
     52 CA         51.0900   28.6110  -17.9580 C.3       9 GLL5        0.0000 
     53 CA         52.8670   26.1690  -20.3310 C.3       6 GLP5        0.0000 
     54 CA         55.6243   32.3770  -19.0400 C.3       3 GLC5        0.0000 
     55 CA         53.8130   32.0040  -20.0030 C.3       9 GLL5        0.0000 
     56 CA         56.8850   32.7700  -17.6090 C.3       6 GLP5        0.0000 
     57 CA         53.0975   31.3168  -21.5403 C.3       3 GLC5        0.0000 
     58 CA         52.7850   30.0620  -23.1230 C.3       6 GLP5        0.0000 
     59 CA         51.9223   34.5115  -18.8573 C.3       3 GLC5        0.0000 
     60 CA         53.0070   33.1390  -19.9120 C.3       9 GLL5        0.0000 
     61 CA         50.7100   35.3310  -17.3740 C.3       6 GLP5        0.0000 
     62 CA         55.1872   35.6360  -20.5678 C.3       3 GLC5        0.0000 
     63 CA         56.5700   37.0480  -19.9270 C.3       6 GLP5        0.0000 
     64 CA         57.1202   33.1658  -20.8890 C.3       3 GLC5        0.0000 
     65 CA         55.1640   33.0310  -21.7770 C.3       9 GLL5        0.0000 
     66 CA         58.5490   33.3040  -19.5380 C.3       6 GLP5        0.0000 
     67 CA         53.9120   31.2797  -22.2405 C.3       3 GLC5        0.0000 
     68 CA         55.5348   32.2703  -24.0770 C.3       3 GLC5        0.0000 
     69 CA         55.3780   31.5130  -25.9140 C.3       6 GLP5        0.0000 
     70 CA         49.7105   31.0355  -15.8042 C.3       3 GLC5        0.0000 
     71 CA         51.5570   30.5840  -15.1010 C.3       9 GLL5        0.0000 
     72 CA         48.2700   31.1150  -17.0510 C.3       6 GLP5        0.0000 
     73 CA         56.7588   33.8510  -24.2920 C.3       3 GLC5        0.0000 
     74 CA         56.2190   33.0240  -22.7030 C.3       9 GLL5        0.0000 
     75 CA         56.8660   35.2250  -25.8080 C.3       6 GLP5        0.0000 
     76 CA         56.1630   31.4490  -24.1723 C.3       3 GLC5        0.0000 
     77 CA         55.6560   29.0335  -20.8180 C.3       3 GLC5        0.0000 
     78 CA         56.8120   30.8400  -22.0120 C.3       9 GLL5        0.0000 
     79 CA         55.0250   27.2240  -20.0910 C.3       6 GLP5        0.0000 
     80 CA         54.5360   30.4525  -22.3340 C.3       3 GLC5        0.0000 
     81 CA         55.7620   30.8460  -21.0780 C.3       9 GLL5        0.0000 
     82 CA         57.9100   29.8540  -21.0420 C.3       3 GLC5        0.0000 
     83 CA         59.5330   28.8650  -20.5390 C.3       6 GLP5        0.0000 
     84 CA         57.4520   32.2097  -20.6461 C.3       3 GLC5        0.0000 
     85 CA         49.1152   29.5462  -17.5554 C.3       3 GLC5        0.0000 
@<TRIPOS>BOND
@<TRIPOS>SUBSTRUCTURE
     1 ALC1       25 GROUP        1 X    ALC  0     ROOT ALC X 1
     2 SEC2       30 GROUP        1 X    SEC  0     **** SEC X 2
     3 GLC5        1 GROUP        1 X    GLC  0     **** GLC X 6
     4 ALP1       27 GROUP        1 Y    ALP  0     ROOT ALP Y 8
     5 SEP2       32 GROUP        1 Y    SEP  0     **** SEP Y 9
     6 GLP5        3 GROUP        1 Y    GLP  0     **** GLP Y 13
     7 ALL1       26 GROUP        1 Z    ALL  0     ROOT ALL Z 15
     8 SEL2       31 GROUP        1 Z    SEL  0     **** SEL Z 16
     9 GLL5        2 GROUP        1 Z    GLL  0     **** GLL Z 20
@<TRIPOS>SET

