#    Name: 3p5k_P5K_1_ligand
#    Modification time : Tue Mar 25 05:58:32 2014

@<TRIPOS>MOLECULE
3p5k_P5K_1_ligand
   60    63     1     0     0
SMALL
NO_CHARGES


@<TRIPOS>ATOM
      1 C1         49.3880   27.3340  -16.9430 C.2       1 P5K362      0.0000 
      2 C2         50.5990   28.0370  -16.7650 C.2       1 P5K362      0.0000 
      3 C3         51.0900   28.6110  -17.9580 C.2       1 P5K362      0.0000 
      4 S4         49.8890   28.2890  -19.2010 S.3       1 P5K362      0.0000 
      5 C5         48.8690   27.3240  -18.2260 C.2       1 P5K362      0.0000 
      6 C6         47.6130   26.7320  -18.8380 C.3       1 P5K362      0.0000 
      7 C7         46.7920   27.6530  -19.7150 C.3       1 P5K362      0.0000 
      8 C8         46.6810   26.4300  -17.6890 C.3       1 P5K362      0.0000 
      9 C9         47.9830   25.5890  -19.7590 C.3       1 P5K362      0.0000 
     10 N10        52.2150   29.3510  -18.0840 N.am      1 P5K362      0.0000 
     11 C11        51.3610   28.1210  -15.4400 C.2       1 P5K362      0.0000 
     12 O12        51.7330   27.1250  -14.9560 O.2       1 P5K362      0.0000 
     13 N13        51.6840   29.1810  -14.6680 N.am      1 P5K362      0.0000 
     14 C14        52.4040   30.2800  -19.0430 C.2       1 P5K362      0.0000 
     15 N15        53.5330   30.9340  -19.1790 N.am      1 P5K362      0.0000 
     16 O16        51.4070   30.5020  -19.8670 O.2       1 P5K362      0.0000 
     17 C17        53.8130   32.0040  -20.0030 C.ar      1 P5K362      0.0000 
     18 C18        53.0070   33.1390  -19.9120 C.ar      1 P5K362      0.0000 
     19 C19        53.2620   34.2450  -20.7690 C.ar      1 P5K362      0.0000 
     20 C20        54.3470   34.2030  -21.6480 C.ar      1 P5K362      0.0000 
     21 C21        55.1640   33.0310  -21.7770 C.ar      1 P5K362      0.0000 
     22 C22        54.9140   31.9640  -20.9390 C.ar      1 P5K362      0.0000 
     23 C23        51.5570   30.5840  -15.1010 C.3       1 P5K362      0.0000 
     24 C24        52.2430   28.9240  -13.2770 C.3       1 P5K362      0.0000 
     25 C25        56.2190   33.0240  -22.7030 C.ar      1 P5K362      0.0000 
     26 C26        57.0840   31.9300  -22.8490 C.ar      1 P5K362      0.0000 
     27 C27        56.8120   30.8400  -22.0120 C.ar      1 P5K362      0.0000 
     28 C28        55.7620   30.8460  -21.0780 C.ar      1 P5K362      0.0000 
     29 C29        50.7450   31.3280  -14.0140 C.3       1 P5K362      0.0000 
     30 C30        51.5150   29.6600  -12.1260 C.3       1 P5K362      0.0000 
     31 S31        51.6540   31.3010  -12.5320 S.o2      1 P5K362      0.0000 
     32 O32        50.6480   32.4090  -11.6980 O.2       1 P5K362      0.0000 
     33 O33        53.0380   31.9310  -13.2860 O.2       1 P5K362      0.0000 
     34 H          48.9406   26.8734  -16.1767 H         1 P5K362      0.0000 
     35 H          53.0023   29.1882  -17.3788 H         1 P5K362      0.0000 
     36 H          54.3863   30.6031  -18.5634 H         1 P5K362      0.0000 
     37 H          52.2415   33.1871  -19.2434 H         1 P5K362      0.0000 
     38 H          52.6494   35.0593  -20.7335 H         1 P5K362      0.0000 
     39 H          54.5792   35.0257  -22.2248 H         1 P5K362      0.0000 
     40 H          51.0200   30.6578  -16.0330 H         1 P5K362      0.0000 
     41 H          52.5229   31.0562  -15.1830 H         1 P5K362      0.0000 
     42 H          53.3103   29.2160  -13.2531 H         1 P5K362      0.0000 
     43 H          52.2122   27.8378  -13.0664 H         1 P5K362      0.0000 
     44 H          56.3641   33.8624  -23.3034 H         1 P5K362      0.0000 
     45 H          57.8332   31.9286  -23.4974 H         1 P5K362      0.0000 
     46 H          57.4113   29.9898  -22.0835 H         1 P5K362      0.0000 
     47 H          55.6071   30.0186  -20.4824 H         1 P5K362      0.0000 
     48 H          49.8407   30.8329  -13.7812 H         1 P5K362      0.0000 
     49 H          50.6267   32.3546  -14.2356 H         1 P5K362      0.0000 
     50 H          52.0151   29.5487  -11.2180 H         1 P5K362      0.0000 
     51 H          50.4930   29.4544  -12.1204 H         1 P5K362      0.0000 
     52 H          47.3181   27.9880  -20.4967 H         1 P5K362      0.0000 
     53 H          45.9830   27.1933  -20.0815 H         1 P5K362      0.0000 
     54 H          46.4706   28.4555  -19.2124 H         1 P5K362      0.0000 
     55 H          47.0854   25.7825  -17.0431 H         1 P5K362      0.0000 
     56 H          46.4497   27.2541  -17.1719 H         1 P5K362      0.0000 
     57 H          45.8202   26.0305  -18.0042 H         1 P5K362      0.0000 
     58 H          48.5821   25.8892  -20.5013 H         1 P5K362      0.0000 
     59 H          48.4631   24.8597  -19.2715 H         1 P5K362      0.0000 
     60 H          47.1761   25.1769  -20.1821 H         1 P5K362      0.0000 
@<TRIPOS>BOND
     1    2    1 1    
     2    5    1 2    
     3   34    1 1    
     4    3    2 2    
     5   11    2 1    
     6    4    3 1    
     7   10    3 1    
     8    5    4 1    
     9    6    5 1    
    10    7    6 1    
    11    8    6 1    
    12    9    6 1    
    13   52    7 1    
    14   53    7 1    
    15   54    7 1    
    16   55    8 1    
    17   56    8 1    
    18   57    8 1    
    19   58    9 1    
    20   59    9 1    
    21   60    9 1    
    22   14   10 am   
    23   35   10 1    
    24   12   11 2    
    25   13   11 am   
    26   23   13 1    
    27   24   13 1    
    28   15   14 am   
    29   16   14 2    
    30   17   15 1    
    31   36   15 1    
    32   18   17 ar   
    33   22   17 ar   
    34   19   18 ar   
    35   37   18 1    
    36   20   19 ar   
    37   38   19 1    
    38   21   20 ar   
    39   39   20 1    
    40   22   21 ar   
    41   25   21 ar   
    42   28   22 ar   
    43   29   23 1    
    44   40   23 1    
    45   41   23 1    
    46   30   24 1    
    47   42   24 1    
    48   43   24 1    
    49   26   25 ar   
    50   44   25 1    
    51   27   26 ar   
    52   45   26 1    
    53   28   27 ar   
    54   46   27 1    
    55   47   28 1    
    56   31   29 1    
    57   48   29 1    
    58   49   29 1    
    59   31   30 1    
    60   50   30 1    
    61   51   30 1    
    62   32   31 2    
    63   33   31 2    
@<TRIPOS>SUBSTRUCTURE
     1 P5K362      1 GROUP   
@<TRIPOS>SET

