#    Name: 1f17_NAI_1_INTS_M
#    Modification time : Tue Mar 25 00:31:17 2014

@<TRIPOS>MOLECULE
1f17_NAI_1_INTS_M
   81     0     9     0     0
SMALL
NO_CHARGES


@<TRIPOS>ATOM
      1 N          40.4960   35.2735   32.1610 N.am      2 SEC2        0.0000 
      2 N          42.0590   35.3070   31.7900 N.am      8 SEL2        0.0000 
      3 N          38.9330   35.2400   32.5320 N.am      5 SEP2        0.0000 
      4 CA         39.8035   38.1270   26.7385 C.3       3 GLC5        0.0000 
      5 CA         41.4370   37.1270   27.3670 C.3       9 GLL5        0.0000 
      6 CA         38.1700   39.1270   26.1100 C.3       6 GLP5        0.0000 
      7 O          39.9110   35.2300   25.7225 O.2       1 ALC1        0.0000 
      8 O          40.8490   34.8580   26.6850 O.2       7 ALL1        0.0000 
      9 O          38.9730   35.6020   24.7600 O.2       4 ALP1        0.0000 
     10 N          43.5010   35.5920   23.3310 N.am      2 SEC2        0.0000 
     11 N          42.6390   35.0820   24.5410 N.am      8 SEL2        0.0000 
     12 N          44.3630   36.1020   22.1210 N.am      5 SEP2        0.0000 
     13 O          41.4725   35.1455   23.8050 O.2       1 ALC1        0.0000 
     14 O          42.6390   35.0820   24.5410 O.2       7 ALL1        0.0000 
     15 O          40.3060   35.2090   23.0690 O.2       4 ALP1        0.0000 
     16 CA         40.0965   38.2655   25.6290 C.3       3 GLC5        0.0000 
     17 CA         42.0230   37.4040   25.1480 C.3       9 GLL5        0.0000 
     18 CA         42.1665   39.5610   25.3895 C.3       3 GLC5        0.0000 
     19 CA         42.3100   41.7180   25.6310 C.3       6 GLP5        0.0000 
     20 CA         42.7585   40.6455   24.0465 C.3       3 GLC5        0.0000 
     21 CA         43.2070   39.5730   22.4620 C.3       9 GLL5        0.0000 
     22 CA         42.9975   41.9035   22.6660 C.3       3 GLC5        0.0000 
     23 CA         42.8140   40.2730   21.2990 C.3       9 GLL5        0.0000 
     24 CA         43.1810   43.5340   24.0330 C.3       6 GLP5        0.0000 
     25 CA         39.3650   40.9135   22.1960 C.3       3 GLC5        0.0000 
     26 CA         40.6180   39.5250   21.6560 C.3       9 GLL5        0.0000 
     27 CA         38.1120   42.3020   22.7360 C.3       6 GLP5        0.0000 
     28 CA         39.3240   37.9810   21.5980 C.3       3 GLC5        0.0000 
     29 CA         38.0300   36.4370   21.5400 C.3       6 GLP5        0.0000 
     30 CA         41.7045   37.8625   20.9645 C.3       3 GLC5        0.0000 
     31 CA         42.7910   36.2000   20.2730 C.3       6 GLP5        0.0000 
     32 CA         40.7930   40.6060   23.2880 C.3       3 GLC5        0.0000 
     33 CA         40.9680   41.6870   24.9200 C.3       6 GLP5        0.0000 
     34 CA         41.5725   40.2875   24.0130 C.3       3 GLC5        0.0000 
     35 CA         42.1770   38.8880   23.1060 C.3       9 GLL5        0.0000 
     36 N          39.1990   37.9630   33.1085 N.am      2 SEC2        0.0000 
     37 N          40.5150   38.1760   32.5310 N.am      8 SEL2        0.0000 
     38 N          37.8830   37.7500   33.6860 N.am      5 SEP2        0.0000 
     39 CA         39.7425   40.5665   32.8845 C.3       3 GLC5        0.0000 
     40 CA         41.4490   40.9520   31.8810 C.3       9 GLL5        0.0000 
     41 CA         38.0360   40.1810   33.8880 C.3       6 GLP5        0.0000 
     42 CA         39.8095   41.5745   30.9395 C.3       3 GLC5        0.0000 
     43 CA         38.1700   42.1970   29.9980 C.3       6 GLP5        0.0000 
     44 CA         40.5910   42.6190   30.4860 C.3       3 GLC5        0.0000 
     45 CA         41.9580   42.3700   31.8690 C.3       9 GLL5        0.0000 
     46 CA         39.2240   42.8680   29.1030 C.3       6 GLP5        0.0000 
     47 N          39.9050   43.2905   33.4355 N.am      2 SEC2        0.0000 
     48 N          41.2850   42.8220   33.0680 N.am      8 SEL2        0.0000 
     49 N          38.5250   43.7590   33.8030 N.am      5 SEP2        0.0000 
     50 N          43.9865   44.5380   30.1275 N.am      2 SEC2        0.0000 
     51 N          43.6660   44.0410   31.4970 N.am      8 SEL2        0.0000 
     52 N          44.3070   45.0350   28.7580 N.am      5 SEP2        0.0000 
     53 O          45.1520   44.7780   32.9505 O.2       1 ALC1        0.0000 
     54 O          44.5830   43.7370   34.0840 O.2       7 ALL1        0.0000 
     55 O          45.7210   45.8190   31.8170 O.2       4 ALP1        0.0000 
     56 CA         42.3485   45.3805   33.4700 C.3       3 GLC5        0.0000 
     57 CA         42.1470   43.3290   34.0400 C.3       9 GLL5        0.0000 
     58 CA         42.5500   47.4320   32.9000 C.3       6 GLP5        0.0000 
     59 CA         39.4520   41.1235   37.3375 C.3       3 GLC5        0.0000 
     60 CA         40.6990   42.2340   38.0170 C.3       9 GLL5        0.0000 
     61 CA         38.2050   40.0130   36.6580 C.3       6 GLP5        0.0000 
     62 CA         42.5660   44.9570   36.6320 C.3       3 GLC5        0.0000 
     63 CA         40.8650   43.7950   36.0930 C.3       9 GLL5        0.0000 
     64 CA         44.2670   46.1190   37.1710 C.3       6 GLP5        0.0000 
     65 CA         41.9297   39.3820   27.5712 C.3       3 GLC5        0.0000 
     66 CA         42.1120   41.3810   27.1310 C.3       6 GLP5        0.0000 
     67 CA         40.4211   35.9070   28.7776 C.3       3 GLC5        0.0000 
     68 CA         42.0580   37.6390   28.6560 C.3       9 GLL5        0.0000 
     69 CA         38.9950   35.2390   30.1210 C.3       6 GLP5        0.0000 
     70 CA         42.6924   37.8028   21.3831 C.3       3 GLC5        0.0000 
     71 CA         45.4543   43.0978   32.2597 C.3       3 GLC5        0.0000 
     72 CA         43.4170   42.7610   32.1030 C.3       9 GLL5        0.0000 
     73 CA         47.4340   43.3800   31.6540 C.3       6 GLP5        0.0000 
     74 CA         40.3915   40.7665   35.8122 C.3       3 GLC5        0.0000 
     75 CA         41.9790   41.6060   35.8980 C.3       9 GLL5        0.0000 
     76 CA         39.0190   40.1170   35.0380 C.3       6 GLP5        0.0000 
     77 CA         38.9712   42.6135   36.7097 C.3       3 GLC5        0.0000 
     78 CA         37.3070   41.5730   36.7200 C.3       6 GLP5        0.0000 
     79 CA         40.2302   45.4650   36.9192 C.3       3 GLC5        0.0000 
     80 CA         40.4060   43.5130   37.3060 C.3       9 GLL5        0.0000 
     81 CA         39.8250   47.2760   37.1390 C.3       6 GLP5        0.0000 
@<TRIPOS>BOND
@<TRIPOS>SUBSTRUCTURE
     1 ALC1        7 GROUP        1 X    ALC  0     ROOT ALC X 1
     2 SEC2        1 GROUP        1 X    SEC  0     **** SEC X 2
     3 GLC5        4 GROUP        1 X    GLC  0     **** GLC X 6
     4 ALP1        9 GROUP        1 Y    ALP  0     ROOT ALP Y 8
     5 SEP2        3 GROUP        1 Y    SEP  0     **** SEP Y 9
     6 GLP5        6 GROUP        1 Y    GLP  0     **** GLP Y 13
     7 ALL1        8 GROUP        1 Z    ALL  0     ROOT ALL Z 15
     8 SEL2        2 GROUP        1 Z    SEL  0     **** SEL Z 16
     9 GLL5        5 GROUP        1 Z    GLL  0     **** GLL Z 20
@<TRIPOS>SET

