#    Name: 1f17_NAI_1_ligand
#    Modification time : Tue Mar 25 00:31:17 2014

@<TRIPOS>MOLECULE
1f17_NAI_1_ligand
   71    75     1     0     0
SMALL
NO_CHARGES


@<TRIPOS>ATOM
      1 PA         42.6510   36.3870   30.9650 P.3       1 NAI350      0.0000 
      2 O1A        43.9490   36.0310   30.3600 O.co2     1 NAI350      0.0000 
      3 O2A        42.0590   35.3070   31.7900 O.co2     1 NAI350      0.0000 
      4 O5B        41.6450   36.8210   29.7830 O.3       1 NAI350      0.0000 
      5 C5B        42.0580   37.6390   28.6560 C.3       1 NAI350      0.0000 
      6 C4B        41.4370   37.1270   27.3670 C.3       1 NAI350      0.0000 
      7 O4B        41.8850   38.0730   26.3590 O.3       1 NAI350      0.0000 
      8 C3B        41.9470   35.7670   26.8570 C.3       1 NAI350      0.0000 
      9 O3B        40.8490   34.8580   26.6850 O.3       1 NAI350      0.0000 
     10 C2B        42.6950   36.1100   25.5560 C.3       1 NAI350      0.0000 
     11 O2B        42.6390   35.0820   24.5410 O.3       1 NAI350      0.0000 
     12 C1B        42.0230   37.4040   25.1480 C.3       1 NAI350      0.0000 
     13 N9A        42.7500   38.2600   24.2060 N.pl3     1 NAI350      0.0000 
     14 C8A        44.0670   38.6100   24.1680 C.2       1 NAI350      0.0000 
     15 N7A        44.4030   39.3960   23.1390 N.2       1 NAI350      0.0000 
     16 C5A        43.2070   39.5730   22.4620 C.ar      1 NAI350      0.0000 
     17 C6A        42.8140   40.2730   21.2990 C.ar      1 NAI350      0.0000 
     18 N6A        43.6010   40.9890   20.5250 N.pl3     1 NAI350      0.0000 
     19 N1A        41.5090   40.2470   20.8990 N.ar      1 NAI350      0.0000 
     20 C2A        40.6180   39.5250   21.6560 C.ar      1 NAI350      0.0000 
     21 N3A        40.8770   38.8310   22.7430 N.ar      1 NAI350      0.0000 
     22 C4A        42.1770   38.8880   23.1060 C.ar      1 NAI350      0.0000 
     23 O3         42.8520   37.6730   31.8120 O.3       1 NAI350      0.0000 
     24 PN         41.9230   38.5690   32.8160 P.3       1 NAI350      0.0000 
     25 O1N        42.4140   38.2090   34.1590 O.co2     1 NAI350      0.0000 
     26 O2N        40.5150   38.1760   32.5310 O.co2     1 NAI350      0.0000 
     27 O5D        42.3800   40.0550   32.4970 O.3       1 NAI350      0.0000 
     28 C5D        41.4490   40.9520   31.8810 C.3       1 NAI350      0.0000 
     29 C4D        41.9580   42.3700   31.8690 C.3       1 NAI350      0.0000 
     30 O4D        41.2850   42.8220   33.0680 O.3       1 NAI350      0.0000 
     31 C3D        43.4170   42.7610   32.1030 C.3       1 NAI350      0.0000 
     32 O3D        43.6660   44.0410   31.4970 O.3       1 NAI350      0.0000 
     33 C2D        43.5320   42.8700   33.6280 C.3       1 NAI350      0.0000 
     34 O2D        44.5830   43.7370   34.0840 O.3       1 NAI350      0.0000 
     35 C1D        42.1470   43.3290   34.0400 C.3       1 NAI350      0.0000 
     36 N1N        41.6770   42.8740   35.3550 N.pl3     1 NAI350      0.0000 
     37 C2N        41.9790   41.6060   35.8980 C.2       1 NAI350      0.0000 
     38 C3N        41.5490   41.2260   37.2750 C.2       1 NAI350      0.0000 
     39 C7N        41.8560   39.8660   37.7710 C.2       1 NAI350      0.0000 
     40 O7N        41.5110   39.5840   38.9300 O.2       1 NAI350      0.0000 
     41 N7N        42.4430   38.8930   37.0520 N.am      1 NAI350      0.0000 
     42 C4N        40.6990   42.2340   38.0170 C.3       1 NAI350      0.0000 
     43 C5N        40.4060   43.5130   37.3060 C.2       1 NAI350      0.0000 
     44 C6N        40.8650   43.7950   36.0930 C.2       1 NAI350      0.0000 
     45 H          43.1494   37.6262   28.5407 H         1 NAI350      0.0000 
     46 H          41.7500   38.6832   28.7951 H         1 NAI350      0.0000 
     47 H          40.3898   37.1310   27.4215 H         1 NAI350      0.0000 
     48 H          42.6721   35.4206   27.5709 H         1 NAI350      0.0000 
     49 H          43.7107   36.3606   25.8448 H         1 NAI350      0.0000 
     50 H          41.0392   37.1535   24.7608 H         1 NAI350      0.0000 
     51 H          44.7219   38.2963   24.8627 H         1 NAI350      0.0000 
     52 H          43.1607   41.4461   19.7522 H         1 NAI350      0.0000 
     53 H          44.5677   41.0109   20.7801 H         1 NAI350      0.0000 
     54 H          39.5852   39.5433   21.2969 H         1 NAI350      0.0000 
     55 H          40.4763   40.9404   32.4090 H         1 NAI350      0.0000 
     56 H          41.2401   40.6530   30.8360 H         1 NAI350      0.0000 
     57 H          41.5349   42.9101   31.0546 H         1 NAI350      0.0000 
     58 H          44.0381   41.9959   31.7625 H         1 NAI350      0.0000 
     59 H          43.6448   41.8498   33.9998 H         1 NAI350      0.0000 
     60 H          42.1353   44.4197   33.9990 H         1 NAI350      0.0000 
     61 H          42.5005   40.9115   35.3646 H         1 NAI350      0.0000 
     62 H          42.5477   38.0100   37.5095 H         1 NAI350      0.0000 
     63 H          42.7225   39.1393   36.1240 H         1 NAI350      0.0000 
     64 H          41.1958   42.4625   38.9940 H         1 NAI350      0.0000 
     65 H          39.7340   41.7414   38.2991 H         1 NAI350      0.0000 
     66 H          39.8023   44.1769   37.8479 H         1 NAI350      0.0000 
     67 H          40.6523   44.7058   35.6225 H         1 NAI350      0.0000 
     68 H          40.2583   35.2917   26.0046 H         1 NAI350      0.0000 
     69 H          41.7762   35.2396   24.0606 H         1 NAI350      0.0000 
     70 H          42.7595   44.4173   31.3056 H         1 NAI350      0.0000 
     71 H          44.8535   44.2622   33.2771 H         1 NAI350      0.0000 
@<TRIPOS>BOND
     1    2    1 ar   
     2    3    1 ar   
     3    4    1 1    
     4   23    1 1    
     5    5    4 1    
     6    6    5 1    
     7   45    5 1    
     8   46    5 1    
     9    7    6 1    
    10    8    6 1    
    11   47    6 1    
    12   12    7 1    
    13    9    8 1    
    14   10    8 1    
    15   48    8 1    
    16   68    9 1    
    17   11   10 1    
    18   12   10 1    
    19   49   10 1    
    20   69   11 1    
    21   13   12 1    
    22   50   12 1    
    23   14   13 1    
    24   22   13 1    
    25   15   14 2    
    26   51   14 1    
    27   16   15 1    
    28   17   16 ar   
    29   22   16 ar   
    30   18   17 1    
    31   19   17 ar   
    32   52   18 1    
    33   53   18 1    
    34   20   19 ar   
    35   21   20 ar   
    36   54   20 1    
    37   22   21 ar   
    38   24   23 1    
    39   25   24 ar   
    40   26   24 ar   
    41   27   24 1    
    42   28   27 1    
    43   29   28 1    
    44   55   28 1    
    45   56   28 1    
    46   30   29 1    
    47   31   29 1    
    48   57   29 1    
    49   35   30 1    
    50   32   31 1    
    51   33   31 1    
    52   58   31 1    
    53   70   32 1    
    54   34   33 1    
    55   35   33 1    
    56   59   33 1    
    57   71   34 1    
    58   36   35 1    
    59   60   35 1    
    60   37   36 1    
    61   44   36 1    
    62   38   37 2    
    63   61   37 1    
    64   39   38 1    
    65   42   38 1    
    66   40   39 2    
    67   41   39 am   
    68   62   41 1    
    69   63   41 1    
    70   43   42 1    
    71   64   42 1    
    72   65   42 1    
    73   44   43 2    
    74   66   43 1    
    75   67   44 1    
@<TRIPOS>SUBSTRUCTURE
     1 NAI350      1 GROUP   
@<TRIPOS>SET

