#    Name: 1nfq_AE2_1_INTS_M
#    Modification time : Mon Mar 24 18:07:33 2014

@<TRIPOS>MOLECULE
1nfq_AE2_1_INTS_M
   51     0     9     0     0
SMALL
NO_CHARGES


@<TRIPOS>ATOM
      1 CA          7.0155   43.9410    3.0130 C.3       3 GLC5        0.0000 
      2 CA          6.2610   45.5830    3.3630 C.3       9 GLL5        0.0000 
      3 CA          7.7700   42.2990    2.6630 C.3       6 GLP5        0.0000 
      4 CA          5.6035   44.9965    6.1080 C.3       3 GLC5        0.0000 
      5 CA          7.0490   45.6410    4.8760 C.3       9 GLL5        0.0000 
      6 CA          4.1580   44.3520    7.3400 C.3       6 GLP5        0.0000 
      7 CA          7.1350   43.8235    4.3890 C.3       3 GLC5        0.0000 
      8 CA          7.2210   42.0060    3.9020 C.3       6 GLP5        0.0000 
      9 N           9.5410   45.4780    5.9945 N.am      2 SEC2        0.0000 
     10 N           9.2250   46.8640    5.8770 N.am      8 SEL2        0.0000 
     11 N           9.8570   44.0920    6.1120 N.am      5 SEP2        0.0000 
     12 O          10.5170   46.0700    5.0520 O.2       1 ALC1        0.0000 
     13 O           9.2250   46.8640    5.8770 O.2       7 ALL1        0.0000 
     14 O          11.8090   45.2760    4.2270 O.2       4 ALP1        0.0000 
     15 CA          8.2215   50.5520    2.5490 C.3       3 GLC5        0.0000 
     16 CA          7.3950   49.1860    1.8260 C.3       9 GLL5        0.0000 
     17 CA          9.0480   51.9180    3.2720 C.3       6 GLP5        0.0000 
     18 CA          7.2820   46.3400   -1.0215 C.3       3 GLC5        0.0000 
     19 CA          5.9250   46.6910    0.6700 C.3       9 GLL5        0.0000 
     20 CA          8.6390   45.9890   -2.7130 C.3       6 GLP5        0.0000 
     21 CA          3.4390   44.2665    0.4850 C.3       3 GLC5        0.0000 
     22 CA          4.5150   45.7550    0.2320 C.3       9 GLL5        0.0000 
     23 CA          2.3630   42.7780    0.7380 C.3       6 GLP5        0.0000 
     24 CA          6.5335   45.9105   -2.0705 C.3       3 GLC5        0.0000 
     25 CA          4.4280   45.8320   -1.4280 C.3       9 GLL5        0.0000 
     26 CA          2.8810   44.7255   -0.7045 C.3       3 GLC5        0.0000 
     27 CA          1.3340   43.6190    0.0190 C.3       6 GLP5        0.0000 
     28 CA          7.0815   47.1220   -2.1915 C.3       3 GLC5        0.0000 
     29 CA          5.5240   48.2550   -1.6700 C.3       9 GLL5        0.0000 
     30 CA          5.9810   51.2810   -1.4785 C.3       3 GLC5        0.0000 
     31 CA          5.2380   49.6610   -2.6060 C.3       9 GLL5        0.0000 
     32 CA          6.7240   52.9010   -0.3510 C.3       6 GLP5        0.0000 
     33 CA          3.5270   49.2325    2.5290 C.3       3 GLC5        0.0000 
     34 CA          4.7890   47.5200    3.0120 C.3       9 GLL5        0.0000 
     35 CA          2.2650   50.9450    2.0460 C.3       6 GLP5        0.0000 
     36 CA          3.3025   47.8420    3.8010 C.3       3 GLC5        0.0000 
     37 CA          1.8160   48.1640    4.5900 C.3       6 GLP5        0.0000 
     38 CA          6.3730   47.3040    6.2793 C.3       3 GLC5        0.0000 
     39 CA          5.1260   48.3780    7.6770 C.3       6 GLP5        0.0000 
     40 CA         10.1248   48.0920    4.3300 C.3       3 GLC5        0.0000 
     41 CA          8.1910   46.8190    4.8870 C.3       9 GLL5        0.0000 
     42 CA         12.0250   48.8230    4.2490 C.3       6 GLP5        0.0000 
     43 CA          7.3657   49.7945    3.9705 C.3       3 GLC5        0.0000 
     44 CA          8.2580   47.9030    3.9350 C.3       9 GLL5        0.0000 
     45 CA          6.9700   51.6620    4.6150 C.3       6 GLP5        0.0000 
     46 CA          6.9573   51.0330    0.3353 C.3       3 GLC5        0.0000 
     47 CA          8.7088   49.4170    0.2893 C.3       3 GLC5        0.0000 
     48 CA          6.9860   49.1440    0.2170 C.3       9 GLL5        0.0000 
     49 CA         10.2270   49.6690   -0.4430 C.3       6 GLP5        0.0000 
     50 CA          6.0557   50.4468   -4.6783 C.3       3 GLC5        0.0000 
     51 CA          7.2630   51.4960   -6.0630 C.3       6 GLP5        0.0000 
@<TRIPOS>BOND
@<TRIPOS>SUBSTRUCTURE
     1 ALC1       12 GROUP        1 X    ALC  0     ROOT ALC X 1
     2 SEC2        9 GROUP        1 X    SEC  0     **** SEC X 2
     3 GLC5        1 GROUP        1 X    GLC  0     **** GLC X 6
     4 ALP1       14 GROUP        1 Y    ALP  0     ROOT ALP Y 8
     5 SEP2       11 GROUP        1 Y    SEP  0     **** SEP Y 9
     6 GLP5        3 GROUP        1 Y    GLP  0     **** GLP Y 13
     7 ALL1       13 GROUP        1 Z    ALL  0     ROOT ALL Z 15
     8 SEL2       10 GROUP        1 Z    SEL  0     **** SEL Z 16
     9 GLL5        2 GROUP        1 Z    GLL  0     **** GLL Z 20
@<TRIPOS>SET

