#    Name: 1nfq_AE2_1_ligand
#    Modification time : Mon Mar 24 18:07:33 2014

@<TRIPOS>MOLECULE
1nfq_AE2_1_ligand
   51    54     1     0     0
SMALL
NO_CHARGES


@<TRIPOS>ATOM
      1 C1          6.2610   45.5830    3.3630 C.3       1 AE2401      0.0000 
      2 C2          7.0490   45.6410    4.8760 C.3       1 AE2401      0.0000 
      3 C3          8.1910   46.8190    4.8870 C.3       1 AE2401      0.0000 
      4 O3          9.2250   46.8640    5.8770 O.3       1 AE2401      0.0000 
      5 C4          8.2580   47.9030    3.9350 C.3       1 AE2401      0.0000 
      6 C5          7.2650   47.9510    2.7170 C.3       1 AE2401      0.0000 
      7 C6          7.3950   49.1860    1.8260 C.3       1 AE2401      0.0000 
      8 C7          6.9860   49.1440    0.2170 C.3       1 AE2401      0.0000 
      9 C8          5.7620   48.2640   -0.0500 C.3       1 AE2401      0.0000 
     10 C9          5.9250   46.6910    0.6700 C.3       1 AE2401      0.0000 
     11 C10         6.1380   46.8640    2.3610 C.3       1 AE2401      0.0000 
     12 C11         4.5150   45.7550    0.2320 C.3       1 AE2401      0.0000 
     13 C12         4.4280   45.8320   -1.4280 C.3       1 AE2401      0.0000 
     14 C13         4.3770   47.3790   -2.0840 C.3       1 AE2401      0.0000 
     15 C14         5.5240   48.2550   -1.6700 C.3       1 AE2401      0.0000 
     16 C15         5.2380   49.6610   -2.6060 C.3       1 AE2401      0.0000 
     17 C16         4.4590   49.1340   -3.9810 C.3       1 AE2401      0.0000 
     18 C17         4.4370   47.5050   -3.6480 C.2       1 AE2401      0.0000 
     19 O17         3.4120   46.7640   -4.3170 O.2       1 AE2401      0.0000 
     20 C18         2.8660   47.8230   -1.5300 C.3       1 AE2401      0.0000 
     21 C19         4.7890   47.5200    3.0120 C.3       1 AE2401      0.0000 
     22 H           5.2282   45.2075    3.5799 H         1 AE2401      0.0000 
     23 H           6.7529   44.7466    2.8034 H         1 AE2401      0.0000 
     24 H           7.5130   44.7015    5.0142 H         1 AE2401      0.0000 
     25 H           6.3088   45.8635    5.5968 H         1 AE2401      0.0000 
     26 H           9.0277   46.0029    4.0402 H         1 AE2401      0.0000 
     27 H           9.2996   47.9765    3.4857 H         1 AE2401      0.0000 
     28 H           8.1477   48.9045    4.4613 H         1 AE2401      0.0000 
     29 H           8.2202   47.2644    1.8903 H         1 AE2401      0.0000 
     30 H           8.4543   49.5657    1.8471 H         1 AE2401      0.0000 
     31 H           6.7955   50.0356    2.2565 H         1 AE2401      0.0000 
     32 H           7.8574   48.7683   -0.3028 H         1 AE2401      0.0000 
     33 H           6.7988   50.1702   -0.0703 H         1 AE2401      0.0000 
     34 H           4.8919   48.7058    0.4013 H         1 AE2401      0.0000 
     35 H           6.7552   46.2465    0.2517 H         1 AE2401      0.0000 
     36 H           3.7072   46.2428    0.6427 H         1 AE2401      0.0000 
     37 H           4.7107   44.7873    0.5226 H         1 AE2401      0.0000 
     38 H           3.5302   45.3194   -1.7401 H         1 AE2401      0.0000 
     39 H           5.2997   45.3388   -1.8320 H         1 AE2401      0.0000 
     40 H           6.4291   47.8089   -2.1553 H         1 AE2401      0.0000 
     41 H           6.1602   50.0450   -2.8678 H         1 AE2401      0.0000 
     42 H           4.5957   50.2615   -2.0645 H         1 AE2401      0.0000 
     43 H           5.0708   49.2898   -4.7712 H         1 AE2401      0.0000 
     44 H           3.5078   49.4772   -3.9576 H         1 AE2401      0.0000 
     45 H           2.8621   47.9725   -0.5413 H         1 AE2401      0.0000 
     46 H           2.5485   48.6703   -1.9558 H         1 AE2401      0.0000 
     47 H           2.1790   47.1225   -1.7232 H         1 AE2401      0.0000 
     48 H           4.8591   47.6033    4.0061 H         1 AE2401      0.0000 
     49 H           4.6110   48.4362    2.6529 H         1 AE2401      0.0000 
     50 H           3.9778   46.9675    2.8206 H         1 AE2401      0.0000 
     51 H          10.0768   46.9370    5.3582 H         1 AE2401      0.0000 
@<TRIPOS>BOND
     1    2    1 1    
     2   11    1 1    
     3   22    1 1    
     4   23    1 1    
     5    3    2 1    
     6   24    2 1    
     7   25    2 1    
     8    4    3 1    
     9    5    3 1    
    10   26    3 1    
    11   51    4 1    
    12    6    5 1    
    13   27    5 1    
    14   28    5 1    
    15    7    6 1    
    16   11    6 1    
    17   29    6 1    
    18    8    7 1    
    19   30    7 1    
    20   31    7 1    
    21    9    8 1    
    22   32    8 1    
    23   33    8 1    
    24   10    9 1    
    25   15    9 1    
    26   34    9 1    
    27   11   10 1    
    28   12   10 1    
    29   35   10 1    
    30   21   11 1    
    31   13   12 1    
    32   36   12 1    
    33   37   12 1    
    34   14   13 1    
    35   38   13 1    
    36   39   13 1    
    37   15   14 1    
    38   18   14 1    
    39   20   14 1    
    40   16   15 1    
    41   40   15 1    
    42   17   16 1    
    43   41   16 1    
    44   42   16 1    
    45   18   17 1    
    46   43   17 1    
    47   44   17 1    
    48   19   18 2    
    49   45   20 1    
    50   46   20 1    
    51   47   20 1    
    52   48   21 1    
    53   49   21 1    
    54   50   21 1    
@<TRIPOS>SUBSTRUCTURE
     1 AE2401      1 GROUP   
@<TRIPOS>SET

