#    Name: 4eqk_MGT_1_INTS_M
#    Modification time : Mon Mar 24 18:25:00 2014

@<TRIPOS>MOLECULE
4eqk_MGT_1_INTS_M
   56     0    12     0     0
SMALL
NO_CHARGES


@<TRIPOS>ATOM
      1 NZ          6.4145   25.0600   11.2545 N.4       3 LYC4        0.0000 
      2 NZ          7.6520   24.2450   11.7310 N.4      11 LYL4        0.0000 
      3 NZ          5.0050   25.8970    9.4500 N.4       7 LYP4        0.0000 
      4 N           6.4145   25.0600   11.2545 N.am      2 SEC2        0.0000 
      5 N           7.6520   24.2450   11.7310 N.am     10 SEL2        0.0000 
      6 N           5.1770   25.8750   10.7780 N.am      6 SEP2        0.0000 
      7 NZ          8.8965   27.3410   13.2085 N.4       3 LYC4        0.0000 
      8 NZ          8.8680   26.3260   12.7480 N.4      11 LYL4        0.0000 
      9 NZ          8.9250   28.3560   13.6690 N.4       7 LYP4        0.0000 
     10 N           8.8965   27.3410   13.2085 N.am      2 SEC2        0.0000 
     11 N           8.8680   26.3260   12.7480 N.am     10 SEL2        0.0000 
     12 N           8.9250   28.3560   13.6690 N.am      6 SEP2        0.0000 
     13 N           7.2930   20.8250   13.6855 N.am      2 SEC2        0.0000 
     14 N           6.5900   22.2650   13.9540 N.am     10 SEL2        0.0000 
     15 N           7.9960   19.3850   13.4170 N.am      6 SEP2        0.0000 
     16 N           9.2655   20.0230   13.7330 N.am      2 SEC2        0.0000 
     17 N          10.5350   20.6610   14.0490 N.am     10 SEL2        0.0000 
     18 CA         13.0720   21.1400   16.5495 C.3       4 GLC5        0.0000 
     19 CA         11.8000   22.7330   16.8710 C.3      12 GLL5        0.0000 
     20 CA         14.3440   19.5470   16.2280 C.3       8 GLP5        0.0000 
     21 CA         13.2530   24.7915   18.3570 C.3       4 GLC5        0.0000 
     22 CA         12.1170   24.2200   17.0450 C.3      12 GLL5        0.0000 
     23 CA         14.3890   25.3630   19.6690 C.3       8 GLP5        0.0000 
     24 N          10.2730   27.7525   14.2830 N.am      2 SEC2        0.0000 
     25 N          11.6210   27.1490   14.8970 N.am     10 SEL2        0.0000 
     26 O          12.4290   27.5480   13.4615 O.2       1 ALC1        0.0000 
     27 O          11.6210   27.1490   14.8970 O.2       9 ALL1        0.0000 
     28 O          13.2370   27.9470   12.0260 O.2       5 ALP1        0.0000 
     29 CA         14.3775   25.6215   17.3405 C.3       4 GLC5        0.0000 
     30 CA         13.2800   25.7460   15.8310 C.3      12 GLL5        0.0000 
     31 CA         15.4750   25.4970   18.8500 C.3       8 GLP5        0.0000 
     32 CA         15.3095   25.1065   15.8885 C.3       4 GLC5        0.0000 
     33 CA         17.3390   24.4670   15.9460 C.3       8 GLP5        0.0000 
     34 CA         14.3670   26.2895   12.4690 C.3       4 GLC5        0.0000 
     35 CA         14.5730   24.8780   13.8970 C.3      12 GLL5        0.0000 
     36 CA         14.1610   27.7010   11.0410 C.3       8 GLP5        0.0000 
     37 CA         15.9560   24.6725   14.9215 C.3       4 GLC5        0.0000 
     38 CA         15.1955   26.2585   11.5725 C.3       4 GLC5        0.0000 
     39 CA         16.2300   24.8160   12.1040 C.3      12 GLL5        0.0000 
     40 CA         16.7845   24.6415   14.0250 C.3       4 GLC5        0.0000 
     41 CA         16.8470   24.0615   10.3895 C.3       4 GLC5        0.0000 
     42 CA         17.4640   23.3070    8.6750 C.3       8 GLP5        0.0000 
     43 CA         15.9935   22.8315   11.6455 C.3       4 GLC5        0.0000 
     44 CA         15.7570   20.8470   11.1870 C.3       8 GLP5        0.0000 
     45 N          18.7965   27.5825   11.5810 N.am      2 SEC2        0.0000 
     46 N          17.6760   27.5300   12.4010 N.am     10 SEL2        0.0000 
     47 N          19.9170   27.6350   10.7610 N.am      6 SEP2        0.0000 
     48 O          17.8600   29.8435   13.8165 O.2       1 ALC1        0.0000 
     49 O          16.8950   28.9120   14.1080 O.2       9 ALL1        0.0000 
     50 O          18.8250   30.7750   13.5250 O.2       5 ALP1        0.0000 
     51 O          17.3675   30.4715   14.5650 O.2       1 ALC1        0.0000 
     52 O          17.8400   32.0310   15.0220 O.2       5 ALP1        0.0000 
     53 O          16.9810   31.1595   15.4255 O.2       1 ALC1        0.0000 
     54 O          16.1220   30.2880   15.8290 O.2       9 ALL1        0.0000 
     55 CA         14.8202   27.3060   12.6505 C.3       4 GLC5        0.0000 
     56 CA         15.9230   26.7720   13.7090 C.3      12 GLL5        0.0000 
@<TRIPOS>BOND
@<TRIPOS>SUBSTRUCTURE
     1 ALC1       26 GROUP        1 X    ALC  0     ROOT ALC X 1
     2 SEC2        4 GROUP        1 X    SEC  0     **** SEC X 2
     3 LYC4        1 GROUP        1 X    LYC  0     **** LYC X 4
     4 GLC5       18 GROUP        1 X    GLC  0     **** GLC X 6
     5 ALP1       28 GROUP        1 Y    ALP  0     ROOT ALP Y 8
     6 SEP2        6 GROUP        1 Y    SEP  0     **** SEP Y 9
     7 LYP4        3 GROUP        1 Y    LYP  0     **** LYP Y 11
     8 GLP5       20 GROUP        1 Y    GLP  0     **** GLP Y 13
     9 ALL1       27 GROUP        1 Z    ALL  0     ROOT ALL Z 15
    10 SEL2        5 GROUP        1 Z    SEL  0     **** SEL Z 16
    11 LYL4        2 GROUP        1 Z    LYL  0     **** LYL Z 18
    12 GLL5       19 GROUP        1 Z    GLL  0     **** GLL Z 20
@<TRIPOS>SET

