#    Name: 4eqk_MGT_1_ligand
#    Modification time : Mon Mar 24 18:25:00 2014

@<TRIPOS>MOLECULE
4eqk_MGT_1_ligand
   49    51     1     0     0
SMALL
NO_CHARGES


@<TRIPOS>ATOM
      1 PG          8.6590   24.8170   12.7290 P.3       1 MGT502      0.0000 
      2 O1G         7.6520   24.2450   11.7310 O.co2     1 MGT502      0.0000 
      3 O2G         8.8680   26.3260   12.7480 O.co2     1 MGT502      0.0000 
      4 O3G         9.9780   24.0490   12.7340 O.co2     1 MGT502      0.0000 
      5 O3B         7.8380   24.5780   14.1180 O.3       1 MGT502      0.0000 
      6 PB          7.6000   23.1130   14.7400 P.3       1 MGT502      0.0000 
      7 O1B         6.5900   22.2650   13.9540 O.co2     1 MGT502      0.0000 
      8 O2B         7.3150   23.2980   16.2150 O.co2     1 MGT502      0.0000 
      9 O3A         9.1270   22.6450   14.4100 O.3       1 MGT502      0.0000 
     10 PA         10.0990   21.5710   15.1650 P.3       1 MGT502      0.0000 
     11 O1A        10.5350   20.6610   14.0490 O.co2     1 MGT502      0.0000 
     12 O2A         9.4550   21.1240   16.4840 O.co2     1 MGT502      0.0000 
     13 O5'        11.4250   22.4570   15.5230 O.3       1 MGT502      0.0000 
     14 C5'        11.8000   22.7330   16.8710 C.3       1 MGT502      0.0000 
     15 C4'        12.1170   24.2200   17.0450 C.3       1 MGT502      0.0000 
     16 O4'        13.3800   24.4700   16.4500 O.3       1 MGT502      0.0000 
     17 C3'        11.1390   25.1870   16.3710 C.3       1 MGT502      0.0000 
     18 O3'        10.9200   26.1830   17.3660 O.3       1 MGT502      0.0000 
     19 C2'        11.9090   25.7860   15.1970 C.3       1 MGT502      0.0000 
     20 O2'        11.6210   27.1490   14.8970 O.3       1 MGT502      0.0000 
     21 C1'        13.2800   25.7460   15.8310 C.3       1 MGT502      0.0000 
     22 N9         14.3470   25.9470   14.8490 N.3       1 MGT502      0.0000 
     23 C8         14.5730   24.8780   13.8970 C.3       1 MGT502      0.0000 
     24 N7         15.6410   25.5780   13.2200 N.3       1 MGT502      0.0000 
     25 CM7        16.2300   24.8160   12.1040 C.3       1 MGT502      0.0000 
     26 C5         15.9230   26.7720   13.7090 C.2       1 MGT502      0.0000 
     27 C6         16.8990   27.7770   13.3520 C.2       1 MGT502      0.0000 
     28 O6         17.6760   27.5300   12.4010 O.2       1 MGT502      0.0000 
     29 N1         16.8950   28.9120   14.1080 N.am      1 MGT502      0.0000 
     30 C2         16.0500   29.1300   15.1440 C.2       1 MGT502      0.0000 
     31 N2         16.1220   30.2880   15.8290 N.pl3     1 MGT502      0.0000 
     32 N3         15.1250   28.2070   15.5100 N.2       1 MGT502      0.0000 
     33 C4         15.0360   27.0500   14.8110 C.2       1 MGT502      0.0000 
     34 H          12.6928   22.1658   17.1702 H         1 MGT502      0.0000 
     35 H          10.9971   22.4797   17.5777 H         1 MGT502      0.0000 
     36 H          12.1545   24.4514   18.0987 H         1 MGT502      0.0000 
     37 H          10.3069   24.6854   16.0663 H         1 MGT502      0.0000 
     38 H          11.9047   25.1231   14.4022 H         1 MGT502      0.0000 
     39 H          13.3102   26.5259   16.5851 H         1 MGT502      0.0000 
     40 H          13.7474   24.7515   13.2714 H         1 MGT502      0.0000 
     41 H          14.9260   24.0192   14.3735 H         1 MGT502      0.0000 
     42 H          17.6023   29.6728   13.8656 H         1 MGT502      0.0000 
     43 H          16.4681   31.0779   15.3228 H         1 MGT502      0.0000 
     44 H          15.8229   30.2544   16.7826 H         1 MGT502      0.0000 
     45 H          16.9648   25.3239   11.6544 H         1 MGT502      0.0000 
     46 H          16.6195   23.9479   12.4117 H         1 MGT502      0.0000 
     47 H          15.5509   24.6002   11.4024 H         1 MGT502      0.0000 
     48 H          11.1356   27.0497   16.9163 H         1 MGT502      0.0000 
     49 H          12.4622   27.5082   14.4929 H         1 MGT502      0.0000 
@<TRIPOS>BOND
     1    2    1 ar   
     2    3    1 ar   
     3    4    1 ar   
     4    5    1 1    
     5    6    5 1    
     6    7    6 ar   
     7    8    6 ar   
     8    9    6 1    
     9   10    9 1    
    10   11   10 ar   
    11   12   10 ar   
    12   13   10 1    
    13   14   13 1    
    14   15   14 1    
    15   34   14 1    
    16   35   14 1    
    17   16   15 1    
    18   17   15 1    
    19   36   15 1    
    20   21   16 1    
    21   18   17 1    
    22   19   17 1    
    23   37   17 1    
    24   48   18 1    
    25   20   19 1    
    26   21   19 1    
    27   38   19 1    
    28   49   20 1    
    29   22   21 1    
    30   39   21 1    
    31   23   22 1    
    32   33   22 1    
    33   24   23 1    
    34   40   23 1    
    35   41   23 1    
    36   25   24 1    
    37   26   24 1    
    38   45   25 1    
    39   46   25 1    
    40   47   25 1    
    41   27   26 1    
    42   33   26 2    
    43   28   27 2    
    44   29   27 am   
    45   30   29 1    
    46   42   29 1    
    47   31   30 1    
    48   32   30 2    
    49   43   31 1    
    50   44   31 1    
    51   33   32 1    
@<TRIPOS>SUBSTRUCTURE
     1 MGT502      1 GROUP   
@<TRIPOS>SET

