#    Name: 3azb_KM1_3_INTS_M
#    Modification time : Mon Mar 24 18:31:08 2014

@<TRIPOS>MOLECULE
3azb_KM1_3_INTS_M
   59     0     6     0     0
SMALL
NO_CHARGES


@<TRIPOS>ATOM
      1 CA          3.6850  -80.4745  -56.9590 C.3       2 GLC5        0.0000 
      2 CA          4.5020  -80.1680  -55.0830 C.3       6 GLL5        0.0000 
      3 CA          2.8680  -80.7810  -58.8350 C.3       4 GLP5        0.0000 
      4 CA          6.2010  -78.6795  -53.6390 C.3       2 GLC5        0.0000 
      5 CA          4.2820  -78.8060  -54.5820 C.3       6 GLL5        0.0000 
      6 CA          8.1200  -78.5530  -52.6960 C.3       4 GLP5        0.0000 
      7 CA          4.6435  -78.4295  -52.7595 C.3       2 GLC5        0.0000 
      8 CA          5.0050  -78.0530  -50.9370 C.3       4 GLP5        0.0000 
      9 N           5.3960  -76.3855  -54.2820 N.am      1 SEC2        0.0000 
     10 N           4.8030  -77.5940  -55.1950 N.am      5 SEL2        0.0000 
     11 N           5.9890  -75.1770  -53.3690 N.am      3 SEP2        0.0000 
     12 CA          5.5510  -75.6940  -54.1175 C.3       2 GLC5        0.0000 
     13 CA          3.8690  -76.5880  -55.3140 C.3       6 GLL5        0.0000 
     14 CA          7.2330  -74.8000  -52.9210 C.3       4 GLP5        0.0000 
     15 CA          2.9615  -75.4310  -50.2730 C.3       2 GLC5        0.0000 
     16 CA          2.5850  -76.5030  -51.9250 C.3       6 GLL5        0.0000 
     17 CA          3.3380  -74.3590  -48.6210 C.3       4 GLP5        0.0000 
     18 CA          2.4430  -74.2720  -50.6875 C.3       2 GLC5        0.0000 
     19 CA          1.6260  -75.5040  -51.9850 C.3       6 GLL5        0.0000 
     20 CA          3.2600  -73.0400  -49.3900 C.3       4 GLP5        0.0000 
     21 CA          2.1990  -72.8710  -53.0450 C.3       2 GLC5        0.0000 
     22 CA          1.3900  -74.8570  -53.1780 C.3       6 GLL5        0.0000 
     23 CA          3.0080  -70.8850  -52.9120 C.3       4 GLP5        0.0000 
     24 CA          1.8300  -72.1190  -54.1565 C.3       2 GLC5        0.0000 
     25 CA          0.6520  -73.3530  -55.4010 C.3       6 GLL5        0.0000 
     26 CA         -0.3475  -74.9890  -54.7800 C.3       2 GLC5        0.0000 
     27 CA         -1.3470  -76.6250  -54.1590 C.3       4 GLP5        0.0000 
     28 CA          0.6705  -74.8720  -56.9275 C.3       2 GLC5        0.0000 
     29 CA          0.6890  -76.3910  -58.4540 C.3       4 GLP5        0.0000 
     30 CA          4.2675  -83.9865  -52.6620 C.3       2 GLC5        0.0000 
     31 CA          3.2820  -83.8340  -53.8380 C.3       6 GLL5        0.0000 
     32 CA          5.2530  -84.1390  -51.4860 C.3       4 GLP5        0.0000 
     33 CA          3.0170  -85.6815  -52.6620 C.3       2 GLC5        0.0000 
     34 CA          2.7520  -87.5290  -51.4860 C.3       4 GLP5        0.0000 
     35 CA          1.3660  -83.0135  -54.2405 C.3       2 GLC5        0.0000 
     36 CA         -0.5500  -82.1930  -54.6430 C.3       4 GLP5        0.0000 
     37 CA          6.9995  -82.1549  -55.7569 C.3       2 GLC5        0.0000 
     38 CA          5.4330  -81.7360  -56.6190 C.3       6 GLL5        0.0000 
     39 CA          8.9050  -82.3750  -55.3480 C.3       4 GLP5        0.0000 
     40 CA          6.0885  -82.8629  -57.2579 C.3       2 GLC5        0.0000 
     41 CA          7.0830  -83.7910  -58.3500 C.3       4 GLP5        0.0000 
     42 CA          3.9810  -81.3579  -57.5004 C.3       2 GLC5        0.0000 
     43 CA          4.6203  -83.0002  -53.0348 C.3       2 GLC5        0.0000 
     44 CA          4.0690  -82.5210  -54.7870 C.3       6 GLL5        0.0000 
     45 CA          2.1564  -80.9214  -54.8611 C.3       2 GLC5        0.0000 
     46 CA          0.0680  -80.8280  -54.8890 C.3       4 GLP5        0.0000 
     47 CA          3.7853  -75.2070  -58.4368 C.3       2 GLC5        0.0000 
     48 CA          3.6410  -75.9380  -56.5290 C.3       6 GLL5        0.0000 
     49 CA          4.4150  -74.9800  -60.3080 C.3       4 GLP5        0.0000 
     50 CA          4.0088  -73.5685  -56.9967 C.3       2 GLC5        0.0000 
     51 CA          4.8620  -71.7030  -57.4280 C.3       4 GLP5        0.0000 
     52 CA          0.5945  -72.6720  -56.0750 C.3       2 GLC5        0.0000 
     53 CA          1.9260  -74.5950  -55.4690 C.3       6 GLL5        0.0000 
     54 CA         -0.1000  -71.3700  -56.7150 C.3       4 GLP5        0.0000 
     55 CA          0.9672  -76.5113  -50.6965 C.3       2 GLC5        0.0000 
     56 CA         -0.1710  -77.0190  -49.4380 C.3       4 GLP5        0.0000 
     57 CA          0.4962  -76.8537  -52.5260 C.3       2 GLC5        0.0000 
     58 CA         -1.1130  -77.7040  -53.0970 C.3       4 GLP5        0.0000 
     59 CA          0.3171  -75.9204  -54.0076 C.3       2 GLC5        0.0000 
@<TRIPOS>BOND
@<TRIPOS>SUBSTRUCTURE
     1 SEC2        9 GROUP        1 X    SEC  0     ROOT SEC X 2
     2 GLC5        1 GROUP        1 X    GLC  0     **** GLC X 6
     3 SEP2       11 GROUP        1 Y    SEP  0     ROOT SEP Y 9
     4 GLP5        3 GROUP        1 Y    GLP  0     **** GLP Y 13
     5 SEL2       10 GROUP        1 Z    SEL  0     ROOT SEL Z 16
     6 GLL5        2 GROUP        1 Z    GLL  0     **** GLL Z 20
@<TRIPOS>SET

