#    Name: 3azb_KM1_3_ligand
#    Modification time : Mon Mar 24 18:31:08 2014

@<TRIPOS>MOLECULE
3azb_KM1_3_ligand
   31    33     1     0     0
SMALL
NO_CHARGES


@<TRIPOS>ATOM
      1 C1          5.2770  -80.4210  -56.2100 C.ar      1 KM13        0.0000 
      2 C2          5.4330  -81.7360  -56.6190 C.ar      1 KM13        0.0000 
      3 C3          4.8330  -82.7910  -55.9170 C.ar      1 KM13        0.0000 
      4 C4          4.0690  -82.5210  -54.7870 C.ar      1 KM13        0.0000 
      5 C5          3.9060  -81.2020  -54.3800 C.ar      1 KM13        0.0000 
      6 C6          4.5020  -80.1680  -55.0830 C.ar      1 KM13        0.0000 
      7 C7          4.2820  -78.8060  -54.5820 C.3       1 KM13        0.0000 
      8 O8          4.8030  -77.5940  -55.1950 O.3       1 KM13        0.0000 
      9 C9          3.8690  -76.5880  -55.3140 C.ar      1 KM13        0.0000 
     10 C10         3.6410  -75.9380  -56.5290 C.ar      1 KM13        0.0000 
     11 C11         2.6700  -74.9300  -56.6020 C.ar      1 KM13        0.0000 
     12 C12         1.9260  -74.5950  -55.4690 C.ar      1 KM13        0.0000 
     13 C13         2.1480  -75.2360  -54.2790 C.ar      1 KM13        0.0000 
     14 C14         3.1080  -76.2340  -54.1950 C.ar      1 KM13        0.0000 
     15 N15         3.3000  -76.8380  -53.0070 N.ar      1 KM13        0.0000 
     16 C16         2.5850  -76.5030  -51.9250 C.ar      1 KM13        0.0000 
     17 C17         1.6260  -75.5040  -51.9850 C.ar      1 KM13        0.0000 
     18 C18         1.3900  -74.8570  -53.1780 C.ar      1 KM13        0.0000 
     19 CL19        0.6520  -73.3530  -55.4010 Cl        1 KM13        0.0000 
     20 CL20        3.2820  -83.8340  -53.8380 Cl        1 KM13        0.0000 
     21 H           5.7172  -79.6585  -56.7195 H         1 KM13        0.0000 
     22 H           6.0017  -81.9505  -57.4575 H         1 KM13        0.0000 
     23 H           4.9601  -83.7551  -56.2395 H         1 KM13        0.0000 
     24 H           3.3343  -80.9930  -53.5446 H         1 KM13        0.0000 
     25 H           4.5929  -78.7969  -53.4554 H         1 KM13        0.0000 
     26 H           3.1293  -78.6689  -54.4462 H         1 KM13        0.0000 
     27 H           4.1775  -76.1941  -57.3606 H         1 KM13        0.0000 
     28 H           2.5078  -74.4402  -57.4880 H         1 KM13        0.0000 
     29 H           2.7369  -76.9894  -51.0133 H         1 KM13        0.0000 
     30 H           1.0955  -75.2500  -51.1411 H         1 KM13        0.0000 
     31 H           0.6883  -74.1283  -53.2557 H         1 KM13        0.0000 
@<TRIPOS>BOND
     1    2    1 ar   
     2    6    1 ar   
     3   21    1 1    
     4    3    2 ar   
     5   22    2 1    
     6    4    3 ar   
     7   23    3 1    
     8    5    4 ar   
     9   20    4 1    
    10    6    5 ar   
    11   24    5 1    
    12    7    6 1    
    13    8    7 1    
    14   25    7 1    
    15   26    7 1    
    16    9    8 1    
    17   10    9 ar   
    18   14    9 ar   
    19   11   10 ar   
    20   27   10 1    
    21   12   11 ar   
    22   28   11 1    
    23   13   12 ar   
    24   19   12 1    
    25   14   13 ar   
    26   18   13 ar   
    27   15   14 ar   
    28   16   15 ar   
    29   17   16 ar   
    30   29   16 1    
    31   18   17 ar   
    32   30   17 1    
    33   31   18 1    
@<TRIPOS>SUBSTRUCTURE
     1 KM13        1 GROUP   
@<TRIPOS>SET

