#    Name: 1A4W_1_CAVITY_N1_6.mol2
#    Modification time : Mon Mar 10 12:32:49 2014

@<TRIPOS>MOLECULE
1A4W_1_CAVITY_N1_6.mol2
  104     0     7     0     0
SMALL
NO_CHARGES


@<TRIPOS>ATOM
      1 N          17.1344  -16.0625   23.2612 N.2       2 ALA2        0.0000 
      2 DU         18.2516  -15.8373   22.2859 H         7 CUB7        0.0000 
      3 DU         19.3687  -15.6121   21.3105 H         7 CUB7        0.0000 
      4 CZ         20.4858  -15.3870   20.3351 C.ar      5 PHE5        0.0000 
      5 N          16.1984  -16.3456   22.1238 N.2       2 ALA2        0.0000 
      6 DU         17.3155  -16.1204   21.1485 H         7 CUB7        0.0000 
      7 CZ         18.4326  -15.8952   20.1731 C.ar      5 PHE5        0.0000 
      8 CZ         19.5498  -15.6700   19.1977 C.ar      5 PHE5        0.0000 
      9 N          14.1453  -16.8538   21.9618 N.2       2 ALA2        0.0000 
     10 DU         15.2624  -16.6286   20.9864 H         7 CUB7        0.0000 
     11 CZ         16.3795  -16.4034   20.0110 C.ar      5 PHE5        0.0000 
     12 NZ         13.2092  -17.1369   20.8244 N.2       4 LYS4        0.0000 
     13 CA         17.7157  -14.3237   24.3284 C.3       6 GLY6        0.0000 
     14 CA         18.8328  -14.0985   23.3530 C.3       6 GLY6        0.0000 
     15 CA         19.9499  -13.8733   22.3776 C.3       6 GLY6        0.0000 
     16 CZ         21.0670  -13.6482   21.4023 C.ar      5 PHE5        0.0000 
     17 N          16.7796  -14.6068   23.1910 N.2       2 ALA2        0.0000 
     18 CA         17.8967  -14.3816   22.2156 C.3       6 GLY6        0.0000 
     19 DU         19.0139  -14.1564   21.2402 H         7 CUB7        0.0000 
     20 CZ         20.1310  -13.9312   20.2648 C.ar      5 PHE5        0.0000 
     21 CZ         21.2481  -13.7060   19.2895 C.ar      5 PHE5        0.0000 
     22 N          15.8436  -14.8898   22.0535 N.2       2 ALA2        0.0000 
     23 DU         16.9607  -14.6646   21.0782 H         7 CUB7        0.0000 
     24 DU         18.0778  -14.4395   20.1028 H         7 CUB7        0.0000 
     25 CZ         19.1950  -14.2143   19.1274 C.ar      5 PHE5        0.0000 
     26 CZ         20.3121  -13.9891   18.1521 C.ar      5 PHE5        0.0000 
     27 N          13.7904  -15.3981   21.8915 N.2       2 ALA2        0.0000 
     28 N          14.9076  -15.1729   20.9161 N.2       2 ALA2        0.0000 
     29 DU         16.0247  -14.9477   19.9408 H         7 CUB7        0.0000 
     30 CZ         17.1418  -14.7225   18.9654 C.ar      5 PHE5        0.0000 
     31 CZ         18.2589  -14.4974   17.9900 C.ar      5 PHE5        0.0000 
     32 CZ         19.3760  -14.2722   17.0146 C.ar      5 PHE5        0.0000 
     33 N          11.7373  -15.9063   21.7294 N.2       2 ALA2        0.0000 
     34 NZ         12.8544  -15.6811   20.7541 N.2       4 LYS4        0.0000 
     35 NZ         13.9715  -15.4559   19.7787 N.2       4 LYS4        0.0000 
     36 NZ         15.0886  -15.2308   18.8033 N.2       4 LYS4        0.0000 
     37 CZ         16.2058  -15.0056   17.8280 C.ar      5 PHE5        0.0000 
     38 NZ         14.1526  -15.5138   17.6659 N.2       4 LYS4        0.0000 
     39 CA         16.4248  -13.1510   23.1207 C.3       6 GLY6        0.0000 
     40 CA         17.5419  -12.9258   22.1453 C.3       6 GLY6        0.0000 
     41 CA         18.6591  -12.7007   21.1699 C.3       6 GLY6        0.0000 
     42 CA         19.7762  -12.4755   20.1946 C.3       6 GLY6        0.0000 
     43 CA         20.8933  -12.2503   19.2192 C.3       6 GLY6        0.0000 
     44 O          15.4888  -13.4341   21.9832 O.2       2 ALA2        0.0000 
     45 DU         16.6059  -13.2089   21.0079 H         7 CUB7        0.0000 
     46 N          17.7230  -12.9837   20.0325 N.2       2 ALA2        0.0000 
     47 CA         18.8401  -12.7586   19.0571 C.3       6 GLY6        0.0000 
     48 CA         19.9573  -12.5334   18.0818 C.3       6 GLY6        0.0000 
     49 N          13.4356  -13.9423   21.8212 N.2       2 ALA2        0.0000 
     50 DU         14.5528  -13.7171   20.8458 H         7 CUB7        0.0000 
     51 DU         15.6699  -13.4920   19.8705 H         7 CUB7        0.0000 
     52 DU         16.7870  -13.2668   18.8951 H         7 CUB7        0.0000 
     53 CA         17.9041  -13.0416   17.9197 C.3       6 GLY6        0.0000 
     54 OD1        19.0212  -12.8164   16.9444 O.3       3 ASP3        0.0000 
     55 N          11.3825  -14.4506   21.6591 N.2       2 ALA2        0.0000 
     56 NZ         12.4996  -14.2254   20.6838 N.2       4 LYS4        0.0000 
     57 NZ         13.6167  -14.0002   19.7084 N.2       4 LYS4        0.0000 
     58 DU         14.7338  -13.7750   18.7330 H         7 CUB7        0.0000 
     59 DU         15.8510  -13.5499   17.7577 H         7 CUB7        0.0000 
     60 CZ         16.9681  -13.3247   16.7823 C.ar      5 PHE5        0.0000 
     61 OD1        18.0852  -13.0995   15.8069 O.3       3 ASP3        0.0000 
     62 CA         13.7978  -14.0581   17.5956 C.3       6 GLY6        0.0000 
     63 CA         14.9149  -13.8329   16.6203 C.3       6 GLY6        0.0000 
     64 CZ         16.0320  -13.6077   15.6449 C.ar      5 PHE5        0.0000 
     65 OD1        17.1492  -13.3826   14.6695 O.3       3 ASP3        0.0000 
     66 N          17.1871  -11.4701   22.0750 N.2       2 ALA2        0.0000 
     67 N          18.3043  -11.2449   21.0996 N.2       2 ALA2        0.0000 
     68 O          14.0169  -12.2035   22.8883 O.2       2 ALA2        0.0000 
     69 N          15.1340  -11.9783   21.9129 N.2       2 ALA2        0.0000 
     70 N          16.2511  -11.7532   20.9376 N.2       2 ALA2        0.0000 
     71 N          17.3682  -11.5280   19.9622 N.2       2 ALA2        0.0000 
     72 N          11.9637  -12.7118   22.7263 N.2       2 ALA2        0.0000 
     73 O          13.0808  -12.4866   21.7509 O.2       2 ALA2        0.0000 
     74 OG         14.1979  -12.2614   20.7755 O.2       1 SER1        0.0000 
     75 OG         15.3151  -12.0362   19.8002 O.2       1 SER1        0.0000 
     76 OG         16.4322  -11.8111   18.8248 O.2       1 SER1        0.0000 
     77 CA         17.5493  -11.5859   17.8494 C.3       6 GLY6        0.0000 
     78 CA         11.0277  -12.9948   21.5888 C.3       6 GLY6        0.0000 
     79 O          12.1448  -12.7697   20.6135 O.2       2 ALA2        0.0000 
     80 CA         13.2619  -12.5445   19.6381 C.3       6 GLY6        0.0000 
     81 OG         14.3790  -12.3193   18.6627 O.2       1 SER1        0.0000 
     82 OG         15.4962  -12.0941   17.6874 O.2       1 SER1        0.0000 
     83 OG         16.6133  -11.8689   16.7120 O.2       1 SER1        0.0000 
     84 CA         14.5601  -12.3772   16.5500 C.3       6 GLY6        0.0000 
     85 DU         15.6772  -12.1520   15.5746 H         7 CUB7        0.0000 
     86 OD1        16.7944  -11.9268   14.5992 O.3       3 ASP3        0.0000 
     87 CA         13.6241  -12.6603   15.4125 C.3       6 GLY6        0.0000 
     88 O          14.7412  -12.4351   14.4372 O.2       2 ALA2        0.0000 
     89 NZ         11.4278  -11.1981   24.7688 N.2       4 LYS4        0.0000 
     90 O          12.5449  -10.9730   23.7934 O.2       2 ALA2        0.0000 
     91 N          13.6621  -10.7478   22.8180 N.2       2 ALA2        0.0000 
     92 N          10.4918  -11.4812   23.6313 N.2       2 ALA2        0.0000 
     93 N          11.6089  -11.2560   22.6560 N.2       2 ALA2        0.0000 
     94 N          12.7260  -11.0308   21.6806 N.2       2 ALA2        0.0000 
     95 OG         13.8431  -10.8057   20.7052 O.2       1 SER1        0.0000 
     96 CA         10.6729  -11.5391   21.5185 C.3       6 GLY6        0.0000 
     97 N          11.7900  -11.3139   20.5432 N.2       2 ALA2        0.0000 
     98 N          12.9071  -11.0887   19.5678 N.2       2 ALA2        0.0000 
     99 OG         14.2053  -10.9214   16.4797 O.2       1 SER1        0.0000 
    100 OG         15.3224  -10.6963   15.5043 O.2       1 SER1        0.0000 
    101 CA         12.1901   -9.5172   23.7231 C.3       6 GLY6        0.0000 
    102 N          13.3072   -9.2920   22.7477 N.2       2 ALA2        0.0000 
    103 CA         11.2541   -9.8003   22.5857 C.3       6 GLY6        0.0000 
    104 CA         12.3712   -9.5751   21.6103 C.3       6 GLY6        0.0000 
@<TRIPOS>BOND
@<TRIPOS>SUBSTRUCTURE
     1 SER1       74 GROUP   
     2 ALA2        1 GROUP   
     3 ASP3       54 GROUP   
     4 LYS4       12 GROUP   
     5 PHE5        4 GROUP   
     6 GLY6       13 GROUP   
     7 CUB7        2 GROUP   
@<TRIPOS>SET

