#    Name: 1a4w_QWE_1_INTS_M
#    Modification time : Mon Mar 24 17:50:59 2014

@<TRIPOS>MOLECULE
1a4w_QWE_1_INTS_M
   64     0     9     0     0
SMALL
NO_CHARGES


@<TRIPOS>ATOM
      1 CA         18.4700  -13.5775   25.5500 C.3       3 GLC5        0.0000 
      2 CA         19.2410  -15.5680   26.1140 C.3       9 GLL5        0.0000 
      3 CA         17.6990  -11.5870   24.9860 C.3       6 GLP5        0.0000 
      4 CA         16.4610  -16.6635   27.3090 C.3       3 GLC5        0.0000 
      5 CA         17.8930  -15.9710   26.0280 C.3       9 GLL5        0.0000 
      6 CA         15.0290  -17.3560   28.5900 C.3       6 GLP5        0.0000 
      7 CA         15.3690  -16.7850   25.7690 C.3       3 GLC5        0.0000 
      8 CA         17.3700  -16.5100   24.8790 C.3       9 GLL5        0.0000 
      9 CA         13.3680  -17.0600   26.6590 C.3       6 GLP5        0.0000 
     10 CA         22.9140  -14.0905   22.2450 C.3       3 GLC5        0.0000 
     11 CA         21.8980  -14.2170   24.2140 C.3       9 GLL5        0.0000 
     12 CA         23.9300  -13.9640   20.2760 C.3       6 GLP5        0.0000 
     13 CA         22.6240  -12.6930   23.5870 C.3       3 GLC5        0.0000 
     14 CA         23.3500  -11.1690   22.9600 C.3       6 GLP5        0.0000 
     15 N          13.5060  -17.8365   24.0940 N.am      2 SEC2        0.0000 
     16 N          14.9980  -18.1910   23.4020 N.am      8 SEL2        0.0000 
     17 N          12.0140  -17.4820   24.7860 N.am      5 SEP2        0.0000 
     18 O          14.6535  -15.5745   23.6430 O.2       1 ALC1        0.0000 
     19 O          14.8930  -15.9700   22.4850 O.2       7 ALL1        0.0000 
     20 O          14.4140  -15.1790   24.8010 O.2       4 ALP1        0.0000 
     21 N          15.4985  -13.2505   24.1085 N.am      2 SEC2        0.0000 
     22 N          16.2120  -13.7810   22.9140 N.am      8 SEL2        0.0000 
     23 N          14.7850  -12.7200   25.3030 N.am      5 SEP2        0.0000 
     24 CA         13.4915  -13.5045   24.1225 C.3       3 GLC5        0.0000 
     25 CA         13.2320  -13.6860   22.0580 C.3       9 GLL5        0.0000 
     26 CA         13.7510  -13.3230   26.1870 C.3       6 GLP5        0.0000 
     27 CA         10.3295  -12.5680   20.7590 C.3       3 GLC5        0.0000 
     28 CA         11.8920  -13.1330   21.5950 C.3       9 GLL5        0.0000 
     29 CA          8.7670  -12.0030   19.9230 C.3       6 GLP5        0.0000 
     30 CA         10.2525  -14.1745   21.3270 C.3       3 GLC5        0.0000 
     31 CA          8.6130  -15.2160   21.0590 C.3       6 GLP5        0.0000 
     32 O          10.9205  -13.9805   23.4315 O.2       1 ALC1        0.0000 
     33 O          11.2180  -12.6470   22.7800 O.2       7 ALL1        0.0000 
     34 O          10.6230  -15.3140   24.0830 O.2       4 ALP1        0.0000 
     35 O          13.4515  -10.6670   21.9075 O.2       1 ALC1        0.0000 
     36 O          12.3590  -10.6740   23.0450 O.2       7 ALL1        0.0000 
     37 O          14.5440  -10.6600   20.7700 O.2       4 ALP1        0.0000 
     38 O           9.3925  -11.9545   25.1850 O.2       1 ALC1        0.0000 
     39 O          10.7230  -11.3360   24.5660 O.2       7 ALL1        0.0000 
     40 O           8.0620  -12.5730   25.8040 O.2       4 ALP1        0.0000 
     41 CA         21.3860  -14.1135   18.4735 C.3       3 GLC5        0.0000 
     42 CA         19.6100  -13.4170   19.1940 C.3       9 GLL5        0.0000 
     43 CA         23.1620  -14.8100   17.7530 C.3       6 GLP5        0.0000 
     44 CA         21.8130  -13.5235   20.5205 C.3       3 GLC5        0.0000 
     45 CA         19.6960  -13.0830   20.7650 C.3       9 GLL5        0.0000 
     46 CA         18.0250  -12.1335   23.1480 C.3       3 GLC5        0.0000 
     47 CA         18.3510  -12.6800   21.3100 C.3       9 GLL5        0.0000 
     48 CA         17.8030  -11.2900   18.5465 C.3       3 GLC5        0.0000 
     49 CA         16.5930  -13.0140   18.5500 C.3       9 GLL5        0.0000 
     50 CA         19.0130   -9.5660   18.5430 C.3       6 GLP5        0.0000 
     51 CA         17.2445  -15.0155   16.5945 C.3       3 GLC5        0.0000 
     52 CA         15.9410  -13.4250   17.1790 C.3       9 GLL5        0.0000 
     53 CA         18.5480  -16.6060   16.0100 C.3       6 GLP5        0.0000 
     54 N          18.8820  -12.3740   14.3030 N.am      2 SEC2        0.0000 
     55 N          18.0490  -13.5540   14.1060 N.am      8 SEL2        0.0000 
     56 N          19.7150  -11.1940   14.5000 N.am      5 SEP2        0.0000 
     57 CA         18.8730  -16.3313   28.1210 C.3       3 GLC5        0.0000 
     58 CA         19.1790  -16.8930   30.1710 C.3       6 GLP5        0.0000 
     59 CA         17.9250  -15.8348   18.0695 C.3       3 GLC5        0.0000 
     60 CA         17.0430  -14.0330   19.3270 C.3       9 GLL5        0.0000 
     61 CA         18.1180  -17.4170   17.0710 C.3       6 GLP5        0.0000 
     62 CA         19.9567  -11.8038   22.1313 C.3       3 GLC5        0.0000 
     63 CA         20.8900  -10.7260   23.2250 C.3       6 GLP5        0.0000 
     64 CA         19.0075  -11.2655   19.5939 C.3       3 GLC5        0.0000 
@<TRIPOS>BOND
@<TRIPOS>SUBSTRUCTURE
     1 ALC1       18 GROUP        1 X    ALC  0     ROOT ALC X 1
     2 SEC2       15 GROUP        1 X    SEC  0     **** SEC X 2
     3 GLC5        1 GROUP        1 X    GLC  0     **** GLC X 6
     4 ALP1       20 GROUP        1 Y    ALP  0     ROOT ALP Y 8
     5 SEP2       17 GROUP        1 Y    SEP  0     **** SEP Y 9
     6 GLP5        3 GROUP        1 Y    GLP  0     **** GLP Y 13
     7 ALL1       19 GROUP        1 Z    ALL  0     ROOT ALL Z 15
     8 SEL2       16 GROUP        1 Z    SEL  0     **** SEL Z 16
     9 GLL5        2 GROUP        1 Z    GLL  0     **** GLL Z 20
@<TRIPOS>SET

