#    Name: 1a4w_QWE_1_ligand
#    Modification time : Mon Mar 24 17:50:59 2014

@<TRIPOS>MOLECULE
1a4w_QWE_1_ligand
   82    85     1     0     0
SMALL
NO_CHARGES


@<TRIPOS>ATOM
      1 C1         17.7350  -17.1780   22.6120 C.ar      1 QWE373      0.0000 
      2 C2         18.5430  -17.3500   21.4620 C.ar      1 QWE373      0.0000 
      3 C3         19.8770  -17.0460   21.5580 C.ar      1 QWE373      0.0000 
      4 C4         20.4010  -16.5660   22.7660 C.ar      1 QWE373      0.0000 
      5 C4A        19.6130  -16.3580   23.8930 C.ar      1 QWE373      0.0000 
      6 C5         20.0840  -15.7910   25.0460 C.ar      1 QWE373      0.0000 
      7 C6         19.2410  -15.5680   26.1140 C.ar      1 QWE373      0.0000 
      8 C7         17.8930  -15.9710   26.0280 C.ar      1 QWE373      0.0000 
      9 C8         17.3700  -16.5100   24.8790 C.ar      1 QWE373      0.0000 
     10 C8A        18.2050  -16.6890   23.8090 C.ar      1 QWE373      0.0000 
     11 N          21.3830  -15.2850   25.1040 N.3       1 QWE373      0.0000 
     12 CM1        21.8980  -14.2170   24.2140 C.3       1 QWE373      0.0000 
     13 CM2        22.6350  -16.2130   25.4960 C.3       1 QWE373      0.0000 
     14 S          15.9090  -17.5810   22.4170 S.o2      1 QWE373      0.0000 
     15 O1S        15.9880  -18.0130   21.0100 O.2       1 QWE373      0.0000 
     16 O2S        14.9980  -18.1910   23.4020 O.2       1 QWE373      0.0000 
     17 N1         14.8930  -15.9700   22.4850 N.pl3     1 QWE373      0.0000 
     18 CA         15.1930  -15.1140   21.2960 C.3       1 QWE373      0.0000 
     19 C          16.3070  -14.1670   21.7520 C.2       1 QWE373      0.0000 
     20 O          16.2120  -13.7810   22.9140 O.2       1 QWE373      0.0000 
     21 CB         13.9420  -14.3540   20.8790 C.3       1 QWE373      0.0000 
     22 CG         13.2320  -13.6860   22.0580 C.3       1 QWE373      0.0000 
     23 CD         11.8920  -13.1330   21.5950 C.3       1 QWE373      0.0000 
     24 NE         11.2180  -12.6470   22.7800 N.pl3     1 QWE373      0.0000 
     25 CZ         11.4570  -11.5540   23.4830 C.cat     1 QWE373      0.0000 
     26 NH1        12.3590  -10.6740   23.0450 N.pl3     1 QWE373      0.0000 
     27 NH2        10.7230  -11.3360   24.5660 N.pl3     1 QWE373      0.0000 
     28 N11        17.2800  -13.6920   20.8300 N.am      1 QWE373      0.0000 
     29 C21        17.0430  -14.0330   19.3270 C.3       1 QWE373      0.0000 
     30 C31        18.4210  -14.4720   18.8090 C.3       1 QWE373      0.0000 
     31 C41        19.6100  -13.4170   19.1940 C.3       1 QWE373      0.0000 
     32 C51        19.6960  -13.0830   20.7650 C.3       1 QWE373      0.0000 
     33 C61        18.3510  -12.6800   21.3100 C.3       1 QWE373      0.0000 
     34 C1'        16.5930  -13.0140   18.5500 C.3       1 QWE373      0.0000 
     35 C2'        15.9410  -13.4250   17.1790 C.3       1 QWE373      0.0000 
     36 S1         15.7830  -14.9040   14.4580 S.3       1 QWE373      0.0000 
     37 O2         17.4880  -11.9220   16.2870 O.2       1 QWE373      0.0000 
     38 C52        17.0590  -15.5830   13.5080 C.2       1 QWE373      0.0000 
     39 C22        16.8640  -13.5560   14.7390 C.2       1 QWE373      0.0000 
     40 C2'1       16.8250  -12.9030   16.1070 C.2       1 QWE373      0.0000 
     41 C42        18.1460  -14.7340   13.4510 C.2       1 QWE373      0.0000 
     42 N3         18.0490  -13.5540   14.1060 N.2       1 QWE373      0.0000 
     43 H          18.1274  -17.6896   20.6014 H         1 QWE373      0.0000 
     44 H          20.5044  -17.1658   20.7504 H         1 QWE373      0.0000 
     45 H          21.4231  -16.3578   22.8173 H         1 QWE373      0.0000 
     46 H          19.5774  -15.1151   26.9675 H         1 QWE373      0.0000 
     47 H          17.2899  -15.8500   26.8681 H         1 QWE373      0.0000 
     48 H          16.3824  -16.7704   24.8254 H         1 QWE373      0.0000 
     49 H          14.3903  -15.9343   23.1870 H         1 QWE373      0.0000 
     50 H          15.5504  -15.7151   20.5021 H         1 QWE373      0.0000 
     51 H          13.2446  -15.0466   20.3899 H         1 QWE373      0.0000 
     52 H          14.2146  -13.5840   20.1454 H         1 QWE373      0.0000 
     53 H          13.8476  -12.8779   22.4343 H         1 QWE373      0.0000 
     54 H          13.0717  -14.4185   22.8400 H         1 QWE373      0.0000 
     55 H          11.3368  -13.9303   21.1212 H         1 QWE373      0.0000 
     56 H          12.0753  -12.3365   20.8876 H         1 QWE373      0.0000 
     57 H          10.4052  -13.3072   23.1027 H         1 QWE373      0.0000 
     58 H          12.4716   -9.8477   23.5968 H         1 QWE373      0.0000 
     59 H          12.8414  -10.9198   22.2042 H         1 QWE373      0.0000 
     60 H          10.9271  -10.4997   25.0749 H         1 QWE373      0.0000 
     61 H          10.0319  -12.0276   24.7757 H         1 QWE373      0.0000 
     62 H          16.4251  -14.9252   19.3044 H         1 QWE373      0.0000 
     63 H          18.4140  -14.5512   17.7262 H         1 QWE373      0.0000 
     64 H          18.7029  -15.4286   19.2383 H         1 QWE373      0.0000 
     65 H          19.4242  -12.4995   18.6525 H         1 QWE373      0.0000 
     66 H          20.5493  -13.8498   18.8780 H         1 QWE373      0.0000 
     67 H          20.4180  -12.2816   20.8789 H         1 QWE373      0.0000 
     68 H          20.0641  -13.9759   21.2585 H         1 QWE373      0.0000 
     69 H          18.3680  -12.6845   22.3923 H         1 QWE373      0.0000 
     70 H          18.0800  -11.6958   20.9503 H         1 QWE373      0.0000 
     71 H          17.3998  -12.2736   18.2757 H         1 QWE373      0.0000 
     72 H          15.8143  -12.3755   19.0603 H         1 QWE373      0.0000 
     73 H          14.9657  -12.9801   17.1331 H         1 QWE373      0.0000 
     74 H          15.8830  -14.4961   17.1513 H         1 QWE373      0.0000 
     75 H          16.8633  -16.4127   13.1616 H         1 QWE373      0.0000 
     76 H          18.9822  -14.9975   12.9328 H         1 QWE373      0.0000 
     77 H          22.8533  -13.9972   24.4119 H         1 QWE373      0.0000 
     78 H          21.8516  -14.4818   23.2508 H         1 QWE373      0.0000 
     79 H          21.3761  -13.3694   24.3104 H         1 QWE373      0.0000 
     80 H          23.4937  -15.7006   25.4889 H         1 QWE373      0.0000 
     81 H          22.5350  -16.6047   26.4106 H         1 QWE373      0.0000 
     82 H          22.7444  -16.9771   24.8603 H         1 QWE373      0.0000 
@<TRIPOS>BOND
     1    2    1 ar   
     2   10    1 ar   
     3   14    1 1    
     4    3    2 ar   
     5   43    2 1    
     6    4    3 ar   
     7   44    3 1    
     8    5    4 ar   
     9   45    4 1    
    10    6    5 ar   
    11   10    5 ar   
    12    7    6 ar   
    13   11    6 1    
    14    8    7 ar   
    15   46    7 1    
    16    9    8 ar   
    17   47    8 1    
    18   10    9 ar   
    19   48    9 1    
    20   12   11 1    
    21   13   11 1    
    22   77   12 1    
    23   78   12 1    
    24   79   12 1    
    25   80   13 1    
    26   81   13 1    
    27   82   13 1    
    28   15   14 2    
    29   16   14 2    
    30   17   14 1    
    31   18   17 1    
    32   49   17 1    
    33   19   18 1    
    34   21   18 1    
    35   50   18 1    
    36   20   19 2    
    37   28   19 am   
    38   22   21 1    
    39   51   21 1    
    40   52   21 1    
    41   23   22 1    
    42   53   22 1    
    43   54   22 1    
    44   24   23 1    
    45   55   23 1    
    46   56   23 1    
    47   25   24 ar   
    48   57   24 1    
    49   26   25 ar   
    50   27   25 ar   
    51   58   26 1    
    52   59   26 1    
    53   60   27 1    
    54   61   27 1    
    55   29   28 1    
    56   33   28 1    
    57   30   29 1    
    58   34   29 1    
    59   62   29 1    
    60   31   30 1    
    61   63   30 1    
    62   64   30 1    
    63   32   31 1    
    64   65   31 1    
    65   66   31 1    
    66   33   32 1    
    67   67   32 1    
    68   68   32 1    
    69   69   33 1    
    70   70   33 1    
    71   35   34 1    
    72   71   34 1    
    73   72   34 1    
    74   40   35 1    
    75   73   35 1    
    76   74   35 1    
    77   38   36 1    
    78   39   36 1    
    79   40   37 2    
    80   41   38 2    
    81   75   38 1    
    82   40   39 1    
    83   42   39 2    
    84   42   41 1    
    85   76   41 1    
@<TRIPOS>SUBSTRUCTURE
     1 QWE373      1 GROUP   
@<TRIPOS>SET

