#    Name: 2fzh_DH1_1_INTS_M
#    Modification time : Tue Mar 25 13:17:06 2014

@<TRIPOS>MOLECULE
2fzh_DH1_1_INTS_M
   78     0    12     0     0
SMALL
NO_CHARGES


@<TRIPOS>ATOM
      1 CA         35.3455    7.2575   13.9555 C.3       4 GLC5        0.0000 
      2 CA         34.3140    8.8990   14.2890 C.3      12 GLL5        0.0000 
      3 CA         36.3770    5.6160   13.6220 C.3       8 GLP5        0.0000 
      4 CA         33.2260    8.9305   15.7605 C.3       4 GLC5        0.0000 
      5 CA         32.1380    8.9620   17.2320 C.3       8 GLP5        0.0000 
      6 CA         29.9535   12.0965    9.3745 C.3       4 GLC5        0.0000 
      7 CA         31.8360   12.6420    8.8650 C.3      12 GLL5        0.0000 
      8 CA         28.0710   11.5510    9.8840 C.3       8 GLP5        0.0000 
      9 CA         29.4040   11.2480    7.5080 C.3       4 GLC5        0.0000 
     10 CA         30.6750   12.1240    5.8800 C.3      12 GLL5        0.0000 
     11 CA         28.1330   10.3720    9.1360 C.3       8 GLP5        0.0000 
     12 CA         28.7535   11.5020    5.2655 C.3       4 GLC5        0.0000 
     13 CA         26.8320   10.8800    4.6510 C.3       8 GLP5        0.0000 
     14 NZ         28.9420   14.2500    3.4130 N.4       3 LYC4        0.0000 
     15 NZ         29.4410   14.0820    5.3380 N.4      11 LYL4        0.0000 
     16 NZ         28.4430   14.4180    1.4880 N.4       7 LYP4        0.0000 
     17 N          28.2905   14.9895    5.9615 N.am      2 SEC2        0.0000 
     18 N          29.4410   14.0820    5.3380 N.am     10 SEL2        0.0000 
     19 N          27.1400   15.8970    6.5850 N.am      6 SEP2        0.0000 
     20 NZ         27.4095   13.4670    7.2445 N.4       3 LYC4        0.0000 
     21 NZ         28.6160   12.8270    6.8330 N.4      11 LYL4        0.0000 
     22 NZ         26.1300   15.3680    7.2630 N.4       7 LYP4        0.0000 
     23 N          27.4095   13.4670    7.2445 N.am      2 SEC2        0.0000 
     24 N          28.6160   12.8270    6.8330 N.am     10 SEL2        0.0000 
     25 N          26.2030   14.1070    7.6560 N.am      6 SEP2        0.0000 
     26 N          27.8780   14.3620    6.7090 N.am      2 SEC2        0.0000 
     27 CA         28.9005    9.7705   12.3170 C.3       4 GLC5        0.0000 
     28 CA         30.7120    9.2130   12.9170 C.3      12 GLL5        0.0000 
     29 CA         27.0890   10.3280   11.7170 C.3       8 GLP5        0.0000 
     30 CA         31.2075    8.4560   14.7670 C.3       4 GLC5        0.0000 
     31 CA         31.7030    7.6990   16.6170 C.3       8 GLP5        0.0000 
     32 CA         31.4715    6.9265   10.0210 C.3       4 GLC5        0.0000 
     33 CA         30.2200    6.9960   11.5620 C.3      12 GLL5        0.0000 
     34 CA         32.7230    6.8570    8.4800 C.3       8 GLP5        0.0000 
     35 N          29.9265    4.9570   10.4350 N.am      2 SEC2        0.0000 
     36 N          29.5000    5.8300   11.3950 N.am     10 SEL2        0.0000 
     37 N          30.3530    4.0840    9.4750 N.am      6 SEP2        0.0000 
     38 CA         26.5605    5.9030   12.6500 C.3       4 GLC5        0.0000 
     39 CA         28.5130    5.4760   12.2480 C.3      12 GLL5        0.0000 
     40 CA         24.6080    6.3300   13.0520 C.3       8 GLP5        0.0000 
     41 CA         27.9605    4.9885   14.0905 C.3       4 GLC5        0.0000 
     42 CA         27.4080    4.5010   15.9330 C.3       8 GLP5        0.0000 
     43 CA         29.5440    3.7985   12.7975 C.3       4 GLC5        0.0000 
     44 CA         30.5750    2.1210   13.3470 C.3       8 GLP5        0.0000 
     45 CA         28.0910    6.7010   10.5275 C.3       4 GLC5        0.0000 
     46 CA         27.6690    7.9260    8.8070 C.3       8 GLP5        0.0000 
     47 O          28.1455    3.6135   10.9240 O.2       1 ALC1        0.0000 
     48 O          27.7900    4.2720   12.0570 O.2       9 ALL1        0.0000 
     49 O          28.5010    2.9550    9.7910 O.2       5 ALP1        0.0000 
     50 CA         26.7965    8.0430   13.8650 C.3       4 GLC5        0.0000 
     51 CA         28.9020    7.4880   13.5320 C.3      12 GLL5        0.0000 
     52 CA         24.6910    8.5980   14.1980 C.3       8 GLP5        0.0000 
     53 CA         28.1550    5.9945   14.7325 C.3       4 GLC5        0.0000 
     54 O          27.5000    7.6280   15.4640 O.2       1 ALC1        0.0000 
     55 O          28.5730    8.2280   14.5610 O.2       9 ALL1        0.0000 
     56 O          26.4270    7.0280   16.3670 O.2       5 ALP1        0.0000 
     57 O          28.9370    9.1745   15.6140 O.2       1 ALC1        0.0000 
     58 O          29.3010   10.1210   16.6670 O.2       5 ALP1        0.0000 
     59 CA         34.5750    7.4225   12.0702 C.3       4 GLC5        0.0000 
     60 CA         33.1690    9.0690   12.1830 C.3      12 GLL5        0.0000 
     61 CA         35.4540    5.6290   12.4140 C.3       8 GLP5        0.0000 
     62 CA         33.2095    8.0365   10.1032 C.3       4 GLC5        0.0000 
     63 CA         34.2230    9.3630   11.2700 C.3      12 GLL5        0.0000 
     64 CA         33.0448    8.6163    9.2240 C.3       4 GLC5        0.0000 
     65 CA         34.0100   10.1380   10.0930 C.3      12 GLL5        0.0000 
     66 CA         33.4042   14.1375    9.3195 C.3       4 GLC5        0.0000 
     67 CA         34.8600   15.1890   10.4050 C.3       8 GLP5        0.0000 
     68 CA         31.0312   14.5180    8.8665 C.3       4 GLC5        0.0000 
     69 CA         30.1140   15.9500    9.4990 C.3       8 GLP5        0.0000 
     70 CA         33.1887   14.4482    6.4790 C.3       4 GLC5        0.0000 
     71 CA         32.0610   13.5300    7.6030 C.3      12 GLL5        0.0000 
     72 CA         34.3370   15.7470    6.0410 C.3       8 GLP5        0.0000 
     73 CA         31.5633   10.6158    6.2182 C.3       4 GLC5        0.0000 
     74 CA         32.0200   12.7690    6.2310 C.3      12 GLL5        0.0000 
     75 CA         31.7790    8.7850    6.3810 C.3       8 GLP5        0.0000 
     76 CA         32.2297    8.3983    9.9067 C.3       4 GLC5        0.0000 
     77 CA         31.6250   10.3280   10.7470 C.3      12 GLL5        0.0000 
     78 CA         28.8773    7.6828   10.4560 C.3       4 GLC5        0.0000 
@<TRIPOS>BOND
@<TRIPOS>SUBSTRUCTURE
     1 ALC1       47 GROUP        1 X    ALC  0     ROOT ALC X 1
     2 SEC2       17 GROUP        1 X    SEC  0     **** SEC X 2
     3 LYC4       14 GROUP        1 X    LYC  0     **** LYC X 4
     4 GLC5        1 GROUP        1 X    GLC  0     **** GLC X 6
     5 ALP1       49 GROUP        1 Y    ALP  0     ROOT ALP Y 8
     6 SEP2       19 GROUP        1 Y    SEP  0     **** SEP Y 9
     7 LYP4       16 GROUP        1 Y    LYP  0     **** LYP Y 11
     8 GLP5        3 GROUP        1 Y    GLP  0     **** GLP Y 13
     9 ALL1       48 GROUP        1 Z    ALL  0     ROOT ALL Z 15
    10 SEL2       18 GROUP        1 Z    SEL  0     **** SEL Z 16
    11 LYL4       15 GROUP        1 Z    LYL  0     **** LYL Z 18
    12 GLL5        2 GROUP        1 Z    GLL  0     **** GLL Z 20
@<TRIPOS>SET

