#    Name: 2fzh_DH1_1_ligand
#    Modification time : Tue Mar 25 13:17:06 2014

@<TRIPOS>MOLECULE
2fzh_DH1_1_ligand
   46    47     1     0     0
SMALL
NO_CHARGES


@<TRIPOS>ATOM
      1 C16        34.3140    8.8990   14.2890 C.3       1 DH1208      0.0000 
      2 O1         33.4200    8.2990   13.3310 O.3       1 DH1208      0.0000 
      3 C2'        33.1690    9.0690   12.1830 C.ar      1 DH1208      0.0000 
      4 C3'        34.2230    9.3630   11.2700 C.ar      1 DH1208      0.0000 
      5 C4'        34.0100   10.1380   10.0930 C.ar      1 DH1208      0.0000 
      6 C5'        32.7230   10.6130    9.8430 C.ar      1 DH1208      0.0000 
      7 O5'        32.5190   11.3730    8.6790 O.3       1 DH1208      0.0000 
      8 C52        31.8360   12.6420    8.8650 C.3       1 DH1208      0.0000 
      9 C1         32.0610   13.5300    7.6030 C.3       1 DH1208      0.0000 
     10 C3         32.0200   12.7690    6.2310 C.3       1 DH1208      0.0000 
     11 C7         30.6750   12.1240    5.8800 C.3       1 DH1208      0.0000 
     12 C8         29.5050   13.0720    6.0270 C.2       1 DH1208      0.0000 
     13 O9         29.4410   14.0820    5.3380 O.co2     1 DH1208      0.0000 
     14 O10        28.6160   12.8270    6.8330 O.co2     1 DH1208      0.0000 
     15 C6'        31.6250   10.3280   10.7470 C.ar      1 DH1208      0.0000 
     16 C1'        31.8480    9.5510   11.9200 C.ar      1 DH1208      0.0000 
     17 C51        30.7120    9.2130   12.9170 C.3       1 DH1208      0.0000 
     18 C5         29.9510    7.8830   12.6480 C.ar      1 DH1208      0.0000 
     19 C6         30.2200    6.9960   11.5620 C.ar      1 DH1208      0.0000 
     20 N1         29.5000    5.8300   11.3950 N.ar      1 DH1208      0.0000 
     21 C2         28.5130    5.4760   12.2480 C.ar      1 DH1208      0.0000 
     22 N2         27.7900    4.2720   12.0570 N.pl3     1 DH1208      0.0000 
     23 N3         28.2030    6.2690   13.3000 N.ar      1 DH1208      0.0000 
     24 C4         28.9020    7.4880   13.5320 C.ar      1 DH1208      0.0000 
     25 N4         28.5730    8.2280   14.5610 N.pl3     1 DH1208      0.0000 
     26 H          35.1697    9.0037   11.4671 H         1 DH1208      0.0000 
     27 H          34.7777   10.3296    9.4676 H         1 DH1208      0.0000 
     28 H          32.2251   13.1872    9.7210 H         1 DH1208      0.0000 
     29 H          30.7638   12.5088    8.9832 H         1 DH1208      0.0000 
     30 H          33.0378   14.0293    7.6924 H         1 DH1208      0.0000 
     31 H          31.2928   14.3179    7.5844 H         1 DH1208      0.0000 
     32 H          32.8033   11.9920    6.2511 H         1 DH1208      0.0000 
     33 H          32.2999   13.4841    5.4386 H         1 DH1208      0.0000 
     34 H          30.5226   11.2509    6.5312 H         1 DH1208      0.0000 
     35 H          30.7204   11.7565    4.8444 H         1 DH1208      0.0000 
     36 H          30.7017   10.6875   10.5336 H         1 DH1208      0.0000 
     37 H          29.9799   10.0407   12.9131 H         1 DH1208      0.0000 
     38 H          31.1365    9.1719   13.9364 H         1 DH1208      0.0000 
     39 H          30.9711    7.2496   10.9002 H         1 DH1208      0.0000 
     40 H          27.3922    3.8626   12.8781 H         1 DH1208      0.0000 
     41 H          27.7389    3.9338   11.1173 H         1 DH1208      0.0000 
     42 H          27.6234    8.1593   14.8668 H         1 DH1208      0.0000 
     43 H          29.3015    8.7941   14.9468 H         1 DH1208      0.0000 
     44 H          35.2154    9.0778   13.8946 H         1 DH1208      0.0000 
     45 H          33.9638    9.7723   14.6276 H         1 DH1208      0.0000 
     46 H          34.4540    8.3107   15.0855 H         1 DH1208      0.0000 
@<TRIPOS>BOND
     1    2    1 1    
     2   44    1 1    
     3   45    1 1    
     4   46    1 1    
     5    3    2 1    
     6    4    3 ar   
     7   16    3 ar   
     8    5    4 ar   
     9   26    4 1    
    10    6    5 ar   
    11   27    5 1    
    12    7    6 1    
    13   15    6 ar   
    14    8    7 1    
    15    9    8 1    
    16   28    8 1    
    17   29    8 1    
    18   10    9 1    
    19   30    9 1    
    20   31    9 1    
    21   11   10 1    
    22   32   10 1    
    23   33   10 1    
    24   12   11 1    
    25   34   11 1    
    26   35   11 1    
    27   13   12 ar   
    28   14   12 ar   
    29   16   15 ar   
    30   36   15 1    
    31   17   16 1    
    32   18   17 1    
    33   37   17 1    
    34   38   17 1    
    35   19   18 ar   
    36   24   18 ar   
    37   20   19 ar   
    38   39   19 1    
    39   21   20 ar   
    40   22   21 1    
    41   23   21 ar   
    42   40   22 1    
    43   41   22 1    
    44   24   23 ar   
    45   25   24 1    
    46   42   25 1    
    47   43   25 1    
@<TRIPOS>SUBSTRUCTURE
     1 DH1208      1 GROUP   
@<TRIPOS>SET

