#    Name: 1GPU_1_CAVITY_N1_6.mol2
#    Modification time : Tue Mar 11 02:18:00 2014

@<TRIPOS>MOLECULE
1GPU_1_CAVITY_N1_6.mol2
   75     0     6     0     0
SMALL
NO_CHARGES


@<TRIPOS>ATOM
      1 N         -12.5291   54.2772   18.2200 N.2       2 ALA2        0.0000 
      2 N         -11.8272   53.0168   18.6309 N.2       2 ALA2        0.0000 
      3 N         -12.2068   55.7580   16.7357 N.2       2 ALA2        0.0000 
      4 CA        -11.8844   57.2388   15.2514 C.3       5 GLY6        0.0000 
      5 CA        -11.1825   55.9785   15.6622 C.3       5 GLY6        0.0000 
      6 DU        -12.3895   56.3204   18.7729 H         6 CUB7        0.0000 
      7 NZ        -11.6876   55.0600   19.1838 N.2       3 LYS4        0.0000 
      8 NZ        -10.9857   53.7997   19.5947 N.2       3 LYS4        0.0000 
      9 OG        -12.0671   57.8012   17.2886 O.2       1 SER1        0.0000 
     10 DU        -11.3652   56.5409   17.6995 H         6 CUB7        0.0000 
     11 N         -10.6633   55.2805   18.1104 N.2       2 ALA2        0.0000 
     12 CA        -10.3409   56.7613   16.6260 C.3       5 GLY6        0.0000 
     13 N          -9.6390   55.5010   17.0369 N.2       2 ALA2        0.0000 
     14 NZ        -12.5722   56.8828   20.8102 N.2       3 LYS4        0.0000 
     15 CZ        -12.2498   58.3636   19.3259 C.ar      4 PHE5        0.0000 
     16 CZ        -11.5479   57.1032   19.7367 C.ar      4 PHE5        0.0000 
     17 OG        -11.2255   58.5841   18.2524 O.2       1 SER1        0.0000 
     18 CZ        -10.5236   57.3237   18.6633 C.ar      4 PHE5        0.0000 
     19 NZ         -9.8217   56.0634   19.0742 N.2       3 LYS4        0.0000 
     20 NZ         -9.1198   54.8030   19.4850 N.2       3 LYS4        0.0000 
     21 CA         -9.4994   57.5442   17.5898 C.3       5 GLY6        0.0000 
     22 N          -8.7975   56.2838   18.0007 N.2       2 ALA2        0.0000 
     23 N          -8.0956   55.0235   18.4116 N.2       2 ALA2        0.0000 
     24 N          -7.7732   56.5043   16.9273 N.2       2 ALA2        0.0000 
     25 N          -7.0713   55.2440   17.3382 N.2       2 ALA2        0.0000 
     26 N          -6.7490   56.7248   15.8538 N.2       2 ALA2        0.0000 
     27 O          -6.0471   55.4644   16.2647 O.2       2 ALA2        0.0000 
     28 CA         -6.4266   58.2056   14.3695 C.3       5 GLY6        0.0000 
     29 N          -5.7247   56.9453   14.7804 N.2       2 ALA2        0.0000 
     30 CZ         -8.9802   56.8462   20.0380 C.ar      4 PHE5        0.0000 
     31 CZ         -8.6578   58.3271   18.5536 C.ar      4 PHE5        0.0000 
     32 CZ         -7.9559   57.0667   18.9645 C.ar      4 PHE5        0.0000 
     33 N          -7.2540   55.8063   19.3754 N.2       2 ALA2        0.0000 
     34 CA         -7.6336   58.5475   17.4802 C.3       5 GLY6        0.0000 
     35 CA         -6.9317   57.2872   17.8911 C.3       5 GLY6        0.0000 
     36 N          -6.2298   56.0268   18.3020 N.2       2 ALA2        0.0000 
     37 N          -5.5279   54.7664   18.7128 N.2       2 ALA2        0.0000 
     38 CA         -6.6093   58.7680   16.4068 C.3       5 GLY6        0.0000 
     39 CA         -5.9074   57.5077   16.8176 C.3       5 GLY6        0.0000 
     40 O          -5.2055   56.2473   17.2285 O.2       2 ALA2        0.0000 
     41 O          -4.5036   54.9869   17.6394 O.2       2 ALA2        0.0000 
     42 NZ         -6.2869   60.2489   14.9225 N.2       3 LYS4        0.0000 
     43 CA         -5.5850   58.9885   15.3333 C.3       5 GLY6        0.0000 
     44 CA         -4.8831   57.7281   15.7442 C.3       5 GLY6        0.0000 
     45 CA         -4.1812   56.4678   16.1551 C.3       5 GLY6        0.0000 
     46 CA         -4.5608   59.2090   14.2599 C.3       5 GLY6        0.0000 
     47 CZ         -7.1144   57.8496   19.9283 C.ar      4 PHE5        0.0000 
     48 CA         -6.7920   59.3304   18.4440 C.3       5 GLY6        0.0000 
     49 N          -6.0901   58.0700   18.8549 N.2       2 ALA2        0.0000 
     50 N          -5.3882   56.8097   19.2658 N.2       2 ALA2        0.0000 
     51 N          -4.6863   55.5493   19.6766 N.2       2 ALA2        0.0000 
     52 CA         -6.4696   60.8112   16.9597 C.3       5 GLY6        0.0000 
     53 CA         -5.7677   59.5509   17.3706 C.3       5 GLY6        0.0000 
     54 CA         -5.0658   58.2905   17.7814 C.3       5 GLY6        0.0000 
     55 CA         -4.3639   57.0301   18.1923 C.3       5 GLY6        0.0000 
     56 CA         -5.4454   61.0317   15.8863 C.3       5 GLY6        0.0000 
     57 CA         -4.7435   59.7714   16.2971 C.3       5 GLY6        0.0000 
     58 CZ         -5.9504   60.1133   19.4078 C.ar      4 PHE5        0.0000 
     59 CZ         -5.2485   58.8529   19.8187 C.ar      4 PHE5        0.0000 
     60 N          -4.5466   57.5925   20.2296 N.2       2 ALA2        0.0000 
     61 CA         -5.6281   61.5941   17.9235 C.3       5 GLY6        0.0000 
     62 CA         -4.9262   60.3337   18.3344 C.3       5 GLY6        0.0000 
     63 CA         -4.2243   59.0734   18.7452 C.3       5 GLY6        0.0000 
     64 N          -3.5224   57.8130   19.1561 N.2       2 ALA2        0.0000 
     65 CA         -4.6038   61.8146   16.8501 C.3       5 GLY6        0.0000 
     66 CA         -3.9019   60.5542   17.2609 C.3       5 GLY6        0.0000 
     67 CZ         -5.1089   60.8961   20.3716 C.ar      4 PHE5        0.0000 
     68 NZ         -4.7865   62.3770   18.8873 N.2       3 LYS4        0.0000 
     69 NZ         -4.0846   61.1166   19.2982 N.2       3 LYS4        0.0000 
     70 CZ         -3.3827   59.8562   19.7090 C.ar      4 PHE5        0.0000 
     71 O          -2.6808   58.5959   20.1199 O.2       2 ALA2        0.0000 
     72 CA         -3.0604   61.3371   18.2247 C.3       5 GLY6        0.0000 
     73 CA         -2.3585   60.0767   18.6356 C.3       5 GLY6        0.0000 
     74 CZ         -2.5412   60.6391   20.6728 C.ar      4 PHE5        0.0000 
     75 NZ         -1.5169   60.8596   19.5994 N.2       3 LYS4        0.0000 
@<TRIPOS>BOND
@<TRIPOS>SUBSTRUCTURE
     1 SER1        9 GROUP   
     2 ALA2        1 GROUP   
     3 LYS4        7 GROUP   
     4 PHE5       15 GROUP   
     5 GLY6        4 GROUP   
     6 CUB7        6 GROUP   
@<TRIPOS>SET

