#    Name: 1gpu_THD_1_INTS_M
#    Modification time : Tue Mar 25 03:28:16 2014

@<TRIPOS>MOLECULE
1gpu_THD_1_INTS_M
   80     0     9     0     0
SMALL
NO_CHARGES


@<TRIPOS>ATOM
      1 CA         -2.8345   61.6555   21.8640 C.3       3 GLC5        0.0000 
      2 CA         -2.1840   60.4700   20.1880 C.3       9 GLL5        0.0000 
      3 CA         -3.4850   62.8410   23.5400 C.3       6 GLP5        0.0000 
      4 CA         -1.7055   60.6950   22.3465 C.3       3 GLC5        0.0000 
      5 CA         -0.8730   60.8380   20.6820 C.3       9 GLL5        0.0000 
      6 CA         -2.5380   60.5520   24.0110 C.3       6 GLP5        0.0000 
      7 CA          0.5700   60.8390   21.4820 C.3       3 GLC5        0.0000 
      8 CA          2.0130   60.8400   22.2820 C.3       6 GLP5        0.0000 
      9 N          -1.2690   58.3540   19.7655 N.am      2 SEC2        0.0000 
     10 N          -2.5320   59.1960   20.0710 N.am      8 SEL2        0.0000 
     11 N          -0.0060   57.5120   19.4600 N.am      5 SEP2        0.0000 
     12 O          -3.1380   56.4770   19.8955 O.2       1 ALC1        0.0000 
     13 O          -4.0190   57.5280   19.5350 O.2       7 ALL1        0.0000 
     14 O          -2.2570   55.4260   20.2560 O.2       4 ALP1        0.0000 
     15 CA         -3.0215   61.7635   17.7185 C.3       3 GLC5        0.0000 
     16 CA         -4.3140   61.1470   19.3730 C.3       9 GLL5        0.0000 
     17 CA         -1.7290   62.3800   16.0640 C.3       6 GLP5        0.0000 
     18 CA         -7.8540   60.4925   18.2165 C.3       3 GLC5        0.0000 
     19 CA         -6.1950   59.5940   18.6890 C.3       9 GLL5        0.0000 
     20 CA         -9.5130   61.3910   17.7440 C.3       6 GLP5        0.0000 
     21 CA         -7.6995   59.5420   19.9165 C.3       3 GLC5        0.0000 
     22 CA         -9.2040   59.4900   21.1440 C.3       6 GLP5        0.0000 
     23 CA         -5.4515   59.4435   20.7605 C.3       3 GLC5        0.0000 
     24 CA         -4.7080   59.2930   22.8320 C.3       6 GLP5        0.0000 
     25 CA         -5.6995   54.6640   15.4925 C.3       3 GLC5        0.0000 
     26 CA         -5.9730   56.7220   15.7560 C.3       9 GLL5        0.0000 
     27 CA         -5.4260   52.6060   15.2290 C.3       6 GLP5        0.0000 
     28 CA         -6.1085   62.3080   14.8330 C.3       3 GLC5        0.0000 
     29 CA         -5.7080   60.6840   16.0200 C.3       9 GLL5        0.0000 
     30 CA         -6.5090   63.9320   13.6460 C.3       6 GLP5        0.0000 
     31 CA         -7.6105   61.0375   16.8820 C.3       3 GLC5        0.0000 
     32 CA         -4.4505   61.4925   15.0405 C.3       3 GLC5        0.0000 
     33 CA         -3.1930   62.3010   14.0610 C.3       6 GLP5        0.0000 
     34 CA         -3.9125   58.7065   14.9570 C.3       3 GLC5        0.0000 
     35 CA         -5.4680   58.5950   13.7300 C.3       9 GLL5        0.0000 
     36 CA         -2.3570   58.8180   16.1840 C.3       6 GLP5        0.0000 
     37 CA         -4.3305   60.4480   13.8955 C.3       3 GLC5        0.0000 
     38 N          -1.6655   57.7765   11.7510 N.am      2 SEC2        0.0000 
     39 N          -2.5380   56.6170   12.2500 N.am      8 SEL2        0.0000 
     40 N          -0.7930   58.9360   11.2520 N.am      5 SEP2        0.0000 
     41 N          -2.1130   58.1125   10.6240 N.am      2 SEC2        0.0000 
     42 N          -3.4330   57.2890    9.9960 N.am      8 SEL2        0.0000 
     43 N          -4.6955   54.2530   11.9790 N.am      2 SEC2        0.0000 
     44 N          -4.4020   55.3930   10.8200 N.am      8 SEL2        0.0000 
     45 N          -4.9890   53.1130   13.1380 N.am      5 SEP2        0.0000 
     46 N          -4.8995   54.1600    7.4020 N.am      2 SEC2        0.0000 
     47 N          -4.9780   54.7120    8.7300 N.am      8 SEL2        0.0000 
     48 N          -4.8210   53.6080    6.0740 N.am      5 SEP2        0.0000 
     49 N          -5.3935   53.2540   11.8555 N.am      2 SEC2        0.0000 
     50 N          -5.7980   53.3950   10.5730 N.am      8 SEL2        0.0000 
     51 N          -7.6795   55.3435   11.1705 N.am      2 SEC2        0.0000 
     52 N          -6.8490   55.5750   10.2090 N.am      8 SEL2        0.0000 
     53 N          -8.5100   55.1120   12.1320 N.am      5 SEP2        0.0000 
     54 N          -6.5840   56.4590   20.7365 N.am      2 SEC2        0.0000 
     55 N          -6.9470   57.1260   19.5530 N.am      8 SEL2        0.0000 
     56 N          -6.2210   55.7920   21.9200 N.am      5 SEP2        0.0000 
     57 CA         -6.3070   53.6785   17.3395 C.3       3 GLC5        0.0000 
     58 CA         -6.6590   55.2760   18.1520 C.3       9 GLL5        0.0000 
     59 CA         -5.9550   52.0810   16.5270 C.3       6 GLP5        0.0000 
     60 N          -5.9500   55.2020   20.4235 N.am      2 SEC2        0.0000 
     61 N          -5.6790   54.6120   18.9270 N.am      8 SEL2        0.0000 
     62 O          -5.7880   53.4385   19.6570 O.2       1 ALC1        0.0000 
     63 O          -5.6790   54.6120   18.9270 O.2       7 ALL1        0.0000 
     64 O          -5.8970   52.2650   20.3870 O.2       4 ALP1        0.0000 
     65 CA         -0.9538   58.7035   21.0900 C.3       3 GLC5        0.0000 
     66 CA         -0.3790   56.7530   21.7450 C.3       6 GLP5        0.0000 
     67 CA         -0.8228   59.5555   18.8235 C.3       3 GLC5        0.0000 
     68 CA         -0.1170   58.4570   17.2120 C.3       6 GLP5        0.0000 
     69 CA         -3.3293   59.5337   17.7874 C.3       3 GLC5        0.0000 
     70 CA         -3.8030   58.8400   19.5980 C.3       9 GLL5        0.0000 
     71 CA         -4.2287   57.9107   16.3705 C.3       3 GLC5        0.0000 
     72 CA         -6.2280   57.2850   17.3580 C.3       9 GLL5        0.0000 
     73 CA         -7.7198   58.0427   15.9105 C.3       3 GLC5        0.0000 
     74 CA         -9.3390   59.0820   15.2640 C.3       6 GLP5        0.0000 
     75 CA         -4.0565   59.2687   16.0216 C.3       3 GLC5        0.0000 
     76 CA         -5.7520   58.2990   15.1890 C.3       9 GLL5        0.0000 
     77 CA         -7.5475   59.4008   15.5616 C.3       3 GLC5        0.0000 
     78 CA         -5.8560   59.2110   16.2080 C.3       9 GLL5        0.0000 
     79 CA         -7.4977   58.5557   13.5053 C.3       3 GLC5        0.0000 
     80 CA         -9.4510   59.0820   13.7450 C.3       6 GLP5        0.0000 
@<TRIPOS>BOND
@<TRIPOS>SUBSTRUCTURE
     1 ALC1       12 GROUP        1 X    ALC  0     ROOT ALC X 1
     2 SEC2        9 GROUP        1 X    SEC  0     **** SEC X 2
     3 GLC5        1 GROUP        1 X    GLC  0     **** GLC X 6
     4 ALP1       14 GROUP        1 Y    ALP  0     ROOT ALP Y 8
     5 SEP2       11 GROUP        1 Y    SEP  0     **** SEP Y 9
     6 GLP5        3 GROUP        1 Y    GLP  0     **** GLP Y 13
     7 ALL1       13 GROUP        1 Z    ALL  0     ROOT ALL Z 15
     8 SEL2       10 GROUP        1 Z    SEL  0     **** SEL Z 16
     9 GLL5        2 GROUP        1 Z    GLL  0     **** GLL Z 20
@<TRIPOS>SET

