#    Name: 1gpu_THD_1_ligand
#    Modification time : Tue Mar 25 03:28:16 2014

@<TRIPOS>MOLECULE
1gpu_THD_1_ligand
   49    50     1     0     0
SMALL
NO_CHARGES


@<TRIPOS>ATOM
      1 N1'        -3.0410   61.4540   19.8480 N.ar      1 THD1682     0.0000 
      2 C2'        -2.1840   60.4700   20.1880 C.ar      1 THD1682     0.0000 
      3 CM2        -0.8730   60.8380   20.6820 C.3       1 THD1682     0.0000 
      4 N3'        -2.5320   59.1960   20.0710 N.ar      1 THD1682     0.0000 
      5 C4'        -3.8030   58.8400   19.5980 C.ar      1 THD1682     0.0000 
      6 N4'        -4.0190   57.5280   19.5350 N.pl3     1 THD1682     0.0000 
      7 C5'        -4.7750   59.8640   19.2190 C.ar      1 THD1682     0.0000 
      8 C6'        -4.3140   61.1470   19.3730 C.ar      1 THD1682     0.0000 
      9 C7'        -6.1950   59.5940   18.6890 C.3       1 THD1682     0.0000 
     10 N3         -6.1120   58.6800   17.4270 N.pl3     1 THD1682     0.0000 
     11 C2         -6.2280   57.2850   17.3580 C.2       1 THD1682     0.0000 
     12 S1         -5.9730   56.7220   15.7560 S.3       1 THD1682     0.0000 
     13 C5         -5.7520   58.2990   15.1890 C.2       1 THD1682     0.0000 
     14 C4         -5.8560   59.2110   16.2080 C.2       1 THD1682     0.0000 
     15 CM4        -5.7080   60.6840   16.0200 C.3       1 THD1682     0.0000 
     16 C6         -5.4680   58.5950   13.7300 C.3       1 THD1682     0.0000 
     17 C7         -5.6210   57.4640   12.8010 C.3       1 THD1682     0.0000 
     18 O7         -4.7980   57.7780   11.6770 O.3       1 THD1682     0.0000 
     19 PA         -3.6990   56.7630   11.3030 P.3       1 THD1682     0.0000 
     20 O1A        -2.5380   56.6170   12.2500 O.co2     1 THD1682     0.0000 
     21 O2A        -3.4330   57.2890    9.9960 O.co2     1 THD1682     0.0000 
     22 O3A        -4.4020   55.3930   10.8200 O.3       1 THD1682     0.0000 
     23 PB         -5.6390   54.7350   10.0250 P.3       1 THD1682     0.0000 
     24 O1B        -4.9780   54.7120    8.7300 O.co2     1 THD1682     0.0000 
     25 O2B        -5.7980   53.3950   10.5730 O.co2     1 THD1682     0.0000 
     26 O3B        -6.8490   55.5750   10.2090 O.co2     1 THD1682     0.0000 
     27 C8         -6.6210   56.7020   18.4190 C.2       1 THD1682     0.0000 
     28 O9         -6.9470   57.1260   19.5530 O.3       1 THD1682     0.0000 
     29 C9         -6.6590   55.2760   18.1520 C.3       1 THD1682     0.0000 
     30 O10        -5.6790   54.6120   18.9270 O.3       1 THD1682     0.0000 
     31 H          -3.2083   56.9534   19.4227 H         1 THD1682     0.0000 
     32 H          -4.9725   57.2352   19.6057 H         1 THD1682     0.0000 
     33 H          -4.9510   61.9497   19.1206 H         1 THD1682     0.0000 
     34 H          -6.6617   60.5255   18.4130 H         1 THD1682     0.0000 
     35 H          -6.7741   59.0898   19.4454 H         1 THD1682     0.0000 
     36 H          -4.4304   59.0072   13.6560 H         1 THD1682     0.0000 
     37 H          -6.1319   59.4377   13.4121 H         1 THD1682     0.0000 
     38 H          -6.6629   57.3692   12.5131 H         1 THD1682     0.0000 
     39 H          -5.2950   56.5495   13.2857 H         1 THD1682     0.0000 
     40 H          -6.4922   55.1004   17.0721 H         1 THD1682     0.0000 
     41 H          -7.6700   54.8871   18.3787 H         1 THD1682     0.0000 
     42 H          -0.3205   60.0344   20.9033 H         1 THD1682     0.0000 
     43 H          -0.3590   61.3710   20.0099 H         1 THD1682     0.0000 
     44 H          -0.9311   61.3916   21.5128 H         1 THD1682     0.0000 
     45 H          -4.9591   61.0551   16.5690 H         1 THD1682     0.0000 
     46 H          -5.5174   60.9195   15.0670 H         1 THD1682     0.0000 
     47 H          -6.5370   61.1772   16.2836 H         1 THD1682     0.0000 
     48 H          -7.6678   57.7973   19.3807 H         1 THD1682     0.0000 
     49 H          -6.0840   53.7258   19.1522 H         1 THD1682     0.0000 
@<TRIPOS>BOND
     1    2    1 ar   
     2    8    1 ar   
     3    3    2 1    
     4    4    2 ar   
     5   42    3 1    
     6   43    3 1    
     7   44    3 1    
     8    5    4 ar   
     9    6    5 1    
    10    7    5 ar   
    11   31    6 1    
    12   32    6 1    
    13    8    7 ar   
    14    9    7 1    
    15   33    8 1    
    16   10    9 1    
    17   34    9 1    
    18   35    9 1    
    19   11   10 1    
    20   14   10 1    
    21   12   11 1    
    22   27   11 2    
    23   13   12 1    
    24   14   13 2    
    25   16   13 1    
    26   15   14 1    
    27   45   15 1    
    28   46   15 1    
    29   47   15 1    
    30   17   16 1    
    31   36   16 1    
    32   37   16 1    
    33   18   17 1    
    34   38   17 1    
    35   39   17 1    
    36   19   18 1    
    37   20   19 ar   
    38   21   19 ar   
    39   22   19 1    
    40   23   22 1    
    41   24   23 ar   
    42   25   23 ar   
    43   26   23 ar   
    44   28   27 1    
    45   29   27 1    
    46   48   28 1    
    47   30   29 1    
    48   40   29 1    
    49   41   29 1    
    50   49   30 1    
@<TRIPOS>SUBSTRUCTURE
     1 THD1682     1 GROUP   
@<TRIPOS>SET

