#    Name: 1y5v_NE8_1_INTS_M
#    Modification time : Mon Apr  7 15:34:34 2014

@<TRIPOS>MOLECULE
1y5v_NE8_1_INTS_M
   54     0     9     0     0
SMALL
NO_CHARGES


@<TRIPOS>ATOM
      1 CA         15.1945   13.8495   20.4140 C.3       3 GLC5        0.0000 
      2 CA         14.6410   14.8030   18.5710 C.3       9 GLL5        0.0000 
      3 CA         15.7480   12.8960   22.2570 C.3       6 GLP5        0.0000 
      4 CA         14.4875   18.1370   19.1125 C.3       3 GLC5        0.0000 
      5 CA         14.6130   16.3060   18.9700 C.3       9 GLL5        0.0000 
      6 CA         14.3620   19.9680   19.2550 C.3       6 GLP5        0.0000 
      7 O          13.9115   15.7220   22.6930 O.2       1 ALC1        0.0000 
      8 O          14.9970   16.0260   23.9110 O.2       7 ALL1        0.0000 
      9 O          12.8260   15.4180   21.4750 O.2       4 ALP1        0.0000 
     10 O          13.9310   15.1890   23.6490 O.2       1 ALC1        0.0000 
     11 O          12.8650   14.3520   23.3870 O.2       4 ALP1        0.0000 
     12 O          15.0780   16.6025   25.2885 O.2       1 ALC1        0.0000 
     13 O          15.1590   17.1790   26.6660 O.2       4 ALP1        0.0000 
     14 O          17.2165   16.9415   24.8915 O.2       1 ALC1        0.0000 
     15 O          17.0700   16.7860   23.4930 O.2       7 ALL1        0.0000 
     16 O          17.3630   17.0970   26.2900 O.2       4 ALP1        0.0000 
     17 N          19.5620   17.6530   24.5395 N.am      2 SEC2        0.0000 
     18 N          19.1280   17.4890   23.0200 N.am      8 SEL2        0.0000 
     19 N          19.9960   17.8170   26.0590 N.am      5 SEP2        0.0000 
     20 N          20.4500   17.5440   22.8535 N.am      2 SEC2        0.0000 
     21 N          21.7720   17.5990   22.6870 N.am      5 SEP2        0.0000 
     22 O          20.3690   17.9725   17.9670 O.2       1 ALC1        0.0000 
     23 O          18.9520   17.9010   17.7650 O.2       7 ALL1        0.0000 
     24 O          21.7860   18.0440   18.1690 O.2       4 ALP1        0.0000 
     25 CA         17.6660   15.6800   17.0825 C.3       3 GLC5        0.0000 
     26 CA         16.9950   17.1620   18.5190 C.3       9 GLL5        0.0000 
     27 CA         18.3370   14.1980   15.6460 C.3       6 GLP5        0.0000 
     28 CA          8.5130   13.4735   18.0365 C.3       3 GLC5        0.0000 
     29 CA         10.7160   13.1330   18.0160 C.3       9 GLL5        0.0000 
     30 CA          6.3100   13.8140   18.0570 C.3       6 GLP5        0.0000 
     31 CA         14.3760   12.8950   20.4985 C.3       3 GLC5        0.0000 
     32 CA         13.0040   12.8940   18.7400 C.3       9 GLL5        0.0000 
     33 CA         17.3878   15.0700   20.1540 C.3       3 GLC5        0.0000 
     34 CA         16.4090   16.7720   20.7970 C.3       9 GLL5        0.0000 
     35 CA         18.5620   13.3770   20.1880 C.3       6 GLP5        0.0000 
     36 CA         15.5001   18.2995   21.2073 C.3       3 GLC5        0.0000 
     37 CA         16.0180   16.7540   19.4430 C.3       9 GLL5        0.0000 
     38 CA         14.0440   19.6360   21.7700 C.3       6 GLP5        0.0000 
     39 CA         18.6648   19.0198   21.4035 C.3       3 GLC5        0.0000 
     40 CA         17.6990   17.1630   21.1690 C.3       9 GLL5        0.0000 
     41 CA         19.1560   20.6720   22.1100 C.3       6 GLP5        0.0000 
     42 CA         18.3678   15.3722   20.4425 C.3       3 GLC5        0.0000 
     43 CA         18.6480   17.5720   20.2250 C.3       9 GLL5        0.0000 
     44 CA         18.0963   15.3680   19.4470 C.3       3 GLC5        0.0000 
     45 CA         18.2660   17.5560   18.8930 C.3       9 GLL5        0.0000 
     46 CA         11.9157   14.2450   19.9528 C.3       3 GLC5        0.0000 
     47 CA         13.2470   14.2260   18.3680 C.3       9 GLL5        0.0000 
     48 CA         11.0940   13.8780   21.8080 C.3       6 GLP5        0.0000 
     49 CA         10.9635   13.8367   19.8195 C.3       3 GLC5        0.0000 
     50 CA         10.9500   14.4580   17.6460 C.3       9 GLL5        0.0000 
     51 CA         10.7270   11.0505   17.5530 C.3       3 GLC5        0.0000 
     52 CA         10.2270    9.3610   16.8180 C.3       6 GLP5        0.0000 
     53 CA         11.7325   13.2492   20.2290 C.3       3 GLC5        0.0000 
     54 CA         11.7380   12.3470   18.5600 C.3       9 GLL5        0.0000 
@<TRIPOS>BOND
@<TRIPOS>SUBSTRUCTURE
     1 ALC1        7 GROUP        1 X    ALC  0     ROOT ALC X 1
     2 SEC2       17 GROUP        1 X    SEC  0     **** SEC X 2
     3 GLC5        1 GROUP        1 X    GLC  0     **** GLC X 6
     4 ALP1        9 GROUP        1 Y    ALP  0     ROOT ALP Y 8
     5 SEP2       19 GROUP        1 Y    SEP  0     **** SEP Y 9
     6 GLP5        3 GROUP        1 Y    GLP  0     **** GLP Y 13
     7 ALL1        8 GROUP        1 Z    ALL  0     ROOT ALL Z 15
     8 SEL2       18 GROUP        1 Z    SEL  0     **** SEL Z 16
     9 GLL5        2 GROUP        1 Z    GLL  0     **** GLL Z 20
@<TRIPOS>SET

