#    Name: 1y5v_NE8_1_ligand
#    Modification time : Mon Apr  7 15:34:34 2014

@<TRIPOS>MOLECULE
1y5v_NE8_1_ligand
   38    41     1     0     0
SMALL
NO_CHARGES


@<TRIPOS>ATOM
      1 C15        14.6410   14.8030   18.5710 C.3       1 NE8500      0.0000 
      2 C14        14.6130   16.3060   18.9700 C.3       1 NE8500      0.0000 
      3 C5         16.0180   16.7540   19.4430 C.ar      1 NE8500      0.0000 
      4 C4         16.4090   16.7720   20.7970 C.ar      1 NE8500      0.0000 
      5 N10        15.5610   16.3980   21.7880 N.2       1 NE8500      0.0000 
      6 C9         15.8860   16.4030   23.0260 C.2       1 NE8500      0.0000 
      7 N23        14.9970   16.0260   23.9110 N.pl3     1 NE8500      0.0000 
      8 N8         17.0700   16.7860   23.4930 N.am      1 NE8500      0.0000 
      9 C7         18.0070   17.1580   22.6480 C.2       1 NE8500      0.0000 
     10 O22        19.1280   17.4890   23.0200 O.2       1 NE8500      0.0000 
     11 C3         17.6990   17.1630   21.1690 C.ar      1 NE8500      0.0000 
     12 C2         18.6480   17.5720   20.2250 C.ar      1 NE8500      0.0000 
     13 C1         18.2660   17.5560   18.8930 C.ar      1 NE8500      0.0000 
     14 N11        18.9520   17.9010   17.7650 N.pl3     1 NE8500      0.0000 
     15 C12        18.1270   17.7140   16.7820 C.2       1 NE8500      0.0000 
     16 N13        16.9990   17.2880   17.1760 N.2       1 NE8500      0.0000 
     17 C6         16.9950   17.1620   18.5190 C.ar      1 NE8500      0.0000 
     18 C16        13.2470   14.2260   18.3680 C.ar      1 NE8500      0.0000 
     19 C17        12.2280   14.9980   17.8270 C.ar      1 NE8500      0.0000 
     20 C18        10.9500   14.4580   17.6460 C.ar      1 NE8500      0.0000 
     21 C19        10.7160   13.1330   18.0160 C.ar      1 NE8500      0.0000 
     22 C20        11.7380   12.3470   18.5600 C.ar      1 NE8500      0.0000 
     23 C21        13.0040   12.8940   18.7400 C.ar      1 NE8500      0.0000 
     24 H          15.1580   14.2473   19.3588 H         1 NE8500      0.0000 
     25 H          15.2187   14.7027   17.6474 H         1 NE8500      0.0000 
     26 H          13.9055   16.4434   19.7741 H         1 NE8500      0.0000 
     27 H          14.3221   16.8926   18.1114 H         1 NE8500      0.0000 
     28 H          15.0804   16.4343   24.8200 H         1 NE8500      0.0000 
     29 H          14.3163   15.3644   23.5966 H         1 NE8500      0.0000 
     30 H          17.2489   16.7894   24.5244 H         1 NE8500      0.0000 
     31 H          19.5702   17.8651   20.5091 H         1 NE8500      0.0000 
     32 H          19.8562   18.2127   17.7471 H         1 NE8500      0.0000 
     33 H          18.3711   17.8928   15.8129 H         1 NE8500      0.0000 
     34 H          12.4090   15.9751   17.5555 H         1 NE8500      0.0000 
     35 H          10.2019   15.0255   17.2495 H         1 NE8500      0.0000 
     36 H           9.7762   12.7252   17.8873 H         1 NE8500      0.0000 
     37 H          11.5510   11.3750   18.8228 H         1 NE8500      0.0000 
     38 H          13.7603   12.3322   19.1419 H         1 NE8500      0.0000 
@<TRIPOS>BOND
     1    2    1 1    
     2   18    1 1    
     3   24    1 1    
     4   25    1 1    
     5    3    2 1    
     6   26    2 1    
     7   27    2 1    
     8    4    3 ar   
     9   17    3 ar   
    10    5    4 1    
    11   11    4 ar   
    12    6    5 2    
    13    7    6 1    
    14    8    6 1    
    15   28    7 1    
    16   29    7 1    
    17    9    8 am   
    18   30    8 1    
    19   10    9 2    
    20   11    9 1    
    21   12   11 ar   
    22   13   12 ar   
    23   31   12 1    
    24   14   13 1    
    25   17   13 ar   
    26   15   14 1    
    27   32   14 1    
    28   16   15 2    
    29   33   15 1    
    30   17   16 1    
    31   19   18 ar   
    32   23   18 ar   
    33   20   19 ar   
    34   34   19 1    
    35   21   20 ar   
    36   35   20 1    
    37   22   21 ar   
    38   36   21 1    
    39   23   22 ar   
    40   37   22 1    
    41   38   23 1    
@<TRIPOS>SUBSTRUCTURE
     1 NE8500      1 GROUP   
@<TRIPOS>SET

