#    Name: 1men_GAR_2_INTS_M
#    Modification time : Tue Mar 25 11:46:33 2014

@<TRIPOS>MOLECULE
1men_GAR_2_INTS_M
   48     0    12     0     0
SMALL
NO_CHARGES


@<TRIPOS>ATOM
      1 N         -21.3710   22.2700  311.7025 N.am      2 SEC2        0.0000 
      2 N         -21.9430   21.0260  311.2530 N.am     10 SEL2        0.0000 
      3 N         -20.7990   23.5140  312.1520 N.am      6 SEP2        0.0000 
      4 O         -21.2430   20.0530  310.4110 O.2       1 ALC1        0.0000 
      5 O         -21.9430   21.0260  311.2530 O.2       9 ALL1        0.0000 
      6 O         -20.5430   19.0800  309.5690 O.2       5 ALP1        0.0000 
      7 O         -21.2325   19.8125  311.4690 O.2       1 ALC1        0.0000 
      8 O         -20.5220   18.5990  311.6850 O.2       5 ALP1        0.0000 
      9 CA        -22.8260   19.6175  307.6495 C.3       4 GLC5        0.0000 
     10 CA        -23.4370   20.4840  309.3590 C.3      12 GLL5        0.0000 
     11 CA        -22.2150   18.7510  305.9400 C.3       8 GLP5        0.0000 
     12 O         -21.7565   19.1230  309.5760 O.2       1 ALC1        0.0000 
     13 O         -22.9700   19.1660  309.5830 O.2       9 ALL1        0.0000 
     14 O         -21.7460   18.8825  310.6340 O.2       1 ALC1        0.0000 
     15 CA        -26.1865   22.0960  309.9035 C.3       4 GLC5        0.0000 
     16 CA        -24.7360   20.6320  310.0150 C.3      12 GLL5        0.0000 
     17 CA        -27.6370   23.5600  309.7920 C.3       8 GLP5        0.0000 
     18 N         -21.3650   23.7985  310.8930 N.am      2 SEC2        0.0000 
     19 N         -21.9310   24.0830  309.6340 N.am     10 SEL2        0.0000 
     20 CA        -28.7075   21.3380  308.9315 C.3       4 GLC5        0.0000 
     21 CA        -28.0670   19.4630  308.6250 C.3      12 GLL5        0.0000 
     22 CA        -29.3480   23.2130  309.2380 C.3       8 GLP5        0.0000 
     23 CA        -26.6405   18.2225  309.8405 C.3       4 GLC5        0.0000 
     24 CA        -25.2140   16.9820  311.0560 C.3       8 GLP5        0.0000 
     25 N         -19.2805   24.4130  307.2505 N.am      2 SEC2        0.0000 
     26 N         -20.6340   24.3960  307.7180 N.am     10 SEL2        0.0000 
     27 N         -17.9270   24.4300  306.7830 N.am      6 SEP2        0.0000 
     28 N         -20.1650   22.9835  307.8690 N.am      2 SEC2        0.0000 
     29 N         -19.6960   21.5710  308.0200 N.am      6 SEP2        0.0000 
     30 NZ        -20.3910   24.6165  311.0210 N.4       3 LYC4        0.0000 
     31 NZ        -19.9830   25.7190  309.8900 N.4      11 LYL4        0.0000 
     32 NZ        -20.7990   23.5140  312.1520 N.4       7 LYP4        0.0000 
     33 N         -19.1445   26.3805  308.8250 N.am      2 SEC2        0.0000 
     34 N         -19.9830   25.7190  309.8900 N.am     10 SEL2        0.0000 
     35 N         -18.3060   27.0420  307.7600 N.am      6 SEP2        0.0000 
     36 N         -18.8045   25.1385  309.7770 N.am      2 SEC2        0.0000 
     37 N         -17.6260   24.5580  309.6640 N.am      6 SEP2        0.0000 
     38 N         -20.3910   24.6165  311.0210 N.am      2 SEC2        0.0000 
     39 N         -21.2985   27.5005  308.0190 N.am      2 SEC2        0.0000 
     40 N         -22.0270   26.3220  308.5530 N.am     10 SEL2        0.0000 
     41 N         -20.5700   28.6790  307.4850 N.am      6 SEP2        0.0000 
     42 CA        -24.6063   22.0390  308.1570 C.3       4 GLC5        0.0000 
     43 CA        -25.1260   23.5200  306.6270 C.3       8 GLP5        0.0000 
     44 CA        -24.6502   18.7700  310.3715 C.3       4 GLC5        0.0000 
     45 CA        -24.2915   23.3825  308.3697 C.3       4 GLC5        0.0000 
     46 CA        -23.5620   22.5840  310.4910 C.3      12 GLL5        0.0000 
     47 CA        -25.5470   23.4025  309.9522 C.3       4 GLC5        0.0000 
     48 CA        -23.3520   23.9060  309.7340 C.3      12 GLL5        0.0000 
@<TRIPOS>BOND
@<TRIPOS>SUBSTRUCTURE
     1 ALC1        4 GROUP        1 X    ALC  0     ROOT ALC X 1
     2 SEC2        1 GROUP        1 X    SEC  0     **** SEC X 2
     3 LYC4       30 GROUP        1 X    LYC  0     **** LYC X 4
     4 GLC5        9 GROUP        1 X    GLC  0     **** GLC X 6
     5 ALP1        6 GROUP        1 Y    ALP  0     ROOT ALP Y 8
     6 SEP2        3 GROUP        1 Y    SEP  0     **** SEP Y 9
     7 LYP4       32 GROUP        1 Y    LYP  0     **** LYP Y 11
     8 GLP5       11 GROUP        1 Y    GLP  0     **** GLP Y 13
     9 ALL1        5 GROUP        1 Z    ALL  0     ROOT ALL Z 15
    10 SEL2        2 GROUP        1 Z    SEL  0     **** SEL Z 16
    11 LYL4       31 GROUP        1 Z    LYL  0     **** LYL Z 18
    12 GLL5       10 GROUP        1 Z    GLL  0     **** GLL Z 20
@<TRIPOS>SET

