#    Name: 1men_GAR_2_ligand
#    Modification time : Tue Mar 25 11:46:34 2014

@<TRIPOS>MOLECULE
1men_GAR_2_ligand
   32    32     1     0     0
SMALL
NO_CHARGES


@<TRIPOS>ATOM
      1 C1        -22.5760   21.5310  310.0830 C.3       1 GAR224      0.0000 
      2 O6        -21.9430   21.0260  311.2530 O.3       1 GAR224      0.0000 
      3 C2        -23.4370   20.4840  309.3590 C.3       1 GAR224      0.0000 
      4 O8        -22.9700   19.1660  309.5830 O.3       1 GAR224      0.0000 
      5 C3        -24.7360   20.6320  310.0150 C.3       1 GAR224      0.0000 
      6 O4        -24.8550   22.0270  310.3190 O.3       1 GAR224      0.0000 
      7 C5        -23.5620   22.5840  310.4910 C.3       1 GAR224      0.0000 
      8 C10       -23.3520   23.9060  309.7340 C.3       1 GAR224      0.0000 
      9 O12       -21.9310   24.0830  309.6340 O.3       1 GAR224      0.0000 
     10 N19       -25.8680   20.2670  309.2050 N.am      1 GAR224      0.0000 
     11 C21       -27.0560   19.9450  309.6590 C.2       1 GAR224      0.0000 
     12 O22       -27.3430   19.9850  310.8700 O.2       1 GAR224      0.0000 
     13 C23       -28.0670   19.4630  308.6250 C.3       1 GAR224      0.0000 
     14 N24       -29.4430   20.0290  308.6040 N.4       1 GAR224      0.0000 
     15 P15       -21.1810   25.2290  308.9490 P.3       1 GAR224      0.0000 
     16 O16       -20.6340   24.3960  307.7180 O.co2     1 GAR224      0.0000 
     17 O17       -19.9830   25.7190  309.8900 O.co2     1 GAR224      0.0000 
     18 O18       -22.0270   26.3220  308.5530 O.co2     1 GAR224      0.0000 
     19 H         -21.9031   21.9555  309.3816 H         1 GAR224      0.0000 
     20 H         -23.5117   20.7543  308.3476 H         1 GAR224      0.0000 
     21 H         -24.7348   20.0766  310.9451 H         1 GAR224      0.0000 
     22 H         -23.3864   22.7870  311.5626 H         1 GAR224      0.0000 
     23 H         -23.8208   24.6936  310.3034 H         1 GAR224      0.0000 
     24 H         -23.8193   23.8129  308.7658 H         1 GAR224      0.0000 
     25 H         -25.6739   20.2737  308.1498 H         1 GAR224      0.0000 
     26 H         -28.1360   18.3332  308.7163 H         1 GAR224      0.0000 
     27 H         -27.5980   19.5997  307.5999 H         1 GAR224      0.0000 
     28 H         -29.9983   19.6284  307.8752 H         1 GAR224      0.0000 
     29 H         -29.9255   19.8643  309.4643 H         1 GAR224      0.0000 
     30 H         -29.4355   21.0181  308.4568 H         1 GAR224      0.0000 
     31 H         -21.5723   20.1373  310.9834 H         1 GAR224      0.0000 
     32 H         -22.1086   19.2775  310.0785 H         1 GAR224      0.0000 
@<TRIPOS>BOND
     1    2    1 1    
     2    3    1 1    
     3    7    1 1    
     4   19    1 1    
     5   31    2 1    
     6    4    3 1    
     7    5    3 1    
     8   20    3 1    
     9   32    4 1    
    10    6    5 1    
    11   10    5 1    
    12   21    5 1    
    13    7    6 1    
    14    8    7 1    
    15   22    7 1    
    16    9    8 1    
    17   23    8 1    
    18   24    8 1    
    19   15    9 1    
    20   11   10 am   
    21   25   10 1    
    22   12   11 2    
    23   13   11 1    
    24   14   13 1    
    25   26   13 1    
    26   27   13 1    
    27   28   14 1    
    28   29   14 1    
    29   30   14 1    
    30   16   15 ar   
    31   17   15 ar   
    32   18   15 ar   
@<TRIPOS>SUBSTRUCTURE
     1 GAR224      1 GROUP   
@<TRIPOS>SET

