#    Name: 2k5t_COA_1_INTS_M
#    Modification time : Tue Mar 25 21:14:57 2014

@<TRIPOS>MOLECULE
2k5t_COA_1_INTS_M
   76     0     9     0     0
SMALL
NO_CHARGES


@<TRIPOS>ATOM
      1 CA         85.5690   -1.7525   -4.7485 C.3       3 GLC5        0.0000 
      2 CA         85.1320   -1.5410   -2.5870 C.3       9 GLL5        0.0000 
      3 CA         86.0060   -1.9640   -6.9100 C.3       6 GLP5        0.0000 
      4 CA         84.4865    0.3675    0.4740 C.3       3 GLC5        0.0000 
      5 CA         83.6180   -0.9540   -0.8630 C.3       9 GLL5        0.0000 
      6 CA         85.3550    1.6890    1.8110 C.3       6 GLP5        0.0000 
      7 CA         82.4330    1.7715   -0.9935 C.3       3 GLC5        0.0000 
      8 CA         82.9140   -0.2200   -1.7390 C.3       9 GLL5        0.0000 
      9 CA         81.9520    3.7630   -0.2480 C.3       6 GLP5        0.0000 
     10 CA         84.2535    1.1920   -3.7795 C.3       3 GLC5        0.0000 
     11 CA         83.2950   -0.1380   -3.0210 C.3       9 GLL5        0.0000 
     12 CA         85.2120    2.5220   -4.5380 C.3       6 GLP5        0.0000 
     13 CA         84.4040    0.0845    1.6910 C.3       3 GLC5        0.0000 
     14 CA         83.4530   -1.5200    1.5710 C.3       9 GLL5        0.0000 
     15 O          83.8930   -2.8145    3.9505 O.2       1 ALC1        0.0000 
     16 O          82.4790   -2.6850    3.4580 O.2       7 ALL1        0.0000 
     17 O          85.3070   -2.9440    4.4430 O.2       4 ALP1        0.0000 
     18 CA         86.0415   -3.5530    2.7645 C.3       3 GLC5        0.0000 
     19 CA         84.4580   -3.6420    1.3220 C.3       9 GLL5        0.0000 
     20 CA         87.6250   -3.4640    4.2070 C.3       6 GLP5        0.0000 
     21 CA         84.1125   -5.5690   -1.2325 C.3       3 GLC5        0.0000 
     22 CA         85.0130   -4.2540    0.0360 C.3       9 GLL5        0.0000 
     23 CA         83.2120   -6.8840   -2.5010 C.3       6 GLP5        0.0000 
     24 N          89.3775   -4.4710    2.2650 N.am      2 SEC2        0.0000 
     25 N          88.4080   -4.7090    1.3160 N.am      8 SEL2        0.0000 
     26 N          90.3470   -4.2330    3.2140 N.am      5 SEP2        0.0000 
     27 N          87.1765   -6.9275   -1.4920 N.am      2 SEC2        0.0000 
     28 N          87.3160   -5.7440   -0.7150 N.am      8 SEL2        0.0000 
     29 N          87.0370   -8.1110   -2.2690 N.am      5 SEP2        0.0000 
     30 N          87.5645   -7.1335   -0.2385 N.am      2 SEC2        0.0000 
     31 N          87.8130   -8.5230    0.2380 N.am      5 SEP2        0.0000 
     32 N          87.7075   -6.5585   -2.6055 N.am      2 SEC2        0.0000 
     33 N          88.3780   -5.0060   -2.9420 N.am      8 SEL2        0.0000 
     34 N          91.0085   -5.0020   -0.4840 N.am      2 SEC2        0.0000 
     35 N          90.5550   -4.6140   -1.7260 N.am      8 SEL2        0.0000 
     36 N          91.4620   -5.3900    0.7580 N.am      5 SEP2        0.0000 
     37 CA         87.7165   -2.9775   -4.6600 C.3       3 GLC5        0.0000 
     38 CA         88.4200   -1.8580   -3.3630 C.3       9 GLL5        0.0000 
     39 CA         87.0130   -4.0970   -5.9570 C.3       6 GLP5        0.0000 
     40 CA         86.9520    1.5425   -4.2335 C.3       3 GLC5        0.0000 
     41 CA         88.6920    0.5630   -3.9290 C.3       9 GLL5        0.0000 
     42 CA         89.4600    2.3245   -3.1805 C.3       3 GLC5        0.0000 
     43 CA         90.2280    4.0860   -2.4320 C.3       6 GLP5        0.0000 
     44 CA         91.8940   -1.5320   -2.5145 C.3       3 GLC5        0.0000 
     45 CA         90.3360   -0.5260   -2.3900 C.3       9 GLL5        0.0000 
     46 CA         93.4520   -2.5380   -2.6390 C.3       6 GLP5        0.0000 
     47 CA         91.8580   -2.0760   -4.4560 C.3       3 GLC5        0.0000 
     48 CA         90.3200   -1.1000   -4.8400 C.3       9 GLL5        0.0000 
     49 CA         93.3960   -3.0520   -4.0720 C.3       6 GLP5        0.0000 
     50 N          93.6055   -0.5865   -4.4200 N.am      2 SEC2        0.0000 
     51 N          92.3880   -0.0680   -4.1690 N.am      8 SEL2        0.0000 
     52 N          94.8230   -1.1050   -4.6710 N.am      5 SEP2        0.0000 
     53 CA         91.0805    3.1065   -4.2080 C.3       3 GLC5        0.0000 
     54 CA         91.9330    2.1270   -5.9840 C.3       9 GLL5        0.0000 
     55 CA         94.7980    1.4785   -5.2575 C.3       3 GLC5        0.0000 
     56 CA         93.4660    2.0420   -5.8250 C.3       9 GLL5        0.0000 
     57 CA         96.1300    0.9150   -4.6900 C.3       6 GLP5        0.0000 
     58 N          94.6435    3.3185   -7.8720 N.am      2 SEC2        0.0000 
     59 N          93.6200    3.9380   -7.3040 N.am      8 SEL2        0.0000 
     60 N          95.6670    2.6990   -8.4400 N.am      5 SEP2        0.0000 
     61 CA         96.9320    5.9635   -2.6550 C.3       3 GLC5        0.0000 
     62 CA         95.4800    5.7140   -4.1600 C.3       9 GLL5        0.0000 
     63 CA         98.3840    6.2130   -1.1500 C.3       6 GLP5        0.0000 
     64 CA         96.0915    4.2680   -2.8075 C.3       3 GLC5        0.0000 
     65 CA         96.7030    2.8220   -1.4550 C.3       6 GLP5        0.0000 
     66 CA         97.6370    6.9160   -3.5805 C.3       3 GLC5        0.0000 
     67 CA         95.9950    7.3510   -4.8010 C.3       9 GLL5        0.0000 
     68 CA         99.2790    6.4810   -2.3600 C.3       6 GLP5        0.0000 
     69 CA         94.7355    8.3305   -4.5405 C.3       3 GLC5        0.0000 
     70 CA         93.4760    9.3100   -4.2800 C.3       6 GLP5        0.0000 
     71 CA         82.5165   -1.0935    3.2975 C.3       3 GLC5        0.0000 
     72 CA         82.0770   -0.1440    4.7960 C.3       6 GLP5        0.0000 
     73 CA         95.8740    4.2477   -5.4560 C.3       3 GLC5        0.0000 
     74 CA         94.2860    5.6670   -5.1260 C.3       9 GLL5        0.0000 
     75 CA         96.8650    2.8050   -6.2690 C.3       6 GLP5        0.0000 
     76 CA         94.1795    7.5003   -4.4615 C.3       3 GLC5        0.0000 
@<TRIPOS>BOND
@<TRIPOS>SUBSTRUCTURE
     1 ALC1       15 GROUP        1 X    ALC  0     ROOT ALC X 1
     2 SEC2       24 GROUP        1 X    SEC  0     **** SEC X 2
     3 GLC5        1 GROUP        1 X    GLC  0     **** GLC X 6
     4 ALP1       17 GROUP        1 Y    ALP  0     ROOT ALP Y 8
     5 SEP2       26 GROUP        1 Y    SEP  0     **** SEP Y 9
     6 GLP5        3 GROUP        1 Y    GLP  0     **** GLP Y 13
     7 ALL1       16 GROUP        1 Z    ALL  0     ROOT ALL Z 15
     8 SEL2       25 GROUP        1 Z    SEL  0     **** SEL Z 16
     9 GLL5        2 GROUP        1 Z    GLL  0     **** GLL Z 20
@<TRIPOS>SET

