#    Name: 2k5t_COA_1_ligand
#    Modification time : Tue Mar 25 21:14:57 2014

@<TRIPOS>MOLECULE
2k5t_COA_1_ligand
   79    81     1     0     0
SMALL
NO_CHARGES


@<TRIPOS>ATOM
      1 N1A        84.3850   -0.7730   -3.4760 N.ar      1 COA999      0.0000 
      2 C2A        85.1320   -1.5410   -2.5870 C.ar      1 COA999      0.0000 
      3 N3A        84.7230   -1.6160   -1.2560 N.ar      1 COA999      0.0000 
      4 C4A        83.6180   -0.9540   -0.8630 C.ar      1 COA999      0.0000 
      5 C5A        82.9140   -0.2200   -1.7390 C.ar      1 COA999      0.0000 
      6 C6A        83.2950   -0.1380   -3.0210 C.ar      1 COA999      0.0000 
      7 N6A        82.5370    0.6050   -3.8270 N.pl3     1 COA999      0.0000 
      8 N7A        81.8870    0.3180   -1.0830 N.2       1 COA999      0.0000 
      9 C8A        81.9530   -0.0760    0.1860 C.2       1 COA999      0.0000 
     10 N9A        83.0170   -0.8580    0.3180 N.pl3     1 COA999      0.0000 
     11 C1B        83.4530   -1.5200    1.5710 C.3       1 COA999      0.0000 
     12 C2B        82.4590   -2.5660    2.0270 C.3       1 COA999      0.0000 
     13 O2B        82.4790   -2.6850    3.4580 O.3       1 COA999      0.0000 
     14 C3B        82.9560   -3.8320    1.4020 C.3       1 COA999      0.0000 
     15 O3B        82.6500   -4.9490    2.2480 O.3       1 COA999      0.0000 
     16 P3B        81.9400   -6.2560    1.6430 P.3       1 COA999      0.0000 
     17 O7A        81.6390   -7.2640    2.6800 O.co2     1 COA999      0.0000 
     18 O8A        82.9500   -6.8290    0.5250 O.co2     1 COA999      0.0000 
     19 O9A        80.6140   -5.7700    0.8770 O.co2     1 COA999      0.0000 
     20 C4B        84.4580   -3.6420    1.3220 C.3       1 COA999      0.0000 
     21 O4B        84.7110   -2.2080    1.3550 O.3       1 COA999      0.0000 
     22 C5B        85.0130   -4.2540    0.0360 C.3       1 COA999      0.0000 
     23 O5B        86.2860   -3.7060    0.3880 O.3       1 COA999      0.0000 
     24 P1A        87.6340   -4.5210    0.0720 P.3       1 COA999      0.0000 
     25 O1A        88.4080   -4.7090    1.3160 O.co2     1 COA999      0.0000 
     26 O2A        87.3160   -5.7440   -0.7150 O.co2     1 COA999      0.0000 
     27 O3A        88.4420   -3.5200   -0.8900 O.3       1 COA999      0.0000 
     28 P2A        89.2470   -4.0840   -2.1640 P.3       1 COA999      0.0000 
     29 O4A        88.3780   -5.0060   -2.9420 O.co2     1 COA999      0.0000 
     30 O5A        90.5550   -4.6140   -1.7260 O.co2     1 COA999      0.0000 
     31 O6A        89.4950   -2.7650   -3.0610 O.3       1 COA999      0.0000 
     32 CBP        89.4470   -0.7380   -3.6270 C.3       1 COA999      0.0000 
     33 CCP        88.4200   -1.8580   -3.3630 C.3       1 COA999      0.0000 
     34 CDP        88.6920    0.5630   -3.9290 C.3       1 COA999      0.0000 
     35 CEP        90.3360   -0.5260   -2.3900 C.3       1 COA999      0.0000 
     36 CAP        90.3200   -1.1000   -4.8400 C.3       1 COA999      0.0000 
     37 OAP        89.5200   -1.0980   -6.0280 O.3       1 COA999      0.0000 
     38 C9P        91.4580   -0.0800   -4.9760 C.2       1 COA999      0.0000 
     39 O9P        92.3880   -0.0680   -4.1690 O.2       1 COA999      0.0000 
     40 N8P        91.3530    0.7690   -6.0130 N.am      1 COA999      0.0000 
     41 C7P        91.9330    2.1270   -5.9840 C.3       1 COA999      0.0000 
     42 C6P        93.4660    2.0420   -5.8250 C.3       1 COA999      0.0000 
     43 C5P        93.5760    3.5390   -6.1410 C.2       1 COA999      0.0000 
     44 O5P        93.6200    3.9380   -7.3040 O.2       1 COA999      0.0000 
     45 N4P        93.6400    4.3440   -5.0690 N.am      1 COA999      0.0000 
     46 C3P        94.2860    5.6670   -5.1260 C.3       1 COA999      0.0000 
     47 C2P        95.4800    5.7140   -4.1600 C.3       1 COA999      0.0000 
     48 S1P        95.9950    7.3510   -4.8010 S.3       1 COA999      0.0000 
     49 H          85.9628   -2.0397   -2.9022 H         1 COA999      0.0000 
     50 H          81.7656    1.0740   -3.3968 H         1 COA999      0.0000 
     51 H          82.8079    0.6266   -4.7894 H         1 COA999      0.0000 
     52 H          81.3306    0.1672    0.8908 H         1 COA999      0.0000 
     53 H          83.5638   -0.7932    2.3564 H         1 COA999      0.0000 
     54 H          81.5091   -2.3310    1.6379 H         1 COA999      0.0000 
     55 H          82.5690   -3.9227    0.4285 H         1 COA999      0.0000 
     56 H          84.9104   -4.1231    2.1653 H         1 COA999      0.0000 
     57 H          84.5866   -3.7823   -0.7600 H         1 COA999      0.0000 
     58 H          84.9836   -5.2690    0.1188 H         1 COA999      0.0000 
     59 H          87.8723   -1.6056   -2.5380 H         1 COA999      0.0000 
     60 H          87.9512   -2.0800   -4.2435 H         1 COA999      0.0000 
     61 H          90.7560   -2.0670   -4.6594 H         1 COA999      0.0000 
     62 H          90.8573    0.5135   -6.8908 H         1 COA999      0.0000 
     63 H          91.5363    2.6998   -5.1466 H         1 COA999      0.0000 
     64 H          91.7169    2.6603   -6.9090 H         1 COA999      0.0000 
     65 H          93.8564    1.4988   -6.5813 H         1 COA999      0.0000 
     66 H          93.6983    1.8744   -4.8568 H         1 COA999      0.0000 
     67 H          93.2401    4.0782   -4.1490 H         1 COA999      0.0000 
     68 H          93.5848    6.4529   -4.8409 H         1 COA999      0.0000 
     69 H          94.6523    5.8760   -6.1323 H         1 COA999      0.0000 
     70 H          96.2392    5.1412   -4.4430 H         1 COA999      0.0000 
     71 H          95.2244    5.9365   -3.2274 H         1 COA999      0.0000 
     72 H          89.3175    1.3232   -4.1047 H         1 COA999      0.0000 
     73 H          88.1057    0.4738   -4.7341 H         1 COA999      0.0000 
     74 H          88.1045    0.8368   -3.1675 H         1 COA999      0.0000 
     75 H          90.8387   -1.3557   -2.1473 H         1 COA999      0.0000 
     76 H          91.0135    0.1943   -2.5386 H         1 COA999      0.0000 
     77 H          89.7998   -0.2631   -1.5879 H         1 COA999      0.0000 
     78 H          83.4461   -2.7734    3.6967 H         1 COA999      0.0000 
     79 H          89.2491   -2.0516   -6.1591 H         1 COA999      0.0000 
@<TRIPOS>BOND
     1    2    1 ar   
     2    6    1 ar   
     3    3    2 ar   
     4   49    2 1    
     5    4    3 ar   
     6    5    4 ar   
     7   10    4 1    
     8    6    5 ar   
     9    8    5 1    
    10    7    6 1    
    11   50    7 1    
    12   51    7 1    
    13    9    8 2    
    14   10    9 1    
    15   52    9 1    
    16   11   10 1    
    17   12   11 1    
    18   21   11 1    
    19   53   11 1    
    20   13   12 1    
    21   14   12 1    
    22   54   12 1    
    23   78   13 1    
    24   15   14 1    
    25   20   14 1    
    26   55   14 1    
    27   16   15 1    
    28   17   16 ar   
    29   18   16 ar   
    30   19   16 ar   
    31   21   20 1    
    32   22   20 1    
    33   56   20 1    
    34   23   22 1    
    35   57   22 1    
    36   58   22 1    
    37   24   23 1    
    38   25   24 ar   
    39   26   24 ar   
    40   27   24 1    
    41   28   27 1    
    42   29   28 ar   
    43   30   28 ar   
    44   31   28 1    
    45   33   31 1    
    46   33   32 1    
    47   34   32 1    
    48   35   32 1    
    49   36   32 1    
    50   59   33 1    
    51   60   33 1    
    52   72   34 1    
    53   73   34 1    
    54   74   34 1    
    55   75   35 1    
    56   76   35 1    
    57   77   35 1    
    58   37   36 1    
    59   38   36 1    
    60   61   36 1    
    61   79   37 1    
    62   39   38 2    
    63   40   38 am   
    64   41   40 1    
    65   62   40 1    
    66   42   41 1    
    67   63   41 1    
    68   64   41 1    
    69   43   42 1    
    70   65   42 1    
    71   66   42 1    
    72   44   43 2    
    73   45   43 am   
    74   46   45 1    
    75   67   45 1    
    76   47   46 1    
    77   68   46 1    
    78   69   46 1    
    79   48   47 1    
    80   70   47 1    
    81   71   47 1    
@<TRIPOS>SUBSTRUCTURE
     1 COA999      1 GROUP   
@<TRIPOS>SET

