#    Name: 4IGQ_1_CAVITY_N1_ALL.mol2
#    Modification time : Tue Mar 11 05:18:06 2014

@<TRIPOS>MOLECULE
4IGQ_1_CAVITY_N1_ALL.mol2
   87     0     7     0     0
SMALL
NO_CHARGES


@<TRIPOS>ATOM
      1 NZ         36.6928   -5.8622  -15.4510 N.2       4 LYS4        0.0000 
      2 DU         35.6475   -5.1834  -16.2855 H         7 CUB7        0.0000 
      3 N          42.3268   -7.1975  -12.8099 N.2       2 ALA2        0.0000 
      4 N          41.2815   -6.5187  -13.6445 N.2       2 ALA2        0.0000 
      5 O          39.2837   -5.8828  -13.3210 O.2       2 ALA2        0.0000 
      6 N          40.2361   -5.8399  -14.4791 N.2       2 ALA2        0.0000 
      7 NZ         38.2384   -5.2040  -14.1556 N.2       4 LYS4        0.0000 
      8 CA         39.1908   -5.1611  -15.3136 C.3       6 GLY6        0.0000 
      9 CA         37.1930   -4.5252  -14.9901 C.3       6 GLY6        0.0000 
     10 CA         38.1454   -4.4823  -16.1482 C.3       6 GLY6        0.0000 
     11 NZ         36.1477   -3.8464  -15.8247 N.2       4 LYS4        0.0000 
     12 CA         37.1001   -3.8036  -16.9828 C.3       6 GLY6        0.0000 
     13 OG         35.1023   -3.1677  -16.6593 O.2       1 SER1        0.0000 
     14 CA         36.0547   -3.1248  -17.8173 C.3       6 GLY6        0.0000 
     15 O          40.8293   -5.2246  -12.0256 O.2       2 ALA2        0.0000 
     16 N          41.7817   -5.1817  -13.1837 N.2       2 ALA2        0.0000 
     17 O          39.7839   -4.5458  -12.8602 O.2       2 ALA2        0.0000 
     18 CA         40.7363   -4.5030  -14.0182 C.3       6 GLY6        0.0000 
     19 O          37.7862   -3.9099  -12.5367 O.2       2 ALA2        0.0000 
     20 CA         38.7386   -3.8670  -13.6947 C.3       6 GLY6        0.0000 
     21 NZ         36.7409   -3.2311  -13.3712 N.2       4 LYS4        0.0000 
     22 CA         37.6932   -3.1883  -14.5293 C.3       6 GLY6        0.0000 
     23 NZ         35.6955   -2.5524  -14.2058 N.2       4 LYS4        0.0000 
     24 CA         36.6479   -2.5095  -15.3639 C.3       6 GLY6        0.0000 
     25 OG         35.6025   -1.8307  -16.1984 O.2       1 SER1        0.0000 
     26 CA         36.5549   -1.7878  -17.3565 C.3       6 GLY6        0.0000 
     27 OG         34.5572   -1.1519  -17.0330 O.2       1 SER1        0.0000 
     28 N          35.5096   -1.1091  -18.1911 N.2       2 ALA2        0.0000 
     29 OG         40.2841   -3.2089  -12.3993 O.2       1 SER1        0.0000 
     30 O          38.2864   -2.5730  -12.0758 O.2       2 ALA2        0.0000 
     31 CA         39.2388   -2.5301  -13.2339 C.3       6 GLY6        0.0000 
     32 NZ         37.2410   -1.8942  -12.9104 N.2       4 LYS4        0.0000 
     33 CA         38.1934   -1.8513  -14.0684 C.3       6 GLY6        0.0000 
     34 CZ         36.1957   -1.2154  -13.7449 C.ar      5 PHE5        0.0000 
     35 CA         37.1481   -1.1725  -14.9030 C.3       6 GLY6        0.0000 
     36 OG         36.1027   -0.4938  -15.7376 O.2       1 SER1        0.0000 
     37 N          37.0551   -0.4509  -16.8956 N.2       2 ALA2        0.0000 
     38 OG         35.0574    0.1850  -16.5721 O.2       1 SER1        0.0000 
     39 OG         40.7843   -1.8719  -11.9385 O.2       1 SER1        0.0000 
     40 CZ         38.7866   -1.2360  -11.6150 C.ar      5 PHE5        0.0000 
     41 DU         39.7390   -1.1931  -12.7730 H         7 CUB7        0.0000 
     42 CA         40.6914   -1.1503  -13.9311 C.3       6 GLY6        0.0000 
     43 CA         36.7889   -0.6001  -11.2915 C.3       6 GLY6        0.0000 
     44 CA         37.7412   -0.5572  -12.4495 C.3       6 GLY6        0.0000 
     45 CA         38.6936   -0.5144  -13.6076 C.3       6 GLY6        0.0000 
     46 CA         39.6460   -0.4715  -14.7657 C.3       6 GLY6        0.0000 
     47 CZ         36.6959    0.1215  -13.2841 C.ar      5 PHE5        0.0000 
     48 CA         37.6483    0.1644  -14.4422 C.3       6 GLY6        0.0000 
     49 CZ         35.6505    0.8003  -14.1187 C.ar      5 PHE5        0.0000 
     50 CA         36.6029    0.8432  -15.2767 C.3       6 GLY6        0.0000 
     51 CZ         34.6052    1.4791  -14.9532 C.ar      5 PHE5        0.0000 
     52 OD1        35.5576    1.5220  -16.1113 O.3       3 ASP3        0.0000 
     53 CZ         33.5598    2.1579  -15.7878 C.ar      5 PHE5        0.0000 
     54 N          39.2868    0.1009  -11.1541 N.2       2 ALA2        0.0000 
     55 N          40.2392    0.1438  -12.3122 N.2       2 ALA2        0.0000 
     56 CA         36.3367    0.6940   -9.6725 C.3       6 GLY6        0.0000 
     57 CZ         37.2891    0.7368  -10.8306 C.ar      5 PHE5        0.0000 
     58 CA         38.2414    0.7797  -11.9887 C.3       6 GLY6        0.0000 
     59 CZ         36.2437    1.4156  -11.6652 C.ar      5 PHE5        0.0000 
     60 CA         37.1961    1.4585  -12.8232 C.3       6 GLY6        0.0000 
     61 CA         36.1507    2.1373  -13.6578 C.3       6 GLY6        0.0000 
     62 CZ         34.1530    2.7732  -13.3343 C.ar      5 PHE5        0.0000 
     63 CZ         35.1054    2.8160  -14.4924 C.ar      5 PHE5        0.0000 
     64 CZ         36.0578    2.8589  -15.6504 C.ar      5 PHE5        0.0000 
     65 O          33.1076    3.4520  -14.1689 O.2       2 ALA2        0.0000 
     66 O          34.0600    3.4948  -15.3269 O.2       2 ALA2        0.0000 
     67 OD1        35.0124    3.5377  -16.4850 O.3       3 ASP3        0.0000 
     68 N          38.8346    1.3950   -9.5352 N.2       2 ALA2        0.0000 
     69 N          35.8845    1.9881   -8.0536 N.2       2 ALA2        0.0000 
     70 CZ         36.8369    2.0309   -9.2117 C.ar      5 PHE5        0.0000 
     71 N          37.7893    2.0738  -10.3698 N.2       2 ALA2        0.0000 
     72 CA         34.8391    2.6668   -8.8882 C.3       6 GLY6        0.0000 
     73 CA         35.7915    2.7097  -10.0463 C.3       6 GLY6        0.0000 
     74 CZ         36.7439    2.7526  -11.2043 C.ar      5 PHE5        0.0000 
     75 CA         34.7462    3.3885  -10.8808 C.3       6 GLY6        0.0000 
     76 CZ         35.6985    3.4313  -12.0389 C.ar      5 PHE5        0.0000 
     77 OD1        33.7008    4.0673  -11.7154 O.3       3 ASP3        0.0000 
     78 OD1        34.6532    4.1101  -12.8735 O.3       3 ASP3        0.0000 
     79 CZ         35.6056    4.1530  -14.0315 C.ar      5 PHE5        0.0000 
     80 O          33.6078    4.7889  -13.7080 O.2       2 ALA2        0.0000 
     81 CZ         34.5602    4.8318  -14.8661 C.ar      5 PHE5        0.0000 
     82 O          37.3371    3.3679   -8.7509 O.2       2 ALA2        0.0000 
     83 CA         35.3393    4.0038   -8.4274 C.3       6 GLY6        0.0000 
     84 O          36.2917    4.0466   -9.5854 O.2       2 ALA2        0.0000 
     85 CZ         37.2441    4.0895  -10.7435 C.ar      5 PHE5        0.0000 
     86 OD1        35.2464    4.7254  -10.4200 O.3       3 ASP3        0.0000 
     87 CZ         36.1987    4.7683  -11.5781 C.ar      5 PHE5        0.0000 
@<TRIPOS>BOND
@<TRIPOS>SUBSTRUCTURE
     1 SER1       13 GROUP   
     2 ALA2        3 GROUP   
     3 ASP3       52 GROUP   
     4 LYS4        1 GROUP   
     5 PHE5       34 GROUP   
     6 GLY6        8 GROUP   
     7 CUB7        2 GROUP   
@<TRIPOS>SET

