#    Name: 4IGQ_1_CAVITY_N1_6.mol2
#    Modification time : Tue Mar 11 05:18:06 2014

@<TRIPOS>MOLECULE
4IGQ_1_CAVITY_N1_6.mol2
   42     0     7     0     0
SMALL
NO_CHARGES


@<TRIPOS>ATOM
      1 NZ         36.6928   -5.8622  -15.4510 N.2       4 LYS4        0.0000 
      2 DU         35.6475   -5.1834  -16.2855 H         7 CUB7        0.0000 
      3 O          39.2837   -5.8828  -13.3210 O.2       2 ALA2        0.0000 
      4 N          40.2361   -5.8399  -14.4791 N.2       2 ALA2        0.0000 
      5 NZ         38.2384   -5.2040  -14.1556 N.2       4 LYS4        0.0000 
      6 CA         39.1908   -5.1611  -15.3136 C.3       6 GLY6        0.0000 
      7 CA         37.1930   -4.5252  -14.9901 C.3       6 GLY6        0.0000 
      8 CA         38.1454   -4.4823  -16.1482 C.3       6 GLY6        0.0000 
      9 NZ         36.1477   -3.8464  -15.8247 N.2       4 LYS4        0.0000 
     10 CA         37.1001   -3.8036  -16.9828 C.3       6 GLY6        0.0000 
     11 OG         35.1023   -3.1677  -16.6593 O.2       1 SER1        0.0000 
     12 CA         36.0547   -3.1248  -17.8173 C.3       6 GLY6        0.0000 
     13 CA         40.7363   -4.5030  -14.0182 C.3       6 GLY6        0.0000 
     14 O          37.7862   -3.9099  -12.5367 O.2       2 ALA2        0.0000 
     15 CA         38.7386   -3.8670  -13.6947 C.3       6 GLY6        0.0000 
     16 NZ         36.7409   -3.2311  -13.3712 N.2       4 LYS4        0.0000 
     17 CA         37.6932   -3.1883  -14.5293 C.3       6 GLY6        0.0000 
     18 NZ         35.6955   -2.5524  -14.2058 N.2       4 LYS4        0.0000 
     19 CA         36.6479   -2.5095  -15.3639 C.3       6 GLY6        0.0000 
     20 OG         35.6025   -1.8307  -16.1984 O.2       1 SER1        0.0000 
     21 CA         36.5549   -1.7878  -17.3565 C.3       6 GLY6        0.0000 
     22 OG         34.5572   -1.1519  -17.0330 O.2       1 SER1        0.0000 
     23 N          35.5096   -1.1091  -18.1911 N.2       2 ALA2        0.0000 
     24 NZ         37.2410   -1.8942  -12.9104 N.2       4 LYS4        0.0000 
     25 CZ         36.1957   -1.2154  -13.7449 C.ar      5 PHE5        0.0000 
     26 CA         37.1481   -1.1725  -14.9030 C.3       6 GLY6        0.0000 
     27 OG         36.1027   -0.4938  -15.7376 O.2       1 SER1        0.0000 
     28 N          37.0551   -0.4509  -16.8956 N.2       2 ALA2        0.0000 
     29 OG         35.0574    0.1850  -16.5721 O.2       1 SER1        0.0000 
     30 CA         36.7889   -0.6001  -11.2915 C.3       6 GLY6        0.0000 
     31 CZ         36.6959    0.1215  -13.2841 C.ar      5 PHE5        0.0000 
     32 CZ         35.6505    0.8003  -14.1187 C.ar      5 PHE5        0.0000 
     33 CA         36.6029    0.8432  -15.2767 C.3       6 GLY6        0.0000 
     34 CZ         34.6052    1.4791  -14.9532 C.ar      5 PHE5        0.0000 
     35 OD1        35.5576    1.5220  -16.1113 O.3       3 ASP3        0.0000 
     36 CZ         33.5598    2.1579  -15.7878 C.ar      5 PHE5        0.0000 
     37 CZ         34.1530    2.7732  -13.3343 C.ar      5 PHE5        0.0000 
     38 CZ         35.1054    2.8160  -14.4924 C.ar      5 PHE5        0.0000 
     39 CZ         36.0578    2.8589  -15.6504 C.ar      5 PHE5        0.0000 
     40 O          33.1076    3.4520  -14.1689 O.2       2 ALA2        0.0000 
     41 O          34.0600    3.4948  -15.3269 O.2       2 ALA2        0.0000 
     42 OD1        35.0124    3.5377  -16.4850 O.3       3 ASP3        0.0000 
@<TRIPOS>BOND
@<TRIPOS>SUBSTRUCTURE
     1 SER1       11 GROUP   
     2 ALA2        3 GROUP   
     3 ASP3       35 GROUP   
     4 LYS4        1 GROUP   
     5 PHE5       25 GROUP   
     6 GLY6        6 GROUP   
     7 CUB7        2 GROUP   
@<TRIPOS>SET

