#    Name: 4igq_THR_GLN_M3L_1_INTS_M
#    Modification time : Tue Mar 25 03:56:30 2014

@<TRIPOS>MOLECULE
4igq_THR_GLN_M3L_1_INTS_M
   57     0     9     0     0
SMALL
NO_CHARGES


@<TRIPOS>ATOM
      1 OD1        33.7625   -5.4775  -13.3160 O.co2     2 ASC3        0.0000 
      2 OD1        33.0250   -6.6710  -14.0900 O.co2     8 ASL3        0.0000 
      3 OD1        34.5000   -4.2840  -12.5420 O.co2     5 ASP3        0.0000 
      4 OD1        34.2970   -6.3840  -12.9890 O.co2     2 ASC3        0.0000 
      5 OD1        35.5690   -6.0970  -11.8880 O.co2     5 ASP3        0.0000 
      6 O          33.7625   -5.4775  -13.3160 O.2       1 ALC1        0.0000 
      7 O          33.0250   -6.6710  -14.0900 O.2       7 ALL1        0.0000 
      8 O          34.5000   -4.2840  -12.5420 O.2       4 ALP1        0.0000 
      9 O          34.2970   -6.3840  -12.9890 O.2       1 ALC1        0.0000 
     10 O          35.5690   -6.0970  -11.8880 O.2       4 ALP1        0.0000 
     11 CA         32.6865   -5.8525  -12.9705 C.3       3 GLC5        0.0000 
     12 CA         32.0240   -5.9490  -14.8720 C.3       9 GLL5        0.0000 
     13 CA         33.3490   -5.7560  -11.0690 C.3       6 GLP5        0.0000 
     14 CA         30.2510   -5.8905  -15.1460 C.3       3 GLC5        0.0000 
     15 CA         28.4780   -5.8320  -15.4200 C.3       6 GLP5        0.0000 
     16 CA         29.9730   -4.8870  -14.1875 C.3       3 GLC5        0.0000 
     17 CA         31.3730   -4.7990  -14.0710 C.3       9 GLL5        0.0000 
     18 CA         28.5730   -4.9750  -14.3040 C.3       6 GLP5        0.0000 
     19 O          33.4440   -4.1155  -13.0330 O.2       1 ALC1        0.0000 
     20 O          32.3880   -3.9470  -13.5240 O.2       7 ALL1        0.0000 
     21 CA         29.4690   -5.4245  -12.9960 C.3       3 GLC5        0.0000 
     22 CA         30.5470   -5.3360  -12.9700 C.3       9 GLL5        0.0000 
     23 CA         28.3910   -5.5130  -13.0220 C.3       6 GLP5        0.0000 
     24 CA         32.2060   -0.7435  -15.3225 C.3       3 GLC5        0.0000 
     25 CA         31.3900   -1.3800  -16.9380 C.3       9 GLL5        0.0000 
     26 CA         33.0220   -0.1070  -13.7070 C.3       6 GLP5        0.0000 
     27 CA         31.7120    0.4780  -15.5125 C.3       3 GLC5        0.0000 
     28 CA         31.4070    0.1140  -17.3860 C.3       9 GLL5        0.0000 
     29 CA         32.0170    0.8420  -13.6390 C.3       6 GLP5        0.0000 
     30 CA         30.4395    1.4400  -16.8300 C.3       3 GLC5        0.0000 
     31 CA         29.4720    2.7660  -16.2740 C.3       6 GLP5        0.0000 
     32 CA         29.3515   -2.1540  -17.6500 C.3       3 GLC5        0.0000 
     33 CA         29.7810   -0.5410  -19.1380 C.3       9 GLL5        0.0000 
     34 CA         28.9220   -3.7670  -16.1620 C.3       6 GLP5        0.0000 
     35 CA         29.6265    1.1125  -17.7060 C.3       3 GLC5        0.0000 
     36 CA         28.2340   -0.0220  -18.9930 C.3       3 GLC5        0.0000 
     37 CA         26.6870    0.4970  -18.8480 C.3       6 GLP5        0.0000 
     38 CA         28.8055   -0.5035  -20.7400 C.3       3 GLC5        0.0000 
     39 CA         27.8300   -0.4660  -22.3420 C.3       6 GLP5        0.0000 
     40 CA         30.9210    2.4345  -20.2050 C.3       3 GLC5        0.0000 
     41 CA         30.2460    1.6850  -18.8080 C.3       9 GLL5        0.0000 
     42 CA         31.5960    3.1840  -21.6020 C.3       6 GLP5        0.0000 
     43 CA         29.8590    2.2255  -17.5410 C.3       3 GLC5        0.0000 
     44 CA         28.4665    1.0910  -18.8280 C.3       3 GLC5        0.0000 
     45 CA         32.9950    0.4790  -21.4865 C.3       3 GLC5        0.0000 
     46 CA         31.9530    0.2300  -19.7300 C.3       9 GLL5        0.0000 
     47 CA         34.0370    0.7280  -23.2430 C.3       6 GLP5        0.0000 
     48 CA         31.7745    1.7070  -20.6660 C.3       3 GLC5        0.0000 
     49 CA         31.6470   -4.8422  -12.2148 C.3       3 GLC5        0.0000 
     50 CA         32.3340   -4.6170  -10.9090 C.3       6 GLP5        0.0000 
     51 CA         38.8770   -4.3042  -19.3590 C.3       3 GLC5        0.0000 
     52 CA         36.6020   -4.3480  -19.9750 C.3       9 GLL5        0.0000 
     53 CA         40.6300   -3.8590  -18.3570 C.3       6 GLP5        0.0000 
     54 CA         30.3690   -3.8333  -17.4017 C.3       3 GLC5        0.0000 
     55 CA         31.9490   -4.6430  -18.5370 C.3       9 GLL5        0.0000 
     56 CA         30.3825   -2.8010  -16.7432 C.3       3 GLC5        0.0000 
     57 CA         32.2960   -2.2900  -17.7110 C.3       9 GLL5        0.0000 
@<TRIPOS>BOND
@<TRIPOS>SUBSTRUCTURE
     1 ALC1        6 GROUP        1 X    ALC  0     ROOT ALC X 1
     2 ASC3        1 GROUP        1 X    ASC  0     **** ASC X 3
     3 GLC5       11 GROUP        1 X    GLC  0     **** GLC X 6
     4 ALP1        8 GROUP        1 Y    ALP  0     ROOT ALP Y 8
     5 ASP3        3 GROUP        1 Y    ASP  0     **** ASP Y 10
     6 GLP5       13 GROUP        1 Y    GLP  0     **** GLP Y 13
     7 ALL1        7 GROUP        1 Z    ALL  0     ROOT ALL Z 15
     8 ASL3        2 GROUP        1 Z    ASL  0     **** ASL Z 17
     9 GLL5       12 GROUP        1 Z    GLL  0     **** GLL Z 20
@<TRIPOS>SET

