#    Name: 4igq_THR_GLN_M3L_1_ligand
#    Modification time : Tue Mar 25 03:56:30 2014

@<TRIPOS>MOLECULE
4igq_THR_GLN_M3L_1_ligand
   65    64     3     0     0
SMALL
NO_CHARGES


@<TRIPOS>ATOM
      1 N          33.0250   -6.6710  -14.0900 N.4       1 THR3        0.0000
      2 CA         32.0240   -5.9490  -14.8720 C.3       1 THR3        0.0000
      3 C          32.5300   -5.2970  -16.1460 C.2       1 THR3        0.0000
      4 O          33.7340   -5.2540  -16.4190 O.2       1 THR3        0.0000
      5 CB         31.3730   -4.7990  -14.0710 C.3       1 THR3        0.0000
      6 OG1        32.3880   -3.9470  -13.5240 O.3       1 THR3        0.0000
      7 CG2        30.5470   -5.3360  -12.9700 C.3       1 THR3        0.0000
      8 HA         31.1945   -6.6127  -15.1573 H         1 THR3        0.0000
      9 HB         30.7410   -4.2458  -14.7550 H         1 THR3        0.0000
     10 HNCA       33.4402   -7.4146  -14.6141 H         1 THR3        0.0000
     11 H          33.7680   -6.0711  -13.7933 H         1 THR3        0.0000
     12 H          32.6301   -7.0779  -13.2663 H         1 THR3        0.0000
     13 HG21       31.0888   -5.8834  -12.3322 H         1 THR3        0.0000
     14 HG22       30.1172   -4.6063  -12.4382 H         1 THR3        0.0000
     15 HG23       29.8122   -5.9232  -13.3093 H         1 THR3        0.0000
     16 HG1        33.1055   -4.5685  -13.2094 H         1 THR3        0.0000
     17 N          34.4150   -4.2300  -19.0150 N.am      2 GLN5        0.0000
     18 CA         35.3430   -5.1380  -19.5980 C.3       2 GLN5        0.0000
     19 C          35.7330   -6.3950  -18.8030 C.2       2 GLN5        0.0000
     20 O          36.4970   -6.3330  -17.8340 O.2       2 GLN5        0.0000
     21 CB         36.6020   -4.3480  -19.9750 C.3       2 GLN5        0.0000
     22 CG         37.6460   -5.1510  -20.7470 C.3       2 GLN5        0.0000
     23 CD         38.7940   -4.2980  -21.2480 C.2       2 GLN5        0.0000
     24 OE1        38.7770   -3.0750  -21.1020 O.2       2 GLN5        0.0000
     25 NE2        39.7980   -4.9340  -21.8460 N.am      2 GLN5        0.0000
     26 HNCA       34.5019   -3.3811  -18.8200 H         2 GLN5        0.0000
     27 HA         34.9410   -5.4983  -20.5853 H         2 GLN5        0.0000
     28 H          35.2750   -7.2537  -19.1925 H         2 GLN5        0.0000
     29 HB2        37.0626   -3.9542  -19.0519 H         2 GLN5        0.0000
     30 HB3        36.3035   -3.4730  -20.5790 H         2 GLN5        0.0000
     31 HG2        37.1574   -5.6409  -21.6011 H         2 GLN5        0.0000
     32 HG3        38.0395   -5.9429  -20.0942 H         2 GLN5        0.0000
     33 HE21       40.5317   -4.3577  -22.2060 H         2 GLN5        0.0000
     34 HE22       39.7284   -5.9309  -21.8815 H         2 GLN5        0.0000
     35 N          31.8500   -4.9150  -17.1320 N.am      3 M3L4        0.0000
     36 CA         31.9490   -4.6430  -18.5370 C.3       3 M3L4        0.0000
     37 CB         31.6830   -3.1560  -18.7460 C.3       3 M3L4        0.0000
     38 CG         32.2960   -2.2900  -17.7110 C.3       3 M3L4        0.0000
     39 CD         31.3900   -1.3800  -16.9380 C.3       3 M3L4        0.0000
     40 CE         31.4070    0.1140  -17.3860 C.3       3 M3L4        0.0000
     41 NZ         30.8400    0.3400  -18.7370 N.4       3 M3L4        0.0000
     42 C          33.3360   -5.1160  -18.8560 C.2       3 M3L4        0.0000
     43 O          33.6330   -6.2960  -18.7520 O.2       3 M3L4        0.0000
     44 CM1        29.7810   -0.5410  -19.1380 C.3       3 M3L4        0.0000
     45 CM2        30.2460    1.6850  -18.8080 C.3       3 M3L4        0.0000
     46 CM3        31.9530    0.2300  -19.7300 C.3       3 M3L4        0.0000
     47 H          30.7075   -4.6860  -16.8372 H         3 M3L4        0.0000
     48 H          31.2367   -5.2284  -19.0669 H         3 M3L4        0.0000
     49 H          30.5878   -2.9994  -18.7695 H         3 M3L4        0.0000
     50 H          32.0604   -2.8733  -19.7471 H         3 M3L4        0.0000
     51 H          33.1037   -1.6647  -18.1877 H         3 M3L4        0.0000
     52 H          32.8583   -2.9363  -16.9783 H         3 M3L4        0.0000
     53 H          31.6534   -1.4092  -15.8620 H         3 M3L4        0.0000
     54 H          30.3438   -1.7384  -17.0094 H         3 M3L4        0.0000
     55 H          32.4539    0.4606  -17.3432 H         3 M3L4        0.0000
     56 H          30.8482    0.6925  -16.6305 H         3 M3L4        0.0000
     57 H          30.0765   -1.4963  -19.1483 H         3 M3L4        0.0000
     58 H          28.9963   -0.4835  -18.5208 H         3 M3L4        0.0000
     59 H          29.4478   -0.3273  -20.0563 H         3 M3L4        0.0000
     60 H          30.9231    2.3998  -18.6330 H         3 M3L4        0.0000
     61 H          29.8509    1.8695  -19.7079 H         3 M3L4        0.0000
     62 H          29.5143    1.8038  -18.1368 H         3 M3L4        0.0000
     63 H          32.6699    0.9063  -19.5607 H         3 M3L4        0.0000
     64 H          32.3871   -0.6704  -19.7030 H         3 M3L4        0.0000
     65 H          31.6310    0.3722  -20.6660 H         3 M3L4        0.0000
@<TRIPOS>BOND
     1    2    1 1
     2   10    1 1
     3   11    1 1
     4   12    1 1
     5    3    2 1
     6    5    2 1
     7    8    2 1
     8    4    3 2
     9    6    5 1
    10    7    5 1
    11    9    5 1
    12   16    6 1
    13   13    7 1
    14   14    7 1
    15   15    7 1
    16   18   17 1
    17   26   17 1
    18   19   18 1
    19   21   18 1
    20   27   18 1
    21   20   19 2
    22   28   19 1
    23   22   21 1
    24   29   21 1
    25   30   21 1
    26   23   22 1
    27   31   22 1
    28   32   22 1
    29   24   23 2
    30   25   23 am
    31   33   25 1
    32   34   25 1
    33   36   35 1
    34   47   35 1
    35   37   36 1
    36   42   36 1
    37   48   36 1
    38   38   37 1
    39   49   37 1
    40   50   37 1
    41   39   38 1
    42   51   38 1
    43   52   38 1
    44   40   39 1
    45   53   39 1
    46   54   39 1
    47   41   40 1
    48   55   40 1
    49   56   40 1
    50   44   41 1
    51   45   41 1
    52   46   41 1
    53   43   42 2
    54   57   44 1
    55   58   44 1
    56   59   44 1
    57   60   45 1
    58   61   45 1
    59   62   45 1
    60   63   46 1
    61   64   46 1
    62   65   46 1
    63   35    3 1 
    64   42   17 am
@<TRIPOS>SUBSTRUCTURE
     1 THR3        1 RESIDUE
     2 GLN5       17 RESIDUE
     3 M3L4       35 GROUP
@<TRIPOS>SET

