#    Name: 4bw9_ANP_1_INTS_M
#    Modification time : Tue Mar 25 08:29:32 2014

@<TRIPOS>MOLECULE
4bw9_ANP_1_INTS_M
   81     0    18     0     0
SMALL
NO_CHARGES


@<TRIPOS>ATOM
      1 CA         85.1675  -31.3275  -11.2150 C.3       6 GLC5        0.0000 
      2 CA         83.7070  -32.1220   -9.8730 C.3      18 GLL5        0.0000 
      3 CA         86.6280  -30.5330  -12.5570 C.3      12 GLP5        0.0000 
      4 CA         83.3050  -33.9400   -9.8185 C.3       6 GLC5        0.0000 
      5 CA         82.9030  -35.7580   -9.7640 C.3      12 GLP5        0.0000 
      6 CA         85.4875  -31.7955   -9.0405 C.3       6 GLC5        0.0000 
      7 CA         87.2680  -31.4690   -8.2080 C.3      12 GLP5        0.0000 
      8 N          85.1650  -32.5965  -11.8805 N.am      2 SEC2        0.0000 
      9 N          83.8680  -32.2480  -11.1840 N.am     14 SEL2        0.0000 
     10 N          86.4620  -32.9450  -12.5770 N.am      8 SEP2        0.0000 
     11 Zn         76.5265  -25.3455  -11.4300 Zn        5 ZIC7        0.0000 
     12 Zn         77.0330  -25.6490  -12.1120 Zn       17 ZIL7        0.0000 
     13 Zn         76.0200  -25.0420  -10.7480 Zn       11 ZIP7        0.0000 
     14 N          79.9635  -30.0685   -5.7785 N.am      2 SEC2        0.0000 
     15 N          80.4560  -28.8610   -6.8290 N.am     14 SEL2        0.0000 
     16 N          79.4710  -31.2760   -4.7280 N.am      8 SEP2        0.0000 
     17 O          79.8325  -28.3755   -5.5685 O.2       1 ALC1        0.0000 
     18 O          80.4560  -28.8610   -6.8290 O.2      13 ALL1        0.0000 
     19 O          79.2090  -27.8900   -4.3080 O.2       7 ALP1        0.0000 
     20 NZ         82.3040  -26.1130  -10.4425 N.4       4 LYC4        0.0000 
     21 NZ         82.0540  -25.6550  -11.8860 N.4      16 LYL4        0.0000 
     22 NZ         83.4760  -27.4510   -9.3620 N.4      10 LYP4        0.0000 
     23 N          82.3040  -26.1130  -10.4425 N.am      2 SEC2        0.0000 
     24 N          82.0540  -25.6550  -11.8860 N.am     14 SEL2        0.0000 
     25 N          82.5540  -26.5710   -8.9990 N.am      8 SEP2        0.0000 
     26 N          82.9165  -26.6210  -11.2690 N.am      2 SEC2        0.0000 
     27 N          83.7790  -27.5870  -10.6520 N.am      8 SEP2        0.0000 
     28 O          78.1600  -26.1915   -8.4425 O.2       1 ALC1        0.0000 
     29 O          78.5070  -27.2060   -7.5050 O.2      13 ALL1        0.0000 
     30 O          77.8130  -25.1770   -9.3800 O.2       7 ALP1        0.0000 
     31 CA         78.9410  -26.1440   -8.0830 C.3       6 GLC5        0.0000 
     32 CA         78.7080  -28.3060   -8.3650 C.3      18 GLL5        0.0000 
     33 CA         79.1740  -23.9820   -7.8010 C.3      12 GLP5        0.0000 
     34 CA         77.8330  -27.2960   -6.5765 C.3       6 GLC5        0.0000 
     35 CA         76.9580  -26.2860   -4.7880 C.3      12 GLP5        0.0000 
     36 CA         77.5370  -30.0585   -5.9450 C.3       6 GLC5        0.0000 
     37 CA         77.7790  -29.4400   -8.0350 C.3      18 GLL5        0.0000 
     38 CA         77.2950  -30.6770   -3.8550 C.3      12 GLP5        0.0000 
     39 Zn         75.9595  -26.0205  -10.5075 Zn        5 ZIC7        0.0000 
     40 Zn         75.8990  -26.9990  -10.2670 Zn       17 ZIL7        0.0000 
     41 N          77.5765  -29.0630  -12.8690 N.am      2 SEC2        0.0000 
     42 N          77.6840  -27.9900  -11.6780 N.am     14 SEL2        0.0000 
     43 N          77.4690  -30.1360  -14.0600 N.am      8 SEP2        0.0000 
     44 NZ         75.5900  -30.0580  -12.6040 N.4       4 LYC4        0.0000 
     45 NZ         75.3420  -28.6840  -12.1080 N.4      16 LYL4        0.0000 
     46 NZ         76.9210  -31.3340  -13.8380 N.4      10 LYP4        0.0000 
     47 N          76.4055  -29.4100  -13.0840 N.am      2 SEC2        0.0000 
     48 N          75.3420  -28.6840  -12.1080 N.am     14 SEL2        0.0000 
     49 N          75.5900  -30.0580  -12.6040 N.am      2 SEC2        0.0000 
     50 N          75.8380  -31.4320  -13.1000 N.am      8 SEP2        0.0000 
     51 Zn         79.1340  -27.1910  -14.4970 Zn        5 ZIC7        0.0000 
     52 Zn         78.3560  -27.0360  -13.8170 Zn       17 ZIL7        0.0000 
     53 Zn         79.9120  -27.3460  -15.1770 Zn       11 ZIP7        0.0000 
     54 Zn         80.3915  -26.9790  -14.5280 Zn        5 ZIC7        0.0000 
     55 Zn         80.8710  -26.6120  -13.8790 Zn       17 ZIL7        0.0000 
     56 N          82.2380  -27.0210  -13.9030 N.am      2 SEC2        0.0000 
     57 N          80.8710  -26.6120  -13.8790 N.am     14 SEL2        0.0000 
     58 N          83.6050  -27.4300  -13.9270 N.am      8 SEP2        0.0000 
     59 CA         81.9460  -28.5370   -7.6040 C.3       6 GLC5        0.0000 
     60 CA         80.0680  -28.9210   -8.1810 C.3      18 GLL5        0.0000 
     61 CA         83.8240  -28.1530   -7.0270 C.3      12 GLP5        0.0000 
     62 CA         79.7295  -32.1575   -9.3045 C.3       6 GLC5        0.0000 
     63 CA         79.8600  -30.3700   -8.4850 C.3      18 GLL5        0.0000 
     64 CA         79.5990  -33.9450  -10.1240 C.3      12 GLP5        0.0000 
     65 O          82.4900  -31.4435  -14.6480 O.2       1 ALC1        0.0000 
     66 O          83.1020  -32.0020  -13.3700 O.2      13 ALL1        0.0000 
     67 O          81.8780  -30.8850  -15.9260 O.2       7 ALP1        0.0000 
     68 O          83.8380  -33.1760  -13.6155 O.2       1 ALC1        0.0000 
     69 O          84.5740  -34.3500  -13.8610 O.2       7 ALP1        0.0000 
     70 OD1        78.9865  -24.5915  -10.8295 O.co2     3 ASC3        0.0000 
     71 OD1        79.5620  -26.0460  -11.7470 O.co2    15 ASL3        0.0000 
     72 OD1        78.4110  -23.1370   -9.9120 O.co2     9 ASP3        0.0000 
     73 OD1        78.6875  -25.6115  -10.5635 O.co2     3 ASC3        0.0000 
     74 OD1        77.8130  -25.1770   -9.3800 O.co2     9 ASP3        0.0000 
     75 CA         83.1230  -30.1685  -12.8257 C.3       6 GLC5        0.0000 
     76 CA         81.6910  -31.2910  -11.5030 C.3      18 GLL5        0.0000 
     77 CA         83.9380  -28.7580  -13.8750 C.3      12 GLP5        0.0000 
     78 CA         76.5440  -31.2238   -8.0598 C.3       6 GLC5        0.0000 
     79 CA         75.9930  -33.0870   -7.7650 C.3      12 GLP5        0.0000 
     80 CA         80.2405  -30.8998   -6.7590 C.3       6 GLC5        0.0000 
     81 CA         80.5170  -32.1540   -5.1850 C.3      12 GLP5        0.0000 
@<TRIPOS>BOND
@<TRIPOS>SUBSTRUCTURE
     1 ALC1       17 GROUP        1 X    ALC  0     ROOT ALC X 1
     2 SEC2        8 GROUP        1 X    SEC  0     **** SEC X 2
     3 ASC3       70 GROUP        1 X    ASC  0     **** ASC X 3
     4 LYC4       20 GROUP        1 X    LYC  0     **** LYC X 4
     5 ZIC7       11 GROUP        1 X    ZIC  0     **** ZIC X 5
     6 GLC5        1 GROUP        1 X    GLC  0     **** GLC X 6
     7 ALP1       19 GROUP        1 Y    ALP  0     ROOT ALP Y 8
     8 SEP2       10 GROUP        1 Y    SEP  0     **** SEP Y 9
     9 ASP3       72 GROUP        1 Y    ASP  0     **** ASP Y 10
    10 LYP4       22 GROUP        1 Y    LYP  0     **** LYP Y 11
    11 ZIP7       13 GROUP        1 Y    ZIP  0     **** ZIP Y 12
    12 GLP5        3 GROUP        1 Y    GLP  0     **** GLP Y 13
    13 ALL1       18 GROUP        1 Z    ALL  0     ROOT ALL Z 15
    14 SEL2        9 GROUP        1 Z    SEL  0     **** SEL Z 16
    15 ASL3       71 GROUP        1 Z    ASL  0     **** ASL Z 17
    16 LYL4       21 GROUP        1 Z    LYL  0     **** LYL Z 18
    17 ZIL7       12 GROUP        1 Z    ZIL  0     **** ZIL Z 19
    18 GLL5        2 GROUP        1 Z    GLL  0     **** GLL Z 20
@<TRIPOS>SET

