#    Name: 4bw9_ANP_1_ligand
#    Modification time : Tue Mar 25 08:29:32 2014

@<TRIPOS>MOLECULE
4bw9_ANP_1_ligand
   43    45     1     0     0
SMALL
NO_CHARGES


@<TRIPOS>ATOM
      1 C2         83.7070  -32.1220   -9.8730 C.ar      1 ANP900      0.0000 
      2 C4         81.5910  -31.1880  -10.0570 C.ar      1 ANP900      0.0000 
      3 C5         81.6910  -31.2910  -11.5030 C.ar      1 ANP900      0.0000 
      4 C6         82.9250  -31.8670  -12.0500 C.ar      1 ANP900      0.0000 
      5 C8         79.7920  -30.4310  -10.9640 C.2       1 ANP900      0.0000 
      6 N1         83.8680  -32.2480  -11.1840 N.ar      1 ANP900      0.0000 
      7 O1B        77.0330  -25.6490  -12.1120 O.co2     1 ANP900      0.0000 
      8 O2'        80.4560  -28.8610   -6.8290 O.3       1 ANP900      0.0000 
      9 O1G        82.0540  -25.6550  -11.8860 O.co2     1 ANP900      0.0000 
     10 O3'        78.5070  -27.2060   -7.5050 O.3       1 ANP900      0.0000 
     11 C3'        78.7080  -28.3060   -8.3650 C.3       1 ANP900      0.0000 
     12 C4'        77.7790  -29.4400   -8.0350 C.3       1 ANP900      0.0000 
     13 C5'        76.4110  -29.2810   -8.6740 C.3       1 ANP900      0.0000 
     14 O5'        76.4880  -29.4280  -10.0750 O.3       1 ANP900      0.0000 
     15 PA         76.2460  -28.2100  -11.0440 P.3       1 ANP900      0.0000 
     16 O1A        75.8990  -26.9990  -10.2670 O.co2     1 ANP900      0.0000 
     17 O3A        77.6840  -27.9900  -11.6780 O.3       1 ANP900      0.0000 
     18 O2A        75.3420  -28.6840  -12.1080 O.co2     1 ANP900      0.0000 
     19 O2B        78.3560  -27.0360  -13.8170 O.co2     1 ANP900      0.0000 
     20 O2G        80.8710  -26.6120  -13.8790 O.co2     1 ANP900      0.0000 
     21 O3G        80.5660  -24.2350  -13.2180 O.co2     1 ANP900      0.0000 
     22 C2'        80.0680  -28.9210   -8.1810 C.3       1 ANP900      0.0000 
     23 C1'        79.8600  -30.3700   -8.4850 C.3       1 ANP900      0.0000 
     24 O4'        78.4620  -30.5760   -8.5280 O.3       1 ANP900      0.0000 
     25 N9         80.4110  -30.6570   -9.8110 N.pl3     1 ANP900      0.0000 
     26 N7         80.5560  -30.8090  -11.9970 N.2       1 ANP900      0.0000 
     27 N6         83.1020  -32.0020  -13.3700 N.pl3     1 ANP900      0.0000 
     28 N3         82.6160  -31.6130   -9.3080 N.ar      1 ANP900      0.0000 
     29 PB         78.0920  -26.6450  -12.4170 P.3       1 ANP900      0.0000 
     30 N3B        79.5620  -26.0460  -11.7470 N.4       1 ANP900      0.0000 
     31 PG         80.8810  -25.6130  -12.7750 P.3       1 ANP900      0.0000 
     32 H          84.5029  -32.4496   -9.2300 H         1 ANP900      0.0000 
     33 H          78.8909  -30.0380  -11.0541 H         1 ANP900      0.0000 
     34 H          78.5876  -28.0703   -9.4006 H         1 ANP900      0.0000 
     35 H          77.6794  -29.4905   -6.9659 H         1 ANP900      0.0000 
     36 H          76.0212  -28.2890   -8.3849 H         1 ANP900      0.0000 
     37 H          75.7406  -30.0306   -8.2176 H         1 ANP900      0.0000 
     38 H          80.7488  -28.5149   -8.8483 H         1 ANP900      0.0000 
     39 H          80.3279  -30.9573   -7.7436 H         1 ANP900      0.0000 
     40 H          82.6444  -31.3253  -13.9468 H         1 ANP900      0.0000 
     41 H          83.6759  -32.7675  -13.6610 H         1 ANP900      0.0000 
     42 H          79.9766  -28.0660   -6.4574 H         1 ANP900      0.0000 
     43 H          78.2258  -26.4568   -8.1047 H         1 ANP900      0.0000 
@<TRIPOS>BOND
     1    6    1 ar   
     2   28    1 ar   
     3   32    1 1    
     4    3    2 ar   
     5   25    2 1    
     6   28    2 ar   
     7    4    3 ar   
     8   26    3 1    
     9    6    4 ar   
    10   27    4 1    
    11   25    5 1    
    12   26    5 2    
    13   33    5 1    
    14   29    7 ar   
    15   22    8 1    
    16   42    8 1    
    17   31    9 ar   
    18   11   10 1    
    19   43   10 1    
    20   12   11 1    
    21   22   11 1    
    22   34   11 1    
    23   13   12 1    
    24   24   12 1    
    25   35   12 1    
    26   14   13 1    
    27   36   13 1    
    28   37   13 1    
    29   15   14 1    
    30   16   15 ar   
    31   17   15 1    
    32   18   15 ar   
    33   29   17 1    
    34   29   19 ar   
    35   31   20 ar   
    36   31   21 ar   
    37   23   22 1    
    38   38   22 1    
    39   24   23 1    
    40   25   23 1    
    41   39   23 1    
    42   40   27 1    
    43   41   27 1    
    44   30   29 1    
    45   31   30 1    
@<TRIPOS>SUBSTRUCTURE
     1 ANP900      1 GROUP   
@<TRIPOS>SET

