#    Name: 1d3h_A26_1_INTS_M
#    Modification time : Mon Mar 24 21:23:15 2014

@<TRIPOS>MOLECULE
1d3h_A26_1_INTS_M
   55     0     6     0     0
SMALL
NO_CHARGES


@<TRIPOS>ATOM
      1 CA         48.6500   44.1850   -2.6665 C.3       2 GLC5        0.0000 
      2 CA         50.6520   43.8260   -2.2890 C.3       6 GLL5        0.0000 
      3 CA         46.6480   44.5440   -3.0440 C.3       4 GLP5        0.0000 
      4 CA         51.9180   47.8825    2.5940 C.3       2 GLC5        0.0000 
      5 CA         52.0500   46.6020    1.0900 C.3       6 GLL5        0.0000 
      6 CA         51.7860   49.1630    4.0980 C.3       4 GLP5        0.0000 
      7 CA         52.4120   48.5550    0.3895 C.3       2 GLC5        0.0000 
      8 CA         52.7740   50.5080   -0.3110 C.3       4 GLP5        0.0000 
      9 CA         50.1140   48.5015   -1.3030 C.3       2 GLC5        0.0000 
     10 CA         50.9500   47.3820   -0.0700 C.3       6 GLL5        0.0000 
     11 CA         49.2780   49.6210   -2.5360 C.3       4 GLP5        0.0000 
     12 CA         48.3150   38.1285   -5.1930 C.3       2 GLC5        0.0000 
     13 CA         47.7490   39.7500   -4.1330 C.3       6 GLL5        0.0000 
     14 CA         48.8810   36.5070   -6.2530 C.3       4 GLP5        0.0000 
     15 CA         46.3285   39.3605   -5.8200 C.3       2 GLC5        0.0000 
     16 CA         44.9080   38.9710   -7.5070 C.3       4 GLP5        0.0000 
     17 CA         46.9170   41.4320   -3.5715 C.3       2 GLC5        0.0000 
     18 CA         46.0850   43.1140   -3.0100 C.3       4 GLP5        0.0000 
     19 CA         47.4340   40.1740    0.2195 C.3       2 GLC5        0.0000 
     20 CA         48.0610   39.3550   -1.6810 C.3       6 GLL5        0.0000 
     21 CA         46.8070   40.9930    2.1200 C.3       4 GLP5        0.0000 
     22 N          48.1050   39.2550    0.7070 N.am      1 SEC2        0.0000 
     23 N          48.6190   39.7530   -0.5020 N.am      5 SEL2        0.0000 
     24 N          47.5910   38.7570    1.9160 N.am      3 SEP2        0.0000 
     25 CA         49.1070   37.7010   -1.1685 C.3       2 GLC5        0.0000 
     26 CA         47.3010   38.0580   -1.5100 C.3       6 GLL5        0.0000 
     27 CA         50.9130   37.3440   -0.8270 C.3       4 GLP5        0.0000 
     28 CA         46.3690   36.5140   -2.2290 C.3       2 GLC5        0.0000 
     29 CA         45.4370   34.9700   -2.9480 C.3       4 GLP5        0.0000 
     30 CA         47.0225   38.8640    0.5035 C.3       2 GLC5        0.0000 
     31 CA         46.7440   39.6700    2.5170 C.3       4 GLP5        0.0000 
     32 CA         46.1290   37.1680   -0.0225 C.3       2 GLC5        0.0000 
     33 CA         44.9570   36.2780    1.4650 C.3       4 GLP5        0.0000 
     34 CA         52.0128   43.1500   -0.0647 C.3       2 GLC5        0.0000 
     35 CA         50.1810   43.2660    0.0200 C.3       6 GLL5        0.0000 
     36 CA         53.5940   42.4220   -0.3550 C.3       4 GLP5        0.0000 
     37 CA         48.1737   42.8098   -1.1322 C.3       2 GLC5        0.0000 
     38 CA         46.1820   42.5270   -1.6150 C.3       4 GLP5        0.0000 
     39 CA         49.5953   45.9510    0.8598 C.3       2 GLC5        0.0000 
     40 CA         50.6820   44.4900    0.4310 C.3       6 GLL5        0.0000 
     41 CA         48.2560   46.9680    1.7740 C.3       4 GLP5        0.0000 
     42 CA         52.3852   43.8092   -0.7807 C.3       2 GLC5        0.0000 
     43 CA         51.1870   45.3780   -0.5400 C.3       6 GLL5        0.0000 
     44 CA         50.3800   45.3888   -3.5520 C.3       2 GLC5        0.0000 
     45 CA         51.1660   45.0150   -1.8730 C.3       6 GLL5        0.0000 
     46 CA         49.8510   46.3570   -5.0230 C.3       4 GLP5        0.0000 
     47 CA         51.9975   42.8972   -1.0795 C.3       2 GLC5        0.0000 
     48 CA         49.8434   46.9922    0.9859 C.3       2 GLC5        0.0000 
     49 CA         51.6864   48.6920   -0.8355 C.3       2 GLC5        0.0000 
     50 CA         51.7650   50.2820   -1.4050 C.3       4 GLP5        0.0000 
     51 CA         49.8830   39.7837   -4.5150 C.3       2 GLC5        0.0000 
     52 CA         48.3010   40.0430   -2.8350 C.3       6 GLL5        0.0000 
     53 CA         51.7410   39.6710   -5.5460 C.3       4 GLP5        0.0000 
     54 CA         49.5470   38.5215   -1.5425 C.3       2 GLC5        0.0000 
     55 CA         47.1815   41.1130   -1.9365 C.3       2 GLC5        0.0000 
@<TRIPOS>BOND
@<TRIPOS>SUBSTRUCTURE
     1 SEC2       22 GROUP        1 X    SEC  0     ROOT SEC X 2
     2 GLC5        1 GROUP        1 X    GLC  0     **** GLC X 6
     3 SEP2       24 GROUP        1 Y    SEP  0     ROOT SEP Y 9
     4 GLP5        3 GROUP        1 Y    GLP  0     **** GLP Y 13
     5 SEL2       23 GROUP        1 Z    SEL  0     ROOT SEL Z 16
     6 GLL5        2 GROUP        1 Z    GLL  0     **** GLL Z 20
@<TRIPOS>SET

