#    Name: 1d3h_A26_1_ligand
#    Modification time : Mon Mar 24 21:23:15 2014

@<TRIPOS>MOLECULE
1d3h_A26_1_ligand
   30    30     1     0     0
SMALL
NO_CHARGES


@<TRIPOS>ATOM
      1 C1         50.1810   43.2660    0.0200 C.ar      1 A26397      0.0000 
      2 C2         50.6820   44.4900    0.4310 C.ar      1 A26397      0.0000 
      3 C3         51.1870   45.3780   -0.5400 C.ar      1 A26397      0.0000 
      4 C4         51.1660   45.0150   -1.8730 C.ar      1 A26397      0.0000 
      5 C5         50.6520   43.8260   -2.2890 C.ar      1 A26397      0.0000 
      6 C6         50.1500   42.9190   -1.3190 C.ar      1 A26397      0.0000 
      7 C11        51.7730   46.7000   -0.1590 C.3       1 A26397      0.0000 
      8 F12        52.7580   46.9440   -0.7650 F         1 A26397      0.0000 
      9 F13        52.0500   46.6020    1.0900 F         1 A26397      0.0000 
     10 F14        50.9500   47.3820   -0.0700 F         1 A26397      0.0000 
     11 N15        49.6420   41.7010   -1.6210 N.am      1 A26397      0.0000 
     12 C16        49.1460   41.2830   -2.7790 C.2       1 A26397      0.0000 
     13 C17        48.3010   40.0430   -2.8350 C.3       1 A26397      0.0000 
     14 C18        47.7490   39.7500   -4.1330 C.1       1 A26397      0.0000 
     15 C19        48.0610   39.3550   -1.6810 C.3       1 A26397      0.0000 
     16 O20        48.6190   39.7530   -0.5020 O.3       1 A26397      0.0000 
     17 C21        47.3010   38.0580   -1.5100 C.3       1 A26397      0.0000 
     18 O25        49.2510   41.9160   -3.8450 O.2       1 A26397      0.0000 
     19 N26        47.1810   39.2610   -5.0110 N.1       1 A26397      0.0000 
     20 H          49.8227   42.5978    0.7293 H         1 A26397      0.0000 
     21 H          50.6903   44.7540    1.4140 H         1 A26397      0.0000 
     22 H          51.5606   45.6829   -2.5789 H         1 A26397      0.0000 
     23 H          50.6157   43.5651   -3.2754 H         1 A26397      0.0000 
     24 H          49.6450   40.9721   -0.7954 H         1 A26397      0.0000 
     25 H          49.4707   39.2832   -3.1305 H         1 A26397      0.0000 
     26 H          46.8790   40.0841   -1.3846 H         1 A26397      0.0000 
     27 H          47.7176   37.3121   -2.0297 H         1 A26397      0.0000 
     28 H          47.2717   37.7680   -0.5534 H         1 A26397      0.0000 
     29 H          46.3540   38.1387   -1.8209 H         1 A26397      0.0000 
     30 H          49.3495   39.0932   -0.3258 H         1 A26397      0.0000 
@<TRIPOS>BOND
     1    2    1 ar   
     2    6    1 ar   
     3   20    1 1    
     4    3    2 ar   
     5   21    2 1    
     6    4    3 ar   
     7    7    3 1    
     8    5    4 ar   
     9   22    4 1    
    10    6    5 ar   
    11   23    5 1    
    12   11    6 1    
    13    8    7 1    
    14    9    7 1    
    15   10    7 1    
    16   12   11 am   
    17   24   11 1    
    18   13   12 1    
    19   18   12 2    
    20   14   13 1    
    21   15   13 1    
    22   25   13 1    
    23   19   14 3    
    24   16   15 1    
    25   17   15 1    
    26   26   15 1    
    27   30   16 1    
    28   27   17 1    
    29   28   17 1    
    30   29   17 1    
@<TRIPOS>SUBSTRUCTURE
     1 A26397      1 GROUP   
@<TRIPOS>SET

