#    Name: 3sxr_1N1_2_INTS_M
#    Modification time : Mon Mar 24 18:50:02 2014

@<TRIPOS>MOLECULE
3sxr_1N1_2_INTS_M
   78     0     9     0     0
SMALL
NO_CHARGES


@<TRIPOS>ATOM
      1 CA          9.6845   42.7320   19.8250 C.3       3 GLC5        0.0000 
      2 CA          8.1920   41.1760   19.3520 C.3       9 GLL5        0.0000 
      3 CA         11.1770   44.2880   20.2980 C.3       6 GLP5        0.0000 
      4 CA          9.1815   42.0295   17.6980 C.3       3 GLC5        0.0000 
      5 CA         10.1710   42.8830   16.0440 C.3       6 GLP5        0.0000 
      6 CA          6.8850   33.6130   22.0205 C.3       3 GLC5        0.0000 
      7 CA          8.1570   34.0650   20.3730 C.3       9 GLL5        0.0000 
      8 CA          5.6130   33.1610   23.6680 C.3       6 GLP5        0.0000 
      9 CA          9.8055   33.2640   19.4380 C.3       3 GLC5        0.0000 
     10 CA         11.4540   32.4630   18.5030 C.3       6 GLP5        0.0000 
     11 CA          6.8300   38.4210   17.0310 C.3       3 GLC5        0.0000 
     12 CA          7.1660   36.7790   17.8830 C.3       9 GLL5        0.0000 
     13 CA          6.4940   40.0630   16.1790 C.3       6 GLP5        0.0000 
     14 CA          5.3765   44.1230   21.7590 C.3       3 GLC5        0.0000 
     15 CA          4.8710   44.4620   19.7570 C.3       9 GLL5        0.0000 
     16 CA          5.8820   43.7840   23.7610 C.3       6 GLP5        0.0000 
     17 CA          4.8110   43.1395   18.1235 C.3       3 GLC5        0.0000 
     18 CA          4.7510   41.8170   16.4900 C.3       6 GLP5        0.0000 
     19 CA          3.0345   44.6740   18.4260 C.3       3 GLC5        0.0000 
     20 CA          2.7570   43.8560   20.3600 C.3       9 GLL5        0.0000 
     21 CA          3.3120   45.4920   16.4920 C.3       6 GLP5        0.0000 
     22 CA          3.3710   47.0155   18.0795 C.3       3 GLC5        0.0000 
     23 CA          3.4300   48.5390   19.6670 C.3       9 GLL5        0.0000 
     24 O           6.7170   44.9180   18.6620 O.2       1 ALC1        0.0000 
     25 O           6.1940   44.0380   19.5710 O.2       7 ALL1        0.0000 
     26 O           7.2400   45.7980   17.7530 O.2       4 ALP1        0.0000 
     27 N           8.8445   43.5335   18.7985 N.am      2 SEC2        0.0000 
     28 N           7.9210   42.5160   19.2480 N.am      8 SEL2        0.0000 
     29 N           9.7680   44.5510   18.3490 N.am      5 SEP2        0.0000 
     30 CA          5.8210   42.5995   21.9850 C.3       3 GLC5        0.0000 
     31 CA          5.7600   41.4150   20.2090 C.3       9 GLL5        0.0000 
     32 CA          5.6230   40.4945   22.1305 C.3       3 GLC5        0.0000 
     33 CA          5.4860   39.5740   24.0520 C.3       6 GLP5        0.0000 
     34 CA          7.4200   41.2540   21.4470 C.3       3 GLC5        0.0000 
     35 CA          9.0800   41.0930   22.6850 C.3       6 GLP5        0.0000 
     36 CA          5.2555   41.6160   18.3495 C.3       3 GLC5        0.0000 
     37 O           9.5535   38.5090   20.4000 O.2       1 ALC1        0.0000 
     38 O           8.1170   38.2700   20.1960 O.2       7 ALL1        0.0000 
     39 O          10.9900   38.7480   20.6040 O.2       4 ALP1        0.0000 
     40 CA          9.8960   33.7300   22.4085 C.3       3 GLC5        0.0000 
     41 CA          8.4430   34.7910   21.5120 C.3       9 GLL5        0.0000 
     42 CA         11.3490   32.6690   23.3050 C.3       6 GLP5        0.0000 
     43 CA          7.1530   38.3240   23.4560 C.3       3 GLC5        0.0000 
     44 CA          8.8200   37.0740   22.8600 C.3       9 GLL5        0.0000 
     45 CA          8.9500   39.0835   22.7725 C.3       3 GLC5        0.0000 
     46 CA          9.1375   37.8520   24.7710 C.3       3 GLC5        0.0000 
     47 CA          9.4550   38.6300   26.6820 C.3       6 GLP5        0.0000 
     48 CA          7.8775   35.9450   23.9510 C.3       3 GLC5        0.0000 
     49 CA          6.9350   34.8160   25.0420 C.3       6 GLP5        0.0000 
     50 CA         10.2860   36.7500   21.6630 C.3       3 GLC5        0.0000 
     51 CA         11.7520   36.4260   20.4660 C.3       6 GLP5        0.0000 
     52 CA          3.7785   49.1670   17.0510 C.3       3 GLC5        0.0000 
     53 CA          2.6970   49.6400   18.9070 C.3       9 GLL5        0.0000 
     54 CA          4.8600   48.6940   15.1950 C.3       6 GLP5        0.0000 
     55 CA          8.3762   40.9480   21.1482 C.3       3 GLC5        0.0000 
     56 CA          7.0832   40.4330   17.8952 C.3       3 GLC5        0.0000 
     57 CA          9.8630   35.4080   20.1260 C.3       3 GLC5        0.0000 
     58 CA          7.7910   34.7150   19.1990 C.3       9 GLL5        0.0000 
     59 CA          8.0365   32.7445   19.0485 C.3       3 GLC5        0.0000 
     60 CA          8.0990   31.0990   18.3110 C.3       6 GLP5        0.0000 
     61 CA          9.4503   34.7330   18.3508 C.3       3 GLC5        0.0000 
     62 CA         11.1550   34.0540   17.5360 C.3       6 GLP5        0.0000 
     63 CA          9.0815   37.1400   17.6388 C.3       3 GLC5        0.0000 
     64 CA         10.7300   37.8360   16.7700 C.3       6 GLP5        0.0000 
     65 CA          9.8100   36.4513   20.0862 C.3       3 GLC5        0.0000 
     66 CA          7.7000   36.1090   19.1320 C.3       9 GLL5        0.0000 
     67 CA          6.9814   35.6603   16.7906 C.3       3 GLC5        0.0000 
     68 CA          6.5070   35.2250   15.0570 C.3       6 GLP5        0.0000 
     69 CA          4.1430   45.8760   21.8215 C.3       3 GLC5        0.0000 
     70 CA          4.4970   45.8060   19.6530 C.3       9 GLL5        0.0000 
     71 CA          4.4670   45.8110   23.8530 C.3       6 GLP5        0.0000 
     72 CA          3.6122   45.5485   18.1540 C.3       3 GLC5        0.0000 
     73 CA          3.1410   46.0760   19.9270 C.3       9 GLL5        0.0000 
     74 CA          2.8630   43.4350   22.4168 C.3       3 GLC5        0.0000 
     75 CA          3.4430   43.5490   24.2470 C.3       6 GLP5        0.0000 
     76 CA          7.6742   35.1480   23.2625 C.3       3 GLC5        0.0000 
     77 CA          8.3840   36.1690   21.4540 C.3       9 GLL5        0.0000 
     78 CA         10.0828   35.9530   20.9745 C.3       3 GLC5        0.0000 
@<TRIPOS>BOND
@<TRIPOS>SUBSTRUCTURE
     1 ALC1       24 GROUP        1 X    ALC  0     ROOT ALC X 1
     2 SEC2       27 GROUP        1 X    SEC  0     **** SEC X 2
     3 GLC5        1 GROUP        1 X    GLC  0     **** GLC X 6
     4 ALP1       26 GROUP        1 Y    ALP  0     ROOT ALP Y 8
     5 SEP2       29 GROUP        1 Y    SEP  0     **** SEP Y 9
     6 GLP5        3 GROUP        1 Y    GLP  0     **** GLP Y 13
     7 ALL1       25 GROUP        1 Z    ALL  0     ROOT ALL Z 15
     8 SEL2       28 GROUP        1 Z    SEL  0     **** SEL Z 16
     9 GLL5        2 GROUP        1 Z    GLL  0     **** GLL Z 20
@<TRIPOS>SET

