#    Name: 3sxr_1N1_2_ligand
#    Modification time : Mon Mar 24 18:50:02 2014

@<TRIPOS>MOLECULE
3sxr_1N1_2_ligand
   60    63     1     0     0
SMALL
NO_CHARGES


@<TRIPOS>ATOM
      1 C1          8.1920   41.1760   19.3520 C.2       1 1N12        0.0000 
      2 C2          7.1530   40.4300   19.8710 C.2       1 1N12        0.0000 
      3 C3          6.9980   39.0080   20.2350 C.2       1 1N12        0.0000 
      4 N6          1.3940   49.9210   19.5290 N.4       1 1N12        0.0000 
      5 C7          8.1570   34.0650   20.3730 C.ar      1 1N12        0.0000 
      6 C8          7.7910   34.7150   19.1990 C.ar      1 1N12        0.0000 
      7 C9          7.7000   36.1090   19.1320 C.ar      1 1N12        0.0000 
      8 C10         7.1660   36.7790   17.8830 C.3       1 1N12        0.0000 
      9 C11         4.8710   44.4620   19.7570 C.ar      1 1N12        0.0000 
     10 C12         4.4970   45.8060   19.6530 C.ar      1 1N12        0.0000 
     11 C13         3.1410   46.0760   19.9270 C.ar      1 1N12        0.0000 
     12 C14         2.7570   43.8560   20.3600 C.ar      1 1N12        0.0000 
     13 C15         1.8090   42.7860   20.8130 C.3       1 1N12        0.0000 
     14 C16         3.4300   48.5390   19.6670 C.3       1 1N12        0.0000 
     15 C19         1.2750   47.6130   20.3300 C.3       1 1N12        0.0000 
     16 C20         0.6900   51.0140   18.8490 C.3       1 1N12        0.0000 
     17 C21         0.3910   52.1880   19.7600 C.3       1 1N12        0.0000 
     18 N           6.1940   44.0380   19.5710 N.pl3     1 1N12        0.0000 
     19 C           6.7010   42.7780   19.6420 C.2       1 1N12        0.0000 
     20 N1          7.9210   42.5160   19.2480 N.2       1 1N12        0.0000 
     21 S           5.7600   41.4150   20.2090 S.3       1 1N12        0.0000 
     22 N2          8.1170   38.2700   20.1960 N.am      1 1N12        0.0000 
     23 C4          8.0360   36.8440   20.2810 C.ar      1 1N12        0.0000 
     24 C5          8.3840   36.1690   21.4540 C.ar      1 1N12        0.0000 
     25 C6          8.4430   34.7910   21.5120 C.ar      1 1N12        0.0000 
     26 CL          8.8200   37.0740   22.8600 Cl        1 1N12        0.0000 
     27 O           5.9160   38.5830   20.6210 O.2       1 1N12        0.0000 
     28 N3          2.2920   45.1080   20.2980 N.ar      1 1N12        0.0000 
     29 N4          4.0100   43.4870   20.0850 N.ar      1 1N12        0.0000 
     30 N5          2.5990   47.3340   19.7660 N.3       1 1N12        0.0000 
     31 C17         2.6970   49.6400   18.9070 C.3       1 1N12        0.0000 
     32 C18         0.5840   48.7000   19.5390 C.3       1 1N12        0.0000 
     33 O1         -0.5730   51.8550   20.7590 O.3       1 1N12        0.0000 
     34 H           9.0575   40.7732   19.0794 H         1 1N12        0.0000 
     35 H           1.5737   50.2185   20.5765 H         1 1N12        0.0000 
     36 H           8.2138   33.0344   20.3881 H         1 1N12        0.0000 
     37 H           7.5798   34.1553   18.3509 H         1 1N12        0.0000 
     38 H           5.1359   46.5212   19.4047 H         1 1N12        0.0000 
     39 H           4.3662   48.3214   19.1410 H         1 1N12        0.0000 
     40 H           3.6831   48.9176   20.6635 H         1 1N12        0.0000 
     41 H           1.3622   47.9386   21.3726 H         1 1N12        0.0000 
     42 H           0.6509   46.7126   20.3092 H         1 1N12        0.0000 
     43 H          -0.2659   50.6494   18.4265 H         1 1N12        0.0000 
     44 H           1.2887   51.3814   17.9935 H         1 1N12        0.0000 
     45 H           0.0423   53.0265   19.1280 H         1 1N12        0.0000 
     46 H           1.3452   52.5150   20.2147 H         1 1N12        0.0000 
     47 H           6.9017   44.8384   19.3383 H         1 1N12        0.0000 
     48 H           9.0531   38.6911   20.1057 H         1 1N12        0.0000 
     49 H           8.6940   34.3164   22.3829 H         1 1N12        0.0000 
     50 H           3.3250   50.5368   18.9062 H         1 1N12        0.0000 
     51 H           2.5668   49.3162   17.8693 H         1 1N12        0.0000 
     52 H           0.4190   48.3395   18.5169 H         1 1N12        0.0000 
     53 H          -0.3966   48.8927   19.9896 H         1 1N12        0.0000 
     54 H           7.1563   37.7751   17.9711 H         1 1N12        0.0000 
     55 H           7.7195   36.5612   17.0791 H         1 1N12        0.0000 
     56 H           6.2293   36.4936   17.6800 H         1 1N12        0.0000 
     57 H           2.2447   41.8861   20.8287 H         1 1N12        0.0000 
     58 H           1.4647   42.9610   21.7354 H         1 1N12        0.0000 
     59 H           1.0132   42.7159   20.2115 H         1 1N12        0.0000 
     60 H          -0.0611   51.3508   21.4545 H         1 1N12        0.0000 
@<TRIPOS>BOND
     1    2    1 2    
     2   20    1 1    
     3   34    1 1    
     4    3    2 1    
     5   21    2 1    
     6   22    3 am   
     7   27    3 2    
     8   16    4 1    
     9   31    4 1    
    10   32    4 1    
    11   35    4 1    
    12    6    5 ar   
    13   25    5 ar   
    14   36    5 1    
    15    7    6 ar   
    16   37    6 1    
    17    8    7 1    
    18   23    7 ar   
    19   54    8 1    
    20   55    8 1    
    21   56    8 1    
    22   10    9 ar   
    23   18    9 1    
    24   29    9 ar   
    25   11   10 ar   
    26   38   10 1    
    27   28   11 ar   
    28   30   11 1    
    29   13   12 1    
    30   28   12 ar   
    31   29   12 ar   
    32   57   13 1    
    33   58   13 1    
    34   59   13 1    
    35   30   14 1    
    36   31   14 1    
    37   39   14 1    
    38   40   14 1    
    39   30   15 1    
    40   32   15 1    
    41   41   15 1    
    42   42   15 1    
    43   17   16 1    
    44   43   16 1    
    45   44   16 1    
    46   33   17 1    
    47   45   17 1    
    48   46   17 1    
    49   19   18 1    
    50   47   18 1    
    51   20   19 2    
    52   21   19 1    
    53   23   22 1    
    54   48   22 1    
    55   24   23 ar   
    56   25   24 ar   
    57   26   24 1    
    58   49   25 1    
    59   50   31 1    
    60   51   31 1    
    61   52   32 1    
    62   53   32 1    
    63   60   33 1    
@<TRIPOS>SUBSTRUCTURE
     1 1N12        1 GROUP   
@<TRIPOS>SET

