#    Name: 4fry_AMP_2_INTS_M
#    Modification time : Mon Mar 24 20:37:12 2014

@<TRIPOS>MOLECULE
4fry_AMP_2_INTS_M
   73     0    12     0     0
SMALL
NO_CHARGES


@<TRIPOS>ATOM
      1 N          13.6135   27.3435   60.3445 N.am      2 SEC2        0.0000 
      2 N          13.3360   25.9410   60.9150 N.am     10 SEL2        0.0000 
      3 N          13.8910   28.7460   59.7740 N.am      6 SEP2        0.0000 
      4 N          12.3945   26.2395   61.8040 N.am      2 SEC2        0.0000 
      5 N          11.4530   26.5380   62.6930 N.am      6 SEP2        0.0000 
      6 NZ         11.6215   24.2675   58.1560 N.4       3 LYC4        0.0000 
      7 NZ         12.4680   24.0240   59.4930 N.4      11 LYL4        0.0000 
      8 NZ         10.3970   25.7640   56.5750 N.4       7 LYP4        0.0000 
      9 N          12.7660   22.8905   60.0755 N.am      2 SEC2        0.0000 
     10 N          12.4680   24.0240   59.4930 N.am     10 SEL2        0.0000 
     11 N          13.0640   21.7570   60.6580 N.am      6 SEP2        0.0000 
     12 N          11.6215   24.2675   58.1560 N.am      2 SEC2        0.0000 
     13 N          10.7750   24.5110   56.8190 N.am      6 SEP2        0.0000 
     14 NZ         12.1535   26.4285   57.8605 N.4       3 LYC4        0.0000 
     15 NZ         13.4110   26.1130   58.4090 N.4      11 LYL4        0.0000 
     16 N          13.6510   27.4295   59.0915 N.am      2 SEC2        0.0000 
     17 N          13.4110   26.1130   58.4090 N.am     10 SEL2        0.0000 
     18 N          12.1535   26.4285   57.8605 N.am      2 SEC2        0.0000 
     19 N          10.8960   26.7440   57.3120 N.am      6 SEP2        0.0000 
     20 N          12.0930   25.3120   57.6140 N.am      2 SEC2        0.0000 
     21 CA         14.9465   22.7030   57.3300 C.3       4 GLC5        0.0000 
     22 CA         15.6750   24.2090   58.5040 C.3      12 GLL5        0.0000 
     23 CA         14.2180   21.1970   56.1560 C.3       8 GLP5        0.0000 
     24 CA         15.9225   26.3435   58.7300 C.3       4 GLC5        0.0000 
     25 CA         16.1700   28.4780   58.9560 C.3       8 GLP5        0.0000 
     26 O          17.5400   20.2260   59.9295 O.2       1 ALC1        0.0000 
     27 O          17.8320   21.3250   59.4880 O.2       9 ALL1        0.0000 
     28 O          17.2480   19.1270   60.3710 O.2       5 ALP1        0.0000 
     29 CA         15.1655   22.7975   61.9875 C.3       4 GLC5        0.0000 
     30 CA         16.8700   22.7630   61.1780 C.3      12 GLL5        0.0000 
     31 CA         13.4610   22.8320   62.7970 C.3       8 GLP5        0.0000 
     32 N          18.6420   21.5625   62.1715 N.am      2 SEC2        0.0000 
     33 N          17.3360   21.7740   62.1000 N.am     10 SEL2        0.0000 
     34 N          19.9480   21.3510   62.2430 N.am      6 SEP2        0.0000 
     35 O          17.2920   20.4505   61.2355 O.2       1 ALC1        0.0000 
     36 O          17.3360   21.7740   62.1000 O.2       9 ALL1        0.0000 
     37 O          16.5800   20.7190   62.0205 O.2       1 ALC1        0.0000 
     38 O          15.8240   19.6640   61.9410 O.2       5 ALP1        0.0000 
     39 CA         19.2265   22.8235   62.2670 C.3       4 GLC5        0.0000 
     40 CA         17.8350   23.9280   61.0740 C.3      12 GLL5        0.0000 
     41 CA         20.6180   21.7190   63.4600 C.3       8 GLP5        0.0000 
     42 CA         17.4395   27.6365   61.8165 C.3       4 GLC5        0.0000 
     43 CA         17.7430   26.6690   63.5280 C.3      12 GLL5        0.0000 
     44 CA         17.1360   28.6040   60.1050 C.3       8 GLP5        0.0000 
     45 CA         19.1410   27.2120   66.3800 C.3       4 GLC5        0.0000 
     46 CA         18.5530   27.5350   64.4070 C.3      12 GLL5        0.0000 
     47 CA         19.7290   26.8890   68.3530 C.3       8 GLP5        0.0000 
     48 CA         20.1285   29.0470   64.5790 C.3       4 GLC5        0.0000 
     49 CA         21.7040   30.5590   64.7510 C.3       8 GLP5        0.0000 
     50 CA         18.7420   28.8355   62.9205 C.3       4 GLC5        0.0000 
     51 CA         18.9310   30.1360   61.4340 C.3       8 GLP5        0.0000 
     52 O          18.6890   29.2615   66.0350 O.2       1 ALC1        0.0000 
     53 O          17.9590   28.4790   65.1880 O.2       9 ALL1        0.0000 
     54 O          19.4190   30.0440   66.8820 O.2       5 ALP1        0.0000 
     55 O          16.7055   28.9870   64.6940 O.2       1 ALC1        0.0000 
     56 O          15.4520   29.4950   64.2000 O.2       5 ALP1        0.0000 
     57 N          20.7515   27.9595   65.3105 N.am      2 SEC2        0.0000 
     58 N          19.8940   27.3380   64.4070 N.am     10 SEL2        0.0000 
     59 N          21.6090   28.5810   66.2140 N.am      6 SEP2        0.0000 
     60 CA         19.0865   24.9925   64.5995 C.3       4 GLC5        0.0000 
     61 CA         20.4930   26.4050   63.6260 C.3      12 GLL5        0.0000 
     62 CA         17.6800   23.5800   65.5730 C.3       8 GLP5        0.0000 
     63 CA         21.1665   24.5015   63.3790 C.3       4 GLC5        0.0000 
     64 CA         21.8400   22.5980   63.1320 C.3       8 GLP5        0.0000 
     65 CA         21.1910   26.3795   65.3980 C.3       4 GLC5        0.0000 
     66 CA         21.8890   26.3540   67.1700 C.3       8 GLP5        0.0000 
     67 CA         21.6960   28.2295   63.7925 C.3       4 GLC5        0.0000 
     68 CA         22.8990   30.0540   63.9590 C.3       8 GLP5        0.0000 
     69 CA         20.2540   27.6085   62.2575 C.3       4 GLC5        0.0000 
     70 CA         20.0150   28.8120   60.8890 C.3       8 GLP5        0.0000 
     71 CA         19.2360   27.2455   61.8005 C.3       4 GLC5        0.0000 
     72 CA         18.4570   25.6790   62.7120 C.3      12 GLL5        0.0000 
     73 CA         17.9913   24.9853   64.4564 C.3       4 GLC5        0.0000 
@<TRIPOS>BOND
@<TRIPOS>SUBSTRUCTURE
     1 ALC1       26 GROUP        1 X    ALC  0     ROOT ALC X 1
     2 SEC2        1 GROUP        1 X    SEC  0     **** SEC X 2
     3 LYC4        6 GROUP        1 X    LYC  0     **** LYC X 4
     4 GLC5       21 GROUP        1 X    GLC  0     **** GLC X 6
     5 ALP1       28 GROUP        1 Y    ALP  0     ROOT ALP Y 8
     6 SEP2        3 GROUP        1 Y    SEP  0     **** SEP Y 9
     7 LYP4        8 GROUP        1 Y    LYP  0     **** LYP Y 11
     8 GLP5       23 GROUP        1 Y    GLP  0     **** GLP Y 13
     9 ALL1       27 GROUP        1 Z    ALL  0     ROOT ALL Z 15
    10 SEL2        2 GROUP        1 Z    SEL  0     **** SEL Z 16
    11 LYL4        7 GROUP        1 Z    LYL  0     **** LYL Z 18
    12 GLL5       22 GROUP        1 Z    GLL  0     **** GLL Z 20
@<TRIPOS>SET

