#    Name: 4fry_AMP_2_ligand
#    Modification time : Mon Mar 24 20:37:12 2014

@<TRIPOS>MOLECULE
4fry_AMP_2_ligand
   35    37     1     0     0
SMALL
NO_CHARGES


@<TRIPOS>ATOM
      1 P          13.4170   25.1900   59.5950 P.3       1 AMP202      0.0000 
      2 O1P        13.3360   25.9410   60.9150 O.co2     1 AMP202      0.0000 
      3 O2P        12.4680   24.0240   59.4930 O.co2     1 AMP202      0.0000 
      4 O3P        13.4110   26.1130   58.4090 O.co2     1 AMP202      0.0000 
      5 O5'        14.8680   24.4950   59.6560 O.3       1 AMP202      0.0000 
      6 C5'        15.6750   24.2090   58.5040 C.3       1 AMP202      0.0000 
      7 C4'        16.9900   23.5270   58.9110 C.3       1 AMP202      0.0000 
      8 O4'        17.7400   24.4160   59.7460 O.3       1 AMP202      0.0000 
      9 C3'        16.7930   22.2780   59.7460 C.3       1 AMP202      0.0000 
     10 O3'        17.8320   21.3250   59.4880 O.3       1 AMP202      0.0000 
     11 C2'        16.8700   22.7630   61.1780 C.3       1 AMP202      0.0000 
     12 O2'        17.3360   21.7740   62.1000 O.3       1 AMP202      0.0000 
     13 C1'        17.8350   23.9280   61.0740 C.3       1 AMP202      0.0000 
     14 N9         17.5240   25.0230   62.0340 N.pl3     1 AMP202      0.0000 
     15 C8         16.3260   25.5390   62.3420 C.2       1 AMP202      0.0000 
     16 N7         16.4470   26.5420   63.2420 N.2       1 AMP202      0.0000 
     17 C5         17.7430   26.6690   63.5280 C.ar      1 AMP202      0.0000 
     18 C6         18.5530   27.5350   64.4070 C.ar      1 AMP202      0.0000 
     19 N6         17.9590   28.4790   65.1880 N.pl3     1 AMP202      0.0000 
     20 N1         19.8940   27.3380   64.4070 N.ar      1 AMP202      0.0000 
     21 C2         20.4930   26.4050   63.6260 C.ar      1 AMP202      0.0000 
     22 N3         19.8110   25.5900   62.7930 N.ar      1 AMP202      0.0000 
     23 C4         18.4570   25.6790   62.7120 C.ar      1 AMP202      0.0000 
     24 H          15.9331   25.1247   57.9533 H         1 AMP202      0.0000 
     25 H          15.1570   23.5388   57.8033 H         1 AMP202      0.0000 
     26 H          17.5483   23.2766   58.0344 H         1 AMP202      0.0000 
     27 H          15.8209   21.8973   59.5674 H         1 AMP202      0.0000 
     28 H          15.9099   23.1691   61.4393 H         1 AMP202      0.0000 
     29 H          18.8324   23.5520   61.2631 H         1 AMP202      0.0000 
     30 H          15.4693   25.2342   61.9677 H         1 AMP202      0.0000 
     31 H          18.4366   28.7136   66.0347 H         1 AMP202      0.0000 
     32 H          17.0976   28.8546   64.8461 H         1 AMP202      0.0000 
     33 H          21.5506   26.3128   63.6737 H         1 AMP202      0.0000 
     34 H          17.8008   20.6925   60.2619 H         1 AMP202      0.0000 
     35 H          17.0990   20.8975   61.6810 H         1 AMP202      0.0000 
@<TRIPOS>BOND
     1    2    1 ar   
     2    3    1 ar   
     3    4    1 ar   
     4    5    1 1    
     5    6    5 1    
     6    7    6 1    
     7   24    6 1    
     8   25    6 1    
     9    8    7 1    
    10    9    7 1    
    11   26    7 1    
    12   13    8 1    
    13   10    9 1    
    14   11    9 1    
    15   27    9 1    
    16   34   10 1    
    17   12   11 1    
    18   13   11 1    
    19   28   11 1    
    20   35   12 1    
    21   14   13 1    
    22   29   13 1    
    23   15   14 1    
    24   23   14 1    
    25   16   15 2    
    26   30   15 1    
    27   17   16 1    
    28   18   17 ar   
    29   23   17 ar   
    30   19   18 1    
    31   20   18 ar   
    32   31   19 1    
    33   32   19 1    
    34   21   20 ar   
    35   22   21 ar   
    36   33   21 1    
    37   23   22 ar   
@<TRIPOS>SUBSTRUCTURE
     1 AMP202      1 GROUP   
@<TRIPOS>SET

