#    Name: 3k7t_FAD_1_INTS_M
#    Modification time : Mon Mar 24 18:52:42 2014

@<TRIPOS>MOLECULE
3k7t_FAD_1_INTS_M
  128     0    12     0     0
SMALL
NO_CHARGES


@<TRIPOS>ATOM
      1 N          36.7545   92.3815   -6.0485 N.am      2 SEC2        0.0000 
      2 N          35.9210   92.4980   -7.3160 N.am     10 SEL2        0.0000 
      3 N          37.5880   92.2650   -4.7810 N.am      6 SEP2        0.0000 
      4 NZ         35.3715   95.7700   -7.2890 N.4       3 LYC4        0.0000 
      5 NZ         36.6490   94.8690   -7.3870 N.4      11 LYL4        0.0000 
      6 NZ         34.3880   96.8600   -5.9120 N.4       7 LYP4        0.0000 
      7 N          35.9270   95.4425   -6.3385 N.am      2 SEC2        0.0000 
      8 N          36.6490   94.8690   -7.3870 N.am     10 SEL2        0.0000 
      9 N          35.2050   96.0160   -5.2900 N.am      6 SEP2        0.0000 
     10 N          35.3715   95.7700   -7.2890 N.am      2 SEC2        0.0000 
     11 N          34.0940   96.6710   -7.1910 N.am      6 SEP2        0.0000 
     12 CA         37.4110   95.8760  -11.3470 C.3       4 GLC5        0.0000 
     13 CA         37.8360   94.3180  -10.0330 C.3      12 GLL5        0.0000 
     14 CA         36.9860   97.4340  -12.6610 C.3       8 GLP5        0.0000 
     15 CA         37.7800   96.1610   -9.9405 C.3       4 GLC5        0.0000 
     16 CA         37.7240   98.0040   -9.8480 C.3       8 GLP5        0.0000 
     17 CA         38.6655   94.7065   -7.9855 C.3       4 GLC5        0.0000 
     18 CA         39.4950   95.0950   -5.9380 C.3       8 GLP5        0.0000 
     19 CA         39.2710   93.3105  -12.4695 C.3       4 GLC5        0.0000 
     20 CA         39.1260   93.6350  -10.4730 C.3      12 GLL5        0.0000 
     21 CA         39.4160   92.9860  -14.4660 C.3       8 GLP5        0.0000 
     22 CA         39.5785   92.4605   -7.9210 C.3       4 GLC5        0.0000 
     23 CA         40.1480   93.5890   -9.3470 C.3      12 GLL5        0.0000 
     24 CA         39.0090   91.3320   -6.4950 C.3       8 GLP5        0.0000 
     25 O          41.1670   91.7060  -10.4260 O.2       1 ALC1        0.0000 
     26 O          40.6120   92.2680   -9.1860 O.2       9 ALL1        0.0000 
     27 O          41.7220   91.1440  -11.6660 O.2       5 ALP1        0.0000 
     28 O          42.0670   92.0785   -9.9250 O.2       1 ALC1        0.0000 
     29 O          43.5220   91.8890  -10.6640 O.2       5 ALP1        0.0000 
     30 CA         42.6980   95.7275   -9.0270 C.3       4 GLC5        0.0000 
     31 CA         41.2740   94.5010   -9.7990 C.3      12 GLL5        0.0000 
     32 CA         44.1220   96.9540   -8.2550 C.3       8 GLP5        0.0000 
     33 O          43.0300   92.9370  -10.0585 O.2       1 ALC1        0.0000 
     34 O          42.5380   93.9850   -9.4530 O.2       9 ALL1        0.0000 
     35 CA         40.2570   93.7655  -12.8870 C.3       4 GLC5        0.0000 
     36 CA         41.0980   94.5450  -11.3080 C.3      12 GLL5        0.0000 
     37 CA         40.0710   95.8560  -12.7035 C.3       4 GLC5        0.0000 
     38 CA         39.0440   97.1670  -14.0990 C.3       8 GLP5        0.0000 
     39 CA         41.8465   97.0090  -15.9500 C.3       4 GLC5        0.0000 
     40 CA         43.2180   97.6940  -14.4090 C.3      12 GLL5        0.0000 
     41 CA         40.4750   96.3240  -17.4910 C.3       8 GLP5        0.0000 
     42 CA         45.2850   98.1285  -14.4205 C.3       4 GLC5        0.0000 
     43 CA         47.3520   98.5630  -14.4320 C.3       8 GLP5        0.0000 
     44 O          44.0095   99.5035  -15.9325 O.2       1 ALC1        0.0000 
     45 O          43.3610   98.9900  -14.6710 O.2       9 ALL1        0.0000 
     46 O          44.6580  100.0170  -17.1940 O.2       5 ALP1        0.0000 
     47 N          44.6690   97.0315  -16.3405 N.am      2 SEC2        0.0000 
     48 N          43.6320   96.7520  -15.3320 N.am     10 SEL2        0.0000 
     49 N          45.7060   97.3110  -17.3490 N.am      6 SEP2        0.0000 
     50 CA         41.9185   95.8675  -16.3095 C.3       4 GLC5        0.0000 
     51 CA         43.3620   95.4110  -15.1280 C.3      12 GLL5        0.0000 
     52 CA         43.5450   93.2385  -14.7985 C.3       4 GLC5        0.0000 
     53 CA         43.7280   91.0660  -14.4690 C.3       8 GLP5        0.0000 
     54 CA         44.7585   94.5515  -14.1360 C.3       4 GLC5        0.0000 
     55 CA         46.1550   93.6920  -13.1440 C.3       8 GLP5        0.0000 
     56 CA         45.3600   95.9215  -15.4675 C.3       4 GLC5        0.0000 
     57 CA         47.3580   96.4320  -15.8070 C.3       8 GLP5        0.0000 
     58 CA         43.5645   95.7995  -17.2555 C.3       4 GLC5        0.0000 
     59 CA         43.7670   96.1880  -19.3830 C.3       8 GLP5        0.0000 
     60 N          43.8250   93.9605  -13.7490 N.am      2 SEC2        0.0000 
     61 N          42.6750   95.0130  -13.9950 N.am     10 SEL2        0.0000 
     62 N          44.9750   92.9080  -13.5030 N.am      6 SEP2        0.0000 
     63 CA         40.8395   94.4585  -13.7735 C.3       4 GLC5        0.0000 
     64 CA         42.2630   95.9310  -13.0810 C.3      12 GLL5        0.0000 
     65 CA         44.2090   94.8115  -13.1125 C.3       4 GLC5        0.0000 
     66 N          27.5960   90.7185   -2.6915 N.am      2 SEC2        0.0000 
     67 N          27.4300   90.3750   -1.3070 N.am     10 SEL2        0.0000 
     68 N          27.7620   91.0620   -4.0760 N.am      6 SEP2        0.0000 
     69 O          27.3885   89.4400    1.1615 O.2       1 ALC1        0.0000 
     70 O          27.8830   90.8380    0.8600 O.2       9 ALL1        0.0000 
     71 O          26.8940   88.0420    1.4630 O.2       5 ALP1        0.0000 
     72 CA         35.1925   94.2355    5.0425 C.3       4 GLC5        0.0000 
     73 CA         34.7750   95.1600    3.4430 C.3      12 GLL5        0.0000 
     74 CA         35.6100   93.3110    6.6420 C.3       8 GLP5        0.0000 
     75 CA         33.7720   95.6175    5.3490 C.3       4 GLC5        0.0000 
     76 CA         32.7690   96.0750    7.2550 C.3       8 GLP5        0.0000 
     77 CA         33.8425   96.7040    3.4290 C.3       4 GLC5        0.0000 
     78 CA         32.9100   98.2480    3.4150 C.3       8 GLP5        0.0000 
     79 CA         36.0550   95.2020   -1.4860 C.3       4 GLC5        0.0000 
     80 CA         35.4460   95.3040    0.5480 C.3      12 GLL5        0.0000 
     81 CA         36.6640   95.1000   -3.5200 C.3       8 GLP5        0.0000 
     82 CA         37.3580   95.9865    0.9885 C.3       4 GLC5        0.0000 
     83 CA         39.2700   96.6690    1.4290 C.3       8 GLP5        0.0000 
     84 CA         35.7615   97.3015    0.4565 C.3       4 GLC5        0.0000 
     85 CA         36.0770   99.2990    0.3650 C.3       8 GLP5        0.0000 
     86 CA         34.0370   96.7575    1.3045 C.3       4 GLC5        0.0000 
     87 CA         32.6280   98.2110    2.0610 C.3       8 GLP5        0.0000 
     88 CA         34.7245   93.8570   -1.6690 C.3       4 GLC5        0.0000 
     89 CA         33.3570   94.0220    0.1010 C.3      12 GLL5        0.0000 
     90 CA         36.0920   93.6920   -3.4390 C.3       8 GLP5        0.0000 
     91 CA         30.8305   90.7320   -3.0835 C.3       4 GLC5        0.0000 
     92 CA         31.9480   92.4410   -2.8630 C.3      12 GLL5        0.0000 
     93 CA         29.7130   89.0230   -3.3040 C.3       8 GLP5        0.0000 
     94 CA         30.8945   94.3960   -5.4345 C.3       4 GLC5        0.0000 
     95 CA         32.2890   93.2260   -4.1290 C.3      12 GLL5        0.0000 
     96 CA         29.5000   95.5660   -6.7400 C.3       8 GLP5        0.0000 
     97 O          30.3380   94.1375   -5.6580 O.2       1 ALC1        0.0000 
     98 O          31.2310   94.1150   -4.4230 O.2       9 ALL1        0.0000 
     99 O          29.4450   94.1600   -6.8930 O.2       5 ALP1        0.0000 
    100 CA         31.0865   94.3680   -6.6730 C.3       4 GLC5        0.0000 
    101 CA         32.6730   93.1700   -6.6060 C.3      12 GLL5        0.0000 
    102 CA         31.1775   92.3750   -7.8035 C.3       4 GLC5        0.0000 
    103 CA         29.6820   91.5800   -9.0010 C.3       8 GLP5        0.0000 
    104 N          33.1825   91.1630  -10.8200 N.am      2 SEC2        0.0000 
    105 N          33.9510   92.0770  -10.0910 N.am     10 SEL2        0.0000 
    106 N          32.4140   90.2490  -11.5490 N.am      6 SEP2        0.0000 
    107 N          31.5145   93.2925  -10.7865 N.am      2 SEC2        0.0000 
    108 N          32.2290   93.7970   -9.6330 N.am     10 SEL2        0.0000 
    109 N          30.8000   92.7880  -11.9400 N.am      6 SEP2        0.0000 
    110 N          31.0910   94.9215   -9.3710 N.am      2 SEC2        0.0000 
    111 N          29.9530   96.0460   -9.1090 N.am      6 SEP2        0.0000 
    112 N          34.3590   95.4175   -7.9870 N.am      2 SEC2        0.0000 
    113 N          34.6240   94.1640   -8.7830 N.am     10 SEL2        0.0000 
    114 CA         37.5090   92.0323  -10.2205 C.3       4 GLC5        0.0000 
    115 CA         36.5370   90.0880  -10.1880 C.3       8 GLP5        0.0000 
    116 CA         40.7120   94.2370   -7.7165 C.3       4 GLC5        0.0000 
    117 CA         40.7130   94.4290   -5.8600 C.3       8 GLP5        0.0000 
    118 CA         43.9135   96.5708  -11.7793 C.3       4 GLC5        0.0000 
    119 CA         42.5270   97.2840  -13.2720 C.3      12 GLL5        0.0000 
    120 CA         45.4320   96.5340  -10.3820 C.3       8 GLP5        0.0000 
    121 CA         40.8059   96.9385  -13.7799 C.3       4 GLC5        0.0000 
    122 CA         35.1529   92.8246    1.0624 C.3       4 GLC5        0.0000 
    123 CA         33.8890   94.5430    2.3980 C.3      12 GLL5        0.0000 
    124 CA         36.2540   91.1680    1.5080 C.3       8 GLP5        0.0000 
    125 CA         32.5299   91.5916    1.8036 C.3       4 GLC5        0.0000 
    126 CA         32.1900   93.3650    0.5020 C.3      12 GLL5        0.0000 
    127 CA         32.8130   89.7020    2.1890 C.3       8 GLP5        0.0000 
    128 CA         34.2139   93.1369   -3.9280 C.3       4 GLC5        0.0000 
@<TRIPOS>BOND
@<TRIPOS>SUBSTRUCTURE
     1 ALC1       25 GROUP        1 X    ALC  0     ROOT ALC X 1
     2 SEC2        1 GROUP        1 X    SEC  0     **** SEC X 2
     3 LYC4        4 GROUP        1 X    LYC  0     **** LYC X 4
     4 GLC5       12 GROUP        1 X    GLC  0     **** GLC X 6
     5 ALP1       27 GROUP        1 Y    ALP  0     ROOT ALP Y 8
     6 SEP2        3 GROUP        1 Y    SEP  0     **** SEP Y 9
     7 LYP4        6 GROUP        1 Y    LYP  0     **** LYP Y 11
     8 GLP5       14 GROUP        1 Y    GLP  0     **** GLP Y 13
     9 ALL1       26 GROUP        1 Z    ALL  0     ROOT ALL Z 15
    10 SEL2        2 GROUP        1 Z    SEL  0     **** SEL Z 16
    11 LYL4        5 GROUP        1 Z    LYL  0     **** LYL Z 18
    12 GLL5       13 GROUP        1 Z    GLL  0     **** GLL Z 20
@<TRIPOS>SET

