#    Name: 3k7t_FAD_1_ligand
#    Modification time : Mon Mar 24 18:52:42 2014

@<TRIPOS>MOLECULE
3k7t_FAD_1_ligand
   84    89     1     0     0
SMALL
NO_CHARGES


@<TRIPOS>ATOM
      1 PA         36.0550   93.7300   -8.1800 P.3       1 FAD434      0.0000 
      2 O1A        35.9210   92.4980   -7.3160 O.co2     1 FAD434      0.0000 
      3 O2A        36.6490   94.8690   -7.3870 O.co2     1 FAD434      0.0000 
      4 O5B        36.9490   93.3750   -9.4730 O.3       1 FAD434      0.0000 
      5 C5B        37.8360   94.3180  -10.0330 C.3       1 FAD434      0.0000 
      6 C4B        39.1260   93.6350  -10.4730 C.3       1 FAD434      0.0000 
      7 O4B        39.7150   94.3570  -11.5390 O.3       1 FAD434      0.0000 
      8 C3B        40.1480   93.5890   -9.3470 C.3       1 FAD434      0.0000 
      9 O3B        40.6120   92.2680   -9.1860 O.3       1 FAD434      0.0000 
     10 C2B        41.2740   94.5010   -9.7990 C.3       1 FAD434      0.0000 
     11 O2B        42.5380   93.9850   -9.4530 O.3       1 FAD434      0.0000 
     12 C1B        41.0980   94.5450  -11.3080 C.3       1 FAD434      0.0000 
     13 N9A        41.5770   95.8140  -11.8960 N.pl3     1 FAD434      0.0000 
     14 C8A        41.4300   97.0780  -11.3830 C.2       1 FAD434      0.0000 
     15 N7A        42.0110   97.9620  -12.2250 N.2       1 FAD434      0.0000 
     16 C5A        42.5270   97.2840  -13.2720 C.ar      1 FAD434      0.0000 
     17 C6A        43.2180   97.6940  -14.4090 C.ar      1 FAD434      0.0000 
     18 N6A        43.3610   98.9900  -14.6710 N.pl3     1 FAD434      0.0000 
     19 N1A        43.6320   96.7520  -15.3320 N.ar      1 FAD434      0.0000 
     20 C2A        43.3620   95.4110  -15.1280 C.ar      1 FAD434      0.0000 
     21 N3A        42.6750   95.0130  -13.9950 N.ar      1 FAD434      0.0000 
     22 C4A        42.2630   95.9310  -13.0810 C.ar      1 FAD434      0.0000 
     23 N1         29.3310   91.5400   -0.9120 N.2       1 FAD434      0.0000 
     24 C2         28.1840   90.8960   -0.4870 C.2       1 FAD434      0.0000 
     25 O2         27.4300   90.3750   -1.3070 O.2       1 FAD434      0.0000 
     26 N3         27.8830   90.8380    0.8600 N.am      1 FAD434      0.0000 
     27 C4         28.7280   91.4230    1.7840 C.2       1 FAD434      0.0000 
     28 O4         28.4500   91.3660    2.9800 O.2       1 FAD434      0.0000 
     29 C4X        29.8870   92.0740    1.3610 C.2       1 FAD434      0.0000 
     30 N5         30.7340   92.6590    2.2830 N.2       1 FAD434      0.0000 
     31 C5X        31.8810   93.3050    1.8640 C.ar      1 FAD434      0.0000 
     32 C6         32.7260   93.8900    2.8050 C.ar      1 FAD434      0.0000 
     33 C7         33.8890   94.5430    2.3980 C.ar      1 FAD434      0.0000 
     34 C7M        34.7750   95.1600    3.4430 C.3       1 FAD434      0.0000 
     35 C8         34.2050   94.6100    1.0360 C.ar      1 FAD434      0.0000 
     36 C8M        35.4460   95.3040    0.5480 C.3       1 FAD434      0.0000 
     37 C9         33.3570   94.0220    0.1010 C.ar      1 FAD434      0.0000 
     38 C9A        32.1900   93.3650    0.5020 C.ar      1 FAD434      0.0000 
     39 N10        31.3420   92.7820   -0.4370 N.pl3     1 FAD434      0.0000 
     40 C10        30.1930   92.1320   -0.0010 C.2       1 FAD434      0.0000 
     41 C1'        31.3230   93.3700   -1.8220 C.3       1 FAD434      0.0000 
     42 C2'        31.9480   92.4410   -2.8630 C.3       1 FAD434      0.0000 
     43 O2'        33.1190   91.8480   -2.3430 O.3       1 FAD434      0.0000 
     44 C3'        32.2890   93.2260   -4.1290 C.3       1 FAD434      0.0000 
     45 O3'        31.2310   94.1150   -4.4230 O.3       1 FAD434      0.0000 
     46 C4'        32.5530   92.3300   -5.3380 C.3       1 FAD434      0.0000 
     47 O4'        33.7440   91.5980   -5.1440 O.3       1 FAD434      0.0000 
     48 C5'        32.6730   93.1700   -6.6060 C.3       1 FAD434      0.0000 
     49 O5'        33.1320   92.3930   -7.6890 O.3       1 FAD434      0.0000 
     50 P          33.4550   93.0990   -9.1010 P.3       1 FAD434      0.0000 
     51 O1P        33.9510   92.0770  -10.0910 O.co2     1 FAD434      0.0000 
     52 O2P        32.2290   93.7970   -9.6330 O.co2     1 FAD434      0.0000 
     53 O3P        34.6240   94.1640   -8.7830 O.3       1 FAD434      0.0000 
     54 H          38.1078   95.1076   -9.3153 H         1 FAD434      0.0000 
     55 H          37.4071   94.8158  -10.9166 H         1 FAD434      0.0000 
     56 H          38.9022   92.6238  -10.7659 H         1 FAD434      0.0000 
     57 H          39.7054   93.9978   -8.4762 H         1 FAD434      0.0000 
     58 H          41.0822   95.4772   -9.4195 H         1 FAD434      0.0000 
     59 H          41.6616   93.7111  -11.7196 H         1 FAD434      0.0000 
     60 H          40.9832   97.2894  -10.5557 H         1 FAD434      0.0000 
     61 H          42.9545   99.6201  -14.0094 H         1 FAD434      0.0000 
     62 H          43.8621   99.2174  -15.5060 H         1 FAD434      0.0000 
     63 H          43.6710   94.7113  -15.8166 H         1 FAD434      0.0000 
     64 H          27.0267   90.3576    1.1768 H         1 FAD434      0.0000 
     65 H          32.4909   93.8401    3.8061 H         1 FAD434      0.0000 
     66 H          33.5916   94.0707   -0.9042 H         1 FAD434      0.0000 
     67 H          31.8708   94.3225   -1.8263 H         1 FAD434      0.0000 
     68 H          30.2867   93.5838   -2.1182 H         1 FAD434      0.0000 
     69 H          31.2091   91.6941   -3.1270 H         1 FAD434      0.0000 
     70 H          33.2074   93.7892   -3.9288 H         1 FAD434      0.0000 
     71 H          31.7003   91.6717   -5.4562 H         1 FAD434      0.0000 
     72 H          33.3538   94.0103   -6.3815 H         1 FAD434      0.0000 
     73 H          31.6800   93.6110   -6.8044 H         1 FAD434      0.0000 
     74 H          35.1135   94.4789    4.0922 H         1 FAD434      0.0000 
     75 H          35.5754   95.6017    3.0376 H         1 FAD434      0.0000 
     76 H          34.2931   95.8570    3.9740 H         1 FAD434      0.0000 
     77 H          36.2749   94.8936    0.9282 H         1 FAD434      0.0000 
     78 H          35.5281   95.2616   -0.4477 H         1 FAD434      0.0000 
     79 H          35.4548   96.2712    0.8019 H         1 FAD434      0.0000 
     80 H          40.9667   92.0072  -10.0839 H         1 FAD434      0.0000 
     81 H          42.6511   93.1725  -10.0249 H         1 FAD434      0.0000 
     82 H          33.6382   91.5538   -3.1454 H         1 FAD434      0.0000 
     83 H          30.8737   93.8090   -5.3055 H         1 FAD434      0.0000 
     84 H          34.3276   91.8435   -5.9180 H         1 FAD434      0.0000 
@<TRIPOS>BOND
     1    2    1 ar   
     2    3    1 ar   
     3    4    1 1    
     4   53    1 1    
     5    5    4 1    
     6    6    5 1    
     7   54    5 1    
     8   55    5 1    
     9    7    6 1    
    10    8    6 1    
    11   56    6 1    
    12   12    7 1    
    13    9    8 1    
    14   10    8 1    
    15   57    8 1    
    16   80    9 1    
    17   11   10 1    
    18   12   10 1    
    19   58   10 1    
    20   81   11 1    
    21   13   12 1    
    22   59   12 1    
    23   14   13 1    
    24   22   13 1    
    25   15   14 2    
    26   60   14 1    
    27   16   15 1    
    28   17   16 ar   
    29   22   16 ar   
    30   18   17 1    
    31   19   17 ar   
    32   61   18 1    
    33   62   18 1    
    34   20   19 ar   
    35   21   20 ar   
    36   63   20 1    
    37   22   21 ar   
    38   24   23 1    
    39   40   23 2    
    40   25   24 2    
    41   26   24 am   
    42   27   26 am   
    43   64   26 1    
    44   28   27 2    
    45   29   27 1    
    46   30   29 2    
    47   40   29 1    
    48   31   30 1    
    49   32   31 ar   
    50   38   31 ar   
    51   33   32 ar   
    52   65   32 1    
    53   34   33 1    
    54   35   33 ar   
    55   74   34 1    
    56   75   34 1    
    57   76   34 1    
    58   36   35 1    
    59   37   35 ar   
    60   77   36 1    
    61   78   36 1    
    62   79   36 1    
    63   38   37 ar   
    64   66   37 1    
    65   39   38 1    
    66   40   39 1    
    67   41   39 1    
    68   42   41 1    
    69   67   41 1    
    70   68   41 1    
    71   43   42 1    
    72   44   42 1    
    73   69   42 1    
    74   82   43 1    
    75   45   44 1    
    76   46   44 1    
    77   70   44 1    
    78   83   45 1    
    79   47   46 1    
    80   48   46 1    
    81   71   46 1    
    82   84   47 1    
    83   49   48 1    
    84   72   48 1    
    85   73   48 1    
    86   50   49 1    
    87   51   50 ar   
    88   52   50 ar   
    89   53   50 1    
@<TRIPOS>SUBSTRUCTURE
     1 FAD434      1 GROUP   
@<TRIPOS>SET

