#    Name: 3qpj_N4I_1_INTS_M
#    Modification time : Mon Apr  7 19:46:41 2014

@<TRIPOS>MOLECULE
3qpj_N4I_1_INTS_M
   87     0    12     0     0
SMALL
NO_CHARGES


@<TRIPOS>ATOM
      1 CA         13.2185  -20.3840   -3.7095 C.3       4 GLC5        0.0000 
      2 CA         15.1040  -19.7990   -4.7460 C.3      12 GLL5        0.0000 
      3 CA         11.3330  -20.9690   -2.6730 C.3       8 GLP5        0.0000 
      4 CA         15.9540  -16.2475   -3.5135 C.3       4 GLC5        0.0000 
      5 CA         16.0940  -17.6090   -4.6980 C.3      12 GLL5        0.0000 
      6 CA         15.8140  -14.8860   -2.3290 C.3       8 GLP5        0.0000 
      7 CA         16.7640  -15.8040   -5.1755 C.3       4 GLC5        0.0000 
      8 CA         17.4340  -13.9990   -5.6530 C.3       8 GLP5        0.0000 
      9 OD1        15.2035  -17.4225   -6.8645 O.co2     3 ASC3        0.0000 
     10 OD1        16.7240  -18.0520   -6.9840 O.co2    11 ASL3        0.0000 
     11 OD1        13.6830  -16.7930   -6.7450 O.co2     7 ASP3        0.0000 
     12 CA         20.6415  -14.0265   -9.2000 C.3       4 GLC5        0.0000 
     13 CA         20.2760  -15.9470   -8.1390 C.3      12 GLL5        0.0000 
     14 CA         21.0070  -12.1060  -10.2610 C.3       8 GLP5        0.0000 
     15 CA         20.9670  -16.7415  -10.0315 C.3       4 GLC5        0.0000 
     16 CA         21.6580  -17.5360  -11.9240 C.3       8 GLP5        0.0000 
     17 N          20.1380  -13.1620   -8.2775 N.am      2 SEC2        0.0000 
     18 N          20.3780  -14.6280   -8.4440 N.am     10 SEL2        0.0000 
     19 N          19.8980  -11.6960   -8.1110 N.am      6 SEP2        0.0000 
     20 O          21.5040  -13.9800   -8.7065 O.2       1 ALC1        0.0000 
     21 O          20.3780  -14.6280   -8.4440 O.2       9 ALL1        0.0000 
     22 O          22.6300  -13.3320   -8.9690 O.2       5 ALP1        0.0000 
     23 CA         20.2365  -20.5390   -8.1240 C.3       4 GLC5        0.0000 
     24 CA         20.0470  -18.6400   -7.5170 C.3      12 GLL5        0.0000 
     25 CA         20.4260  -22.4380   -8.7310 C.3       8 GLP5        0.0000 
     26 CA         22.7875  -17.6300    0.4895 C.3       4 GLC5        0.0000 
     27 CA         22.6750  -16.7710   -1.3360 C.3      12 GLL5        0.0000 
     28 CA         22.9000  -18.4890    2.3150 C.3       8 GLP5        0.0000 
     29 O          10.7330  -26.3890   -2.6975 O.2       1 ALC1        0.0000 
     30 O          11.8230  -25.6960   -3.4960 O.2       9 ALL1        0.0000 
     31 O           9.6430  -27.0820   -1.8990 O.2       5 ALP1        0.0000 
     32 N          19.6375  -23.7195   -4.4865 N.am      2 SEC2        0.0000 
     33 N          18.5960  -22.7400   -4.1310 N.am     10 SEL2        0.0000 
     34 N          20.6790  -24.6990   -4.8420 N.am      6 SEP2        0.0000 
     35 N          17.7395  -23.2190   -7.5445 N.am      2 SEC2        0.0000 
     36 N          17.5860  -22.4400   -6.2780 N.am     10 SEL2        0.0000 
     37 N          17.8930  -23.9980   -8.8110 N.am      6 SEP2        0.0000 
     38 CA         14.7665  -24.9295   -0.7320 C.3       4 GLC5        0.0000 
     39 CA         14.8010  -23.8490   -2.4820 C.3      12 GLL5        0.0000 
     40 CA         14.7320  -26.0100    1.0180 C.3       8 GLP5        0.0000 
     41 N          10.8105  -24.3360   -1.0965 N.am      2 SEC2        0.0000 
     42 N          12.1920  -24.5710   -1.6100 N.am     10 SEL2        0.0000 
     43 N           9.4290  -24.1010   -0.5830 N.am      6 SEP2        0.0000 
     44 CA         12.6135  -22.4425   -3.6875 C.3       4 GLC5        0.0000 
     45 CA         13.8940  -23.9160   -4.7020 C.3      12 GLL5        0.0000 
     46 CA         15.9177  -25.0042   -2.4690 C.3       4 GLC5        0.0000 
     47 CA         13.7580  -24.1820   -3.3400 C.3      12 GLL5        0.0000 
     48 CA         17.5560  -25.9930   -2.0270 C.3       8 GLP5        0.0000 
     49 CA         13.2973  -22.5487   -2.2065 C.3       4 GLC5        0.0000 
     50 CA         12.3150  -21.0820   -1.5020 C.3       8 GLP5        0.0000 
     51 CA         18.1517  -15.1775   -7.5665 C.3       4 GLC5        0.0000 
     52 CA         19.0430  -16.5730   -8.2310 C.3      12 GLL5        0.0000 
     53 CA         16.6440  -14.0950   -6.9480 C.3       8 GLP5        0.0000 
     54 CA         19.2007  -15.6885  -10.2000 C.3       4 GLC5        0.0000 
     55 CA         18.7420  -15.1170  -12.2150 C.3       8 GLP5        0.0000 
     56 CA         18.7350  -20.1500   -8.7832 C.3       4 GLC5        0.0000 
     57 CA         18.9310  -17.9170   -7.9240 C.3      12 GLL5        0.0000 
     58 CA         19.2150  -22.0540   -9.5830 C.3       8 GLP5        0.0000 
     59 CA         22.6007  -17.5048   -9.0935 C.3       4 GLC5        0.0000 
     60 CA         21.2820  -18.0060   -7.4200 C.3      12 GLL5        0.0000 
     61 CA         23.8620  -17.6810  -10.6130 C.3       8 GLP5        0.0000 
     62 CA         21.4515  -21.1420   -4.5813 C.3       4 GLC5        0.0000 
     63 CA         21.2960  -19.0590   -3.7460 C.3      12 GLL5        0.0000 
     64 CA         22.2140  -22.9010   -5.3080 C.3       8 GLP5        0.0000 
     65 CA         21.2920  -20.6025   -2.7113 C.3       4 GLC5        0.0000 
     66 CA         20.0820  -19.7070   -3.9630 C.3      12 GLL5        0.0000 
     67 CA         21.8950  -21.8220   -1.5680 C.3       8 GLP5        0.0000 
     68 CA         21.3902  -19.9142   -1.9275 C.3       4 GLC5        0.0000 
     69 CA         21.4230  -18.1390   -2.7040 C.3      12 GLL5        0.0000 
     70 CA         23.2703  -19.7368   -1.7950 C.3       4 GLC5        0.0000 
     71 CA         23.6980  -18.3410   -2.3820 C.3      12 GLL5        0.0000 
     72 CA         23.3230  -21.5810   -1.1670 C.3       8 GLP5        0.0000 
     73 CA         20.4808  -20.4030   -2.0890 C.3       4 GLC5        0.0000 
     74 CA         18.9950  -19.4420   -3.1290 C.3      12 GLL5        0.0000 
     75 CA         18.8730  -17.1810   -0.7913 C.3       4 GLC5        0.0000 
     76 CA         19.1380  -18.5260   -2.0910 C.3      12 GLL5        0.0000 
     77 CA         18.0030  -16.1620    0.3980 C.3       8 GLP5        0.0000 
     78 CA         20.1100  -18.5705   -0.0623 C.3       4 GLC5        0.0000 
     79 CA         20.4770  -18.9410    1.8560 C.3       8 GLP5        0.0000 
     80 CA         18.0041  -20.4516   -1.3386 C.3       4 GLC5        0.0000 
     81 CA         17.2780  -21.7440   -0.0280 C.3       8 GLP5        0.0000 
     82 CA         16.7995  -24.5577   -2.8448 C.3       4 GLC5        0.0000 
     83 CA         15.9650  -23.2630   -2.9870 C.3      12 GLL5        0.0000 
     84 CA         16.3305  -22.6500   -1.3813 C.3       4 GLC5        0.0000 
     85 CA         15.6925  -24.5983   -6.1768 C.3       4 GLC5        0.0000 
     86 CA         16.1210  -22.9820   -4.3380 C.3      12 GLL5        0.0000 
     87 CA         16.6410  -25.6650   -7.6180 C.3       8 GLP5        0.0000 
@<TRIPOS>BOND
@<TRIPOS>SUBSTRUCTURE
     1 ALC1       20 GROUP        1 X    ALC  0     ROOT ALC X 1
     2 SEC2       17 GROUP        1 X    SEC  0     **** SEC X 2
     3 ASC3        9 GROUP        1 X    ASC  0     **** ASC X 3
     4 GLC5        1 GROUP        1 X    GLC  0     **** GLC X 6
     5 ALP1       22 GROUP        1 Y    ALP  0     ROOT ALP Y 8
     6 SEP2       19 GROUP        1 Y    SEP  0     **** SEP Y 9
     7 ASP3       11 GROUP        1 Y    ASP  0     **** ASP Y 10
     8 GLP5        3 GROUP        1 Y    GLP  0     **** GLP Y 13
     9 ALL1       21 GROUP        1 Z    ALL  0     ROOT ALL Z 15
    10 SEL2       18 GROUP        1 Z    SEL  0     **** SEL Z 16
    11 ASL3       10 GROUP        1 Z    ASL  0     **** ASL Z 17
    12 GLL5        2 GROUP        1 Z    GLL  0     **** GLL Z 20
@<TRIPOS>SET

