#    Name: 3qpj_N4I_1_ligand
#    Modification time : Mon Apr  7 19:46:41 2014

@<TRIPOS>MOLECULE
3qpj_N4I_1_ligand
   63    66     1     0     0
SMALL
NO_CHARGES


@<TRIPOS>ATOM
      1 C1         16.9520  -18.4760   -5.6110 C.3       1 N4I100      0.0000 
      2 C2         16.4620  -19.9150   -5.4580 C.3       1 N4I100      0.0000 
      3 C3         15.1040  -19.7990   -4.7460 C.3       1 N4I100      0.0000 
      4 C4         13.7580  -24.1820   -3.3400 C.ar      1 N4I100      0.0000 
      5 N4         14.8490  -18.3600   -4.6380 N.3       1 N4I100      0.0000 
      6 C5         16.0940  -17.6090   -4.6980 C.3       1 N4I100      0.0000 
      7 C6         19.0430  -16.5730   -8.2310 C.ar      1 N4I100      0.0000 
      8 N6         16.7240  -18.0520   -6.9840 N.4       1 N4I100      0.0000 
      9 C7         17.5790  -18.5750   -8.0430 C.3       1 N4I100      0.0000 
     10 C8         18.9310  -17.9170   -7.9240 C.ar      1 N4I100      0.0000 
     11 C9         20.2760  -15.9470   -8.1390 C.ar      1 N4I100      0.0000 
     12 O10        20.3780  -14.6280   -8.4440 O.3       1 N4I100      0.0000 
     13 C11        21.3970  -16.6510   -7.7280 C.ar      1 N4I100      0.0000 
     14 C12        21.2820  -18.0060   -7.4200 C.ar      1 N4I100      0.0000 
     15 C13        20.0470  -18.6400   -7.5170 C.ar      1 N4I100      0.0000 
     16 C14        20.0820  -19.7070   -3.9630 C.ar      1 N4I100      0.0000 
     17 C15        21.2960  -19.0590   -3.7460 C.ar      1 N4I100      0.0000 
     18 C16        21.4230  -18.1390   -2.7040 C.ar      1 N4I100      0.0000 
     19 C17        22.7370  -17.4440   -2.4640 C.3       1 N4I100      0.0000 
     20 F18        23.6980  -18.3410   -2.3820 F         1 N4I100      0.0000 
     21 F19        22.6750  -16.7710   -1.3360 F         1 N4I100      0.0000 
     22 F20        23.0300  -16.6310   -3.4530 F         1 N4I100      0.0000 
     23 N21        17.2800  -20.7490   -4.5730 N.pl3     1 N4I100      0.0000 
     24 C22        17.6500  -20.1430   -3.2860 C.3       1 N4I100      0.0000 
     25 C23        18.9950  -19.4420   -3.1290 C.ar      1 N4I100      0.0000 
     26 C24        20.3480  -17.8740   -1.8700 C.ar      1 N4I100      0.0000 
     27 C25        19.1380  -18.5260   -2.0910 C.ar      1 N4I100      0.0000 
     28 C26        12.5200  -24.8340   -2.7610 C.2       1 N4I100      0.0000 
     29 S27        17.4760  -22.2630   -4.8800 S.o2      1 N4I100      0.0000 
     30 N28        11.8230  -25.6960   -3.4960 N.am      1 N4I100      0.0000 
     31 O28        18.5960  -22.7400   -4.1310 O.2       1 N4I100      0.0000 
     32 O29        17.5860  -22.4400   -6.2780 O.2       1 N4I100      0.0000 
     33 C30        16.1210  -22.9820   -4.3380 C.ar      1 N4I100      0.0000 
     34 C31        15.9650  -23.2630   -2.9870 C.ar      1 N4I100      0.0000 
     35 C32        14.8010  -23.8490   -2.4820 C.ar      1 N4I100      0.0000 
     36 O33        12.1920  -24.5710   -1.6100 O.2       1 N4I100      0.0000 
     37 C34        13.8940  -23.9160   -4.7020 C.ar      1 N4I100      0.0000 
     38 C35        15.0670  -23.3120   -5.2000 C.ar      1 N4I100      0.0000 
     39 H          17.9551  -18.4087   -5.3280 H         1 N4I100      0.0000 
     40 H          16.2958  -20.3534   -6.3954 H         1 N4I100      0.0000 
     41 H          15.1863  -20.2562   -3.7798 H         1 N4I100      0.0000 
     42 H          14.3617  -20.2847   -5.3480 H         1 N4I100      0.0000 
     43 H          15.9580  -16.6578   -5.1545 H         1 N4I100      0.0000 
     44 H          16.5614  -17.5455   -3.7445 H         1 N4I100      0.0000 
     45 H          18.2150  -16.0391   -8.5266 H         1 N4I100      0.0000 
     46 H          17.1638  -18.3512   -9.0233 H         1 N4I100      0.0000 
     47 H          17.7019  -19.6516   -7.9466 H         1 N4I100      0.0000 
     48 H          22.3052  -16.1825   -7.6499 H         1 N4I100      0.0000 
     49 H          22.1105  -18.5358   -7.1213 H         1 N4I100      0.0000 
     50 H          19.9607  -19.6368   -7.2891 H         1 N4I100      0.0000 
     51 H          19.9863  -20.3774   -4.7335 H         1 N4I100      0.0000 
     52 H          22.1007  -19.2580   -4.3539 H         1 N4I100      0.0000 
     53 H          17.5838  -20.9299   -2.4676 H         1 N4I100      0.0000 
     54 H          16.8462  -19.4008   -2.9755 H         1 N4I100      0.0000 
     55 H          20.4401  -17.2066   -1.0992 H         1 N4I100      0.0000 
     56 H          18.3317  -18.3261   -1.4732 H         1 N4I100      0.0000 
     57 H          11.0136  -26.0910   -3.0614 H         1 N4I100      0.0000 
     58 H          12.1712  -25.8713   -4.4169 H         1 N4I100      0.0000 
     59 H          16.7367  -23.0315   -2.3269 H         1 N4I100      0.0000 
     60 H          14.7184  -24.0331   -1.4740 H         1 N4I100      0.0000 
     61 H          13.1373  -24.1594   -5.3539 H         1 N4I100      0.0000 
     62 H          15.1455  -23.1137   -6.2053 H         1 N4I100      0.0000 
     63 H          21.3526  -14.4748   -8.6072 H         1 N4I100      0.0000 
@<TRIPOS>BOND
     1    2    1 1    
     2    6    1 1    
     3    8    1 1    
     4   39    1 1    
     5    3    2 1    
     6   23    2 1    
     7   40    2 1    
     8    5    3 1    
     9   41    3 1    
    10   42    3 1    
    11   28    4 1    
    12   35    4 ar   
    13   37    4 ar   
    14    6    5 1    
    15   43    6 1    
    16   44    6 1    
    17   10    7 ar   
    18   11    7 ar   
    19   45    7 1    
    20    9    8 1    
    21   10    9 1    
    22   46    9 1    
    23   47    9 1    
    24   15   10 ar   
    25   12   11 1    
    26   13   11 ar   
    27   63   12 1    
    28   14   13 ar   
    29   48   13 1    
    30   15   14 ar   
    31   49   14 1    
    32   50   15 1    
    33   17   16 ar   
    34   25   16 ar   
    35   51   16 1    
    36   18   17 ar   
    37   52   17 1    
    38   19   18 1    
    39   26   18 ar   
    40   20   19 1    
    41   21   19 1    
    42   22   19 1    
    43   24   23 1    
    44   29   23 1    
    45   25   24 1    
    46   53   24 1    
    47   54   24 1    
    48   27   25 ar   
    49   27   26 ar   
    50   55   26 1    
    51   56   27 1    
    52   30   28 am   
    53   36   28 2    
    54   31   29 2    
    55   32   29 2    
    56   33   29 1    
    57   57   30 1    
    58   58   30 1    
    59   34   33 ar   
    60   38   33 ar   
    61   35   34 ar   
    62   59   34 1    
    63   60   35 1    
    64   38   37 ar   
    65   61   37 1    
    66   62   38 1    
@<TRIPOS>SUBSTRUCTURE
     1 N4I100      1 GROUP   
@<TRIPOS>SET

