#    Name: 1ya3_STR_2_INTS_M
#    Modification time : Mon Apr  7 15:40:00 2014

@<TRIPOS>MOLECULE
1ya3_STR_2_INTS_M
   76     0     6     0     0
SMALL
NO_CHARGES


@<TRIPOS>ATOM
      1 CA        126.1360   47.9475   -7.1055 C.3       2 GLC5        0.0000 
      2 CA        124.5740   49.2290   -6.4920 C.3       6 GLL5        0.0000 
      3 CA        127.6980   46.6660   -7.7190 C.3       4 GLP5        0.0000 
      4 CA        125.4220   49.9760   -4.6460 C.3       2 GLC5        0.0000 
      5 CA        126.2700   50.7230   -2.8000 C.3       4 GLP5        0.0000 
      6 CA        125.5095   51.1610   -8.1020 C.3       2 GLC5        0.0000 
      7 CA        123.9920   50.5860   -6.8680 C.3       6 GLL5        0.0000 
      8 CA        127.0270   51.7360   -9.3360 C.3       4 GLP5        0.0000 
      9 CA        122.3050   51.1090   -5.5490 C.3       2 GLC5        0.0000 
     10 CA        120.6180   51.6320   -4.2300 C.3       4 GLP5        0.0000 
     11 N         123.3475   52.6335   -8.1895 N.am      1 SEC2        0.0000 
     12 N         122.6290   51.3430   -8.6230 N.am      5 SEL2        0.0000 
     13 N         124.0660   53.9240   -7.7560 N.am      3 SEP2        0.0000 
     14 N         122.3455   52.3335   -9.4285 N.am      1 SEC2        0.0000 
     15 N         122.0620   53.3240  -10.2340 N.am      3 SEP2        0.0000 
     16 CA        122.8705   48.9010   -9.1835 C.3       2 GLC5        0.0000 
     17 CA        121.7830   49.3530   -7.6830 C.3       6 GLL5        0.0000 
     18 CA        123.9580   48.4490  -10.6840 C.3       4 GLP5        0.0000 
     19 CA        122.7170   47.7380   -8.5800 C.3       2 GLC5        0.0000 
     20 CA        122.0700   48.2710   -6.6590 C.3       6 GLL5        0.0000 
     21 CA        123.3640   47.2050  -10.5010 C.3       4 GLP5        0.0000 
     22 CA        119.2045   48.3010   -6.4940 C.3       2 GLC5        0.0000 
     23 CA        121.0610   47.1060   -6.4400 C.3       6 GLL5        0.0000 
     24 CA        117.3480   49.4960   -6.5480 C.3       4 GLP5        0.0000 
     25 CA        120.3325   44.0840   -5.9395 C.3       2 GLC5        0.0000 
     26 CA        121.7700   45.7720   -6.2870 C.3       6 GLL5        0.0000 
     27 CA        118.8950   42.3960   -5.5920 C.3       4 GLP5        0.0000 
     28 CA        124.2795   43.1195   -6.7415 C.3       2 GLC5        0.0000 
     29 CA        123.5550   44.1730   -5.2450 C.3       6 GLL5        0.0000 
     30 CA        125.0040   42.0660   -8.2380 C.3       4 GLP5        0.0000 
     31 CA        120.7715   42.6690   -5.1730 C.3       2 GLC5        0.0000 
     32 CA        122.6480   42.9420   -4.7540 C.3       6 GLL5        0.0000 
     33 CA        123.4920   41.9845   -2.0400 C.3       2 GLC5        0.0000 
     34 CA        123.6490   41.9520   -4.2390 C.3       6 GLL5        0.0000 
     35 CA        123.3350   42.0170    0.1590 C.3       4 GLP5        0.0000 
     36 CA        126.4450   41.7995   -5.7595 C.3       2 GLC5        0.0000 
     37 CA        125.0450   42.6140   -4.3980 C.3       6 GLL5        0.0000 
     38 CA        127.8450   40.9850   -7.1210 C.3       4 GLP5        0.0000 
     39 CA        125.0245   42.3400   -6.3180 C.3       2 GLC5        0.0000 
     40 CA        123.8585   46.0125   -1.0260 C.3       2 GLC5        0.0000 
     41 CA        124.3590   44.5210   -2.6170 C.3       6 GLL5        0.0000 
     42 CA        123.3580   47.5040    0.5650 C.3       4 GLP5        0.0000 
     43 CA        122.8145   44.9525   -1.8295 C.3       2 GLC5        0.0000 
     44 CA        121.2700   45.3840   -1.0420 C.3       4 GLP5        0.0000 
     45 CA        124.3830   43.9705   -0.9540 C.3       2 GLC5        0.0000 
     46 CA        124.4070   43.4200    0.7090 C.3       4 GLP5        0.0000 
     47 CA        124.7150   49.7300   -3.5210 C.3       2 GLC5        0.0000 
     48 CA        123.1600   48.7370   -4.2420 C.3       6 GLL5        0.0000 
     49 CA        123.2370   48.7745   -2.0895 C.3       2 GLC5        0.0000 
     50 CA        123.3140   48.8120    0.0630 C.3       4 GLP5        0.0000 
     51 CA        121.6560   47.4850   -3.2190 C.3       2 GLC5        0.0000 
     52 CA        120.1520   46.2330   -2.1960 C.3       4 GLP5        0.0000 
     53 CA        122.8055   50.2160   -3.3985 C.3       2 GLC5        0.0000 
     54 CA        122.4510   51.6950   -2.5550 C.3       4 GLP5        0.0000 
     55 CA        127.7750   41.6320   -5.5165 C.3       2 GLC5        0.0000 
     56 CA        127.7050   42.2790   -3.9120 C.3       6 GLL5        0.0000 
     57 CA        128.1285   41.1295   -2.5050 C.3       2 GLC5        0.0000 
     58 CA        128.5520   39.9800   -1.0980 C.3       4 GLP5        0.0000 
     59 CA        129.7315   41.8830   -3.3315 C.3       2 GLC5        0.0000 
     60 CA        131.7580   41.4870   -2.7510 C.3       4 GLP5        0.0000 
     61 CA        124.1205   49.1782   -8.6820 C.3       2 GLC5        0.0000 
     62 CA        121.2722   50.2220   -5.7005 C.3       2 GLC5        0.0000 
     63 CA        121.0427   48.5100   -8.9435 C.3       2 GLC5        0.0000 
     64 CA        120.1590   48.2080  -10.7160 C.3       4 GLP5        0.0000 
     65 CA        120.1587   45.7565   -7.6342 C.3       2 GLC5        0.0000 
     66 CA        118.9020   45.0740   -8.9050 C.3       4 GLP5        0.0000 
     67 CA        121.1536   46.1460   -4.0159 C.3       2 GLC5        0.0000 
     68 CA        127.5810   46.8115   -4.2125 C.3       2 GLC5        0.0000 
     69 CA        125.4460   46.6400   -4.8700 C.3       6 GLL5        0.0000 
     70 CA        129.4650   47.6920   -3.6060 C.3       4 GLP5        0.0000 
     71 CA        126.5272   46.3164   -6.3804 C.3       2 GLC5        0.0000 
     72 CA        125.9480   45.2220   -4.7680 C.3       6 GLL5        0.0000 
     73 CA        123.2142   42.0430   -6.3978 C.3       2 GLC5        0.0000 
     74 CA        123.2800   41.6390   -8.2990 C.3       4 GLP5        0.0000 
     75 CA        124.2710   40.3920   -4.1832 C.3       2 GLC5        0.0000 
     76 CA        124.1950   38.5010   -4.0480 C.3       4 GLP5        0.0000 
@<TRIPOS>BOND
@<TRIPOS>SUBSTRUCTURE
     1 SEC2       11 GROUP        1 X    SEC  0     ROOT SEC X 2
     2 GLC5        1 GROUP        1 X    GLC  0     **** GLC X 6
     3 SEP2       13 GROUP        1 Y    SEP  0     ROOT SEP Y 9
     4 GLP5        3 GROUP        1 Y    GLP  0     **** GLP Y 13
     5 SEL2       12 GROUP        1 Z    SEL  0     ROOT SEL Z 16
     6 GLL5        2 GROUP        1 Z    GLL  0     **** GLL Z 20
@<TRIPOS>SET

