#    Name: 1ya3_STR_2_ligand
#    Modification time : Mon Apr  7 15:40:00 2014

@<TRIPOS>MOLECULE
1ya3_STR_2_ligand
   53    56     1     0     0
SMALL
NO_CHARGES


@<TRIPOS>ATOM
      1 C1        124.5740   49.2290   -6.4920 C.3       1 STR2001     0.0000 
      2 C2        123.9920   50.5860   -6.8680 C.3       1 STR2001     0.0000 
      3 C3        122.7480   50.4690   -7.7740 C.2       1 STR2001     0.0000 
      4 O3        122.6290   51.3430   -8.6230 O.2       1 STR2001     0.0000 
      5 C4        121.7830   49.3530   -7.6830 C.2       1 STR2001     0.0000 
      6 C5        122.0700   48.2710   -6.6590 C.2       1 STR2001     0.0000 
      7 C6        121.0610   47.1060   -6.4400 C.3       1 STR2001     0.0000 
      8 C7        121.7700   45.7720   -6.2870 C.3       1 STR2001     0.0000 
      9 C8        122.8950   45.6790   -5.3080 C.3       1 STR2001     0.0000 
     10 C9        124.0840   46.7830   -5.7610 C.3       1 STR2001     0.0000 
     11 C10       123.5350   48.2120   -5.8040 C.3       1 STR2001     0.0000 
     12 C11       125.4460   46.6400   -4.8700 C.3       1 STR2001     0.0000 
     13 C12       125.9480   45.2220   -4.7680 C.3       1 STR2001     0.0000 
     14 C13       124.7730   44.1290   -4.2030 C.3       1 STR2001     0.0000 
     15 C14       123.5550   44.1730   -5.2450 C.3       1 STR2001     0.0000 
     16 C15       122.6480   42.9420   -4.7540 C.3       1 STR2001     0.0000 
     17 C16       123.6490   41.9520   -4.2390 C.3       1 STR2001     0.0000 
     18 C17       125.0450   42.6140   -4.3980 C.3       1 STR2001     0.0000 
     19 C18       124.3590   44.5210   -2.6170 C.3       1 STR2001     0.0000 
     20 C19       123.1600   48.7370   -4.2420 C.3       1 STR2001     0.0000 
     21 C20       126.2140   41.9500   -3.6090 C.2       1 STR2001     0.0000 
     22 O20       125.9580   41.1560   -2.6740 O.2       1 STR2001     0.0000 
     23 C21       127.7050   42.2790   -3.9120 C.3       1 STR2001     0.0000 
     24 H         125.4092   49.3560   -5.7888 H         1 STR2001     0.0000 
     25 H         124.9696   48.7251   -7.3852 H         1 STR2001     0.0000 
     26 H         124.7521   51.1758   -7.3916 H         1 STR2001     0.0000 
     27 H         123.7123   51.1272   -5.9576 H         1 STR2001     0.0000 
     28 H         120.9936   49.2983   -8.2465 H         1 STR2001     0.0000 
     29 H         120.3864   47.0710   -7.2958 H         1 STR2001     0.0000 
     30 H         120.4783   47.3207   -5.5439 H         1 STR2001     0.0000 
     31 H         122.1416   45.4566   -7.3022 H         1 STR2001     0.0000 
     32 H         120.9971   44.9941   -6.0309 H         1 STR2001     0.0000 
     33 H         122.6083   45.9530   -4.3274 H         1 STR2001     0.0000 
     34 H         124.3583   46.4782   -6.7899 H         1 STR2001     0.0000 
     35 H         125.2090   47.0458   -3.8846 H         1 STR2001     0.0000 
     36 H         126.1877   47.2875   -5.3419 H         1 STR2001     0.0000 
     37 H         126.7707   45.1273   -4.0650 H         1 STR2001     0.0000 
     38 H         126.2517   44.8236   -5.7319 H         1 STR2001     0.0000 
     39 H         123.9738   43.9221   -6.1968 H         1 STR2001     0.0000 
     40 H         122.1329   42.5739   -5.5976 H         1 STR2001     0.0000 
     41 H         122.0210   43.2996   -3.9849 H         1 STR2001     0.0000 
     42 H         123.6292   41.0537   -4.8225 H         1 STR2001     0.0000 
     43 H         123.4836   41.7505   -3.1998 H         1 STR2001     0.0000 
     44 H         125.2728   42.5049   -5.5063 H         1 STR2001     0.0000 
     45 H         125.1497   44.4812   -2.0061 H         1 STR2001     0.0000 
     46 H         123.9823   45.4448   -2.5490 H         1 STR2001     0.0000 
     47 H         123.6713   43.8961   -2.2474 H         1 STR2001     0.0000 
     48 H         123.9726   48.7851   -3.6612 H         1 STR2001     0.0000 
     49 H         122.7478   49.6481   -4.2454 H         1 STR2001     0.0000 
     50 H         122.5123   48.1240   -3.7896 H         1 STR2001     0.0000 
     51 H         128.3262   41.7699   -3.3162 H         1 STR2001     0.0000 
     52 H         127.9513   42.0523   -4.8543 H         1 STR2001     0.0000 
     53 H         127.9048   43.2502   -3.7824 H         1 STR2001     0.0000 
@<TRIPOS>BOND
     1    2    1 1    
     2   11    1 1    
     3   24    1 1    
     4   25    1 1    
     5    3    2 1    
     6   26    2 1    
     7   27    2 1    
     8    4    3 2    
     9    5    3 1    
    10    6    5 2    
    11   28    5 1    
    12    7    6 1    
    13   11    6 1    
    14    8    7 1    
    15   29    7 1    
    16   30    7 1    
    17    9    8 1    
    18   31    8 1    
    19   32    8 1    
    20   10    9 1    
    21   15    9 1    
    22   33    9 1    
    23   11   10 1    
    24   12   10 1    
    25   34   10 1    
    26   20   11 1    
    27   13   12 1    
    28   35   12 1    
    29   36   12 1    
    30   14   13 1    
    31   37   13 1    
    32   38   13 1    
    33   15   14 1    
    34   18   14 1    
    35   19   14 1    
    36   16   15 1    
    37   39   15 1    
    38   17   16 1    
    39   40   16 1    
    40   41   16 1    
    41   18   17 1    
    42   42   17 1    
    43   43   17 1    
    44   21   18 1    
    45   44   18 1    
    46   45   19 1    
    47   46   19 1    
    48   47   19 1    
    49   48   20 1    
    50   49   20 1    
    51   50   20 1    
    52   22   21 2    
    53   23   21 1    
    54   51   23 1    
    55   52   23 1    
    56   53   23 1    
@<TRIPOS>SUBSTRUCTURE
     1 STR2001     1 GROUP   
@<TRIPOS>SET

