#    Name: 1ty9_FMN_1_INTS_M
#    Modification time : Tue Mar 25 05:46:46 2014

@<TRIPOS>MOLECULE
1ty9_FMN_1_INTS_M
   80     0    12     0     0
SMALL
NO_CHARGES


@<TRIPOS>ATOM
      1 N          13.1580   -5.0775   72.5030 N.am      2 SEC2        0.0000 
      2 N          13.8070   -3.7410   72.6920 N.am     10 SEL2        0.0000 
      3 N          12.5090   -6.4140   72.3140 N.am      6 SEP2        0.0000 
      4 N          12.6095   -3.1690   73.7420 N.am      2 SEC2        0.0000 
      5 N          11.4120   -2.5970   74.7920 N.am      6 SEP2        0.0000 
      6 O          16.1960   -4.5380   71.8025 O.2       1 ALC1        0.0000 
      7 O          15.6980   -3.1690   71.6830 O.2       9 ALL1        0.0000 
      8 O          16.6940   -5.9070   71.9220 O.2       5 ALP1        0.0000 
      9 N          17.9540   -2.2985   69.1125 N.am      2 SEC2        0.0000 
     10 N          17.5580   -2.6680   70.4950 N.am     10 SEL2        0.0000 
     11 N          18.3500   -1.9290   67.7300 N.am      6 SEP2        0.0000 
     12 CA         15.9415   -0.4530   68.5175 C.3       4 GLC5        0.0000 
     13 CA         15.9130    1.1240   69.7710 C.3      12 GLL5        0.0000 
     14 CA         15.9700   -2.0300   67.2640 C.3       8 GLP5        0.0000 
     15 CA         16.7060    5.5765   66.8955 C.3       4 GLC5        0.0000 
     16 CA         16.8700    4.2330   67.9530 C.3      12 GLL5        0.0000 
     17 CA         16.5420    6.9200   65.8380 C.3       8 GLP5        0.0000 
     18 CA         14.5515    5.9520   67.4020 C.3       4 GLC5        0.0000 
     19 CA         13.8880    4.7080   68.6610 C.3      12 GLL5        0.0000 
     20 CA         15.2150    7.1960   66.1430 C.3       8 GLP5        0.0000 
     21 CA         12.0665    5.2835   67.5320 C.3       4 GLC5        0.0000 
     22 CA         10.2450    5.8590   66.4030 C.3       8 GLP5        0.0000 
     23 CA         13.1790    5.9110   69.8980 C.3       4 GLC5        0.0000 
     24 CA         12.4700    7.1140   71.1350 C.3       8 GLP5        0.0000 
     25 N          10.8850    1.9690   68.6800 N.am      2 SEC2        0.0000 
     26 N          11.4490    0.6450   68.9370 N.am     10 SEL2        0.0000 
     27 N          10.3210    3.2930   68.4230 N.am      6 SEP2        0.0000 
     28 O          12.5425    0.0950   68.3455 O.2       1 ALC1        0.0000 
     29 O          11.4490    0.6450   68.9370 O.2       9 ALL1        0.0000 
     30 O          13.6360   -0.4550   67.7540 O.2       5 ALP1        0.0000 
     31 O           8.7535    1.0825   70.4120 O.2       1 ALC1        0.0000 
     32 O           9.6530    0.7040   71.2300 O.2       9 ALL1        0.0000 
     33 O           7.8540    1.4610   69.5940 O.2       5 ALP1        0.0000 
     34 N          10.8330   -3.8170   71.1875 N.am      2 SEC2        0.0000 
     35 N          11.1640   -2.5410   71.3990 N.am     10 SEL2        0.0000 
     36 N          10.5020   -5.0930   70.9760 N.am      6 SEP2        0.0000 
     37 NZ          7.7670   -3.8470   67.7685 N.4       3 LYC4        0.0000 
     38 NZ          6.8900   -3.4820   68.7860 N.4      11 LYL4        0.0000 
     39 NZ          7.9670   -5.1410   66.0740 N.4       7 LYP4        0.0000 
     40 N           7.7670   -3.8470   67.7685 N.am      2 SEC2        0.0000 
     41 N           6.8900   -3.4820   68.7860 N.am     10 SEL2        0.0000 
     42 N           8.6440   -4.2120   66.7510 N.am      6 SEP2        0.0000 
     43 N           6.8485   -4.5450   67.6625 N.am      2 SEC2        0.0000 
     44 N           6.8070   -5.6080   66.5390 N.am      6 SEP2        0.0000 
     45 NZ          9.0650   -5.0940   70.7335 N.4       3 LYC4        0.0000 
     46 NZ          7.6280   -5.0950   70.4910 N.4      11 LYL4        0.0000 
     47 NZ         10.5020   -5.0930   70.9760 N.4       7 LYP4        0.0000 
     48 N           7.3735   -6.3695   70.1105 N.am      2 SEC2        0.0000 
     49 N           7.6280   -5.0950   70.4910 N.am     10 SEL2        0.0000 
     50 N           7.1190   -7.6440   69.7300 N.am      6 SEP2        0.0000 
     51 N           9.0650   -5.0940   70.7335 N.am      2 SEC2        0.0000 
     52 NZ          5.9705   -1.7535   71.4560 N.4       3 LYC4        0.0000 
     53 NZ          6.0680   -3.1640   71.0750 N.4      11 LYL4        0.0000 
     54 NZ          6.2760    0.2430   72.9900 N.4       7 LYP4        0.0000 
     55 N           6.1775   -3.2470   72.3595 N.am      2 SEC2        0.0000 
     56 N           6.0680   -3.1640   71.0750 N.am     10 SEL2        0.0000 
     57 N           6.2870   -3.3300   73.6440 N.am      6 SEP2        0.0000 
     58 N           5.9705   -1.7535   71.4560 N.am      2 SEC2        0.0000 
     59 N           5.8730   -0.3430   71.8370 N.am      6 SEP2        0.0000 
     60 CA         15.9682    1.6502   67.4880 C.3       4 GLC5        0.0000 
     61 CA         15.6700    1.6880   65.5530 C.3       8 GLP5        0.0000 
     62 CA         18.0648    1.0017   69.0750 C.3       4 GLC5        0.0000 
     63 CA         16.6200    2.1010   69.0750 C.3      12 GLL5        0.0000 
     64 CA         19.8630    0.3910   68.7270 C.3       8 GLP5        0.0000 
     65 CA         16.0560    2.7220   66.9570 C.3       4 GLC5        0.0000 
     66 CA         17.6913    4.3673   69.4898 C.3       4 GLC5        0.0000 
     67 CA         18.7890    5.2730   70.5420 C.3       8 GLP5        0.0000 
     68 CA         15.6293    5.4420   69.9453 C.3       4 GLC5        0.0000 
     69 CA         14.6870    3.5380   69.1720 C.3      12 GLL5        0.0000 
     70 CA         16.9710    6.7610   70.9740 C.3       8 GLP5        0.0000 
     71 CA         14.1004    2.5133   67.4854 C.3       4 GLC5        0.0000 
     72 CA         14.0800    1.6810   65.5890 C.3       8 GLP5        0.0000 
     73 CA         10.5730   -1.3333   68.7557 C.3       4 GLC5        0.0000 
     74 CA         11.5800   -0.1990   70.1180 C.3      12 GLL5        0.0000 
     75 CA         10.2750   -2.3270   67.1400 C.3       8 GLP5        0.0000 
     76 CA         10.1860   -3.4882   70.6252 C.3       4 GLC5        0.0000 
     77 CA         10.1410   -1.5970   71.6850 C.3      12 GLL5        0.0000 
     78 CA         10.9220   -5.0690   69.5650 C.3       8 GLP5        0.0000 
     79 CA          9.3035   -2.5568   73.5693 C.3       4 GLC5        0.0000 
     80 CA          9.1570   -3.2060   75.4530 C.3       8 GLP5        0.0000 
@<TRIPOS>BOND
@<TRIPOS>SUBSTRUCTURE
     1 ALC1        6 GROUP        1 X    ALC  0     ROOT ALC X 1
     2 SEC2        1 GROUP        1 X    SEC  0     **** SEC X 2
     3 LYC4       37 GROUP        1 X    LYC  0     **** LYC X 4
     4 GLC5       12 GROUP        1 X    GLC  0     **** GLC X 6
     5 ALP1        8 GROUP        1 Y    ALP  0     ROOT ALP Y 8
     6 SEP2        3 GROUP        1 Y    SEP  0     **** SEP Y 9
     7 LYP4       39 GROUP        1 Y    LYP  0     **** LYP Y 11
     8 GLP5       14 GROUP        1 Y    GLP  0     **** GLP Y 13
     9 ALL1        7 GROUP        1 Z    ALL  0     ROOT ALL Z 15
    10 SEL2        2 GROUP        1 Z    SEL  0     **** SEL Z 16
    11 LYL4       38 GROUP        1 Z    LYL  0     **** LYL Z 18
    12 GLL5       13 GROUP        1 Z    GLL  0     **** GLL Z 20
@<TRIPOS>SET

