#    Name: 1ty9_FMN_1_ligand
#    Modification time : Tue Mar 25 05:46:46 2014

@<TRIPOS>MOLECULE
1ty9_FMN_1_ligand
   50    52     1     0     0
SMALL
NO_CHARGES


@<TRIPOS>ATOM
      1 N1         13.7840   -1.7360   71.8020 N.2       1 FMN251      0.0000 
      2 C2         14.4110   -2.9290   72.0860 C.2       1 FMN251      0.0000 
      3 O2         13.8070   -3.7410   72.6920 O.2       1 FMN251      0.0000 
      4 N3         15.6980   -3.1690   71.6830 N.am      1 FMN251      0.0000 
      5 C4         16.4540   -2.2820   70.9720 C.2       1 FMN251      0.0000 
      6 O4         17.5580   -2.6680   70.4950 O.2       1 FMN251      0.0000 
      7 C4A        15.8870   -1.0180   70.7090 C.2       1 FMN251      0.0000 
      8 N5         16.5720   -0.0390   70.0410 N.2       1 FMN251      0.0000 
      9 C5A        15.9130    1.1240   69.7710 C.ar      1 FMN251      0.0000 
     10 C6         16.6200    2.1010   69.0750 C.ar      1 FMN251      0.0000 
     11 C7         16.0140    3.2790   68.7690 C.ar      1 FMN251      0.0000 
     12 C7M        16.8700    4.2330   67.9530 C.3       1 FMN251      0.0000 
     13 C8         14.6870    3.5380   69.1720 C.ar      1 FMN251      0.0000 
     14 C8M        13.8880    4.7080   68.6610 C.3       1 FMN251      0.0000 
     15 C9         13.9540    2.5680   69.8470 C.ar      1 FMN251      0.0000 
     16 C9A        14.5900    1.3670   70.1790 C.ar      1 FMN251      0.0000 
     17 N10        13.8980    0.4070   70.8850 N.pl3     1 FMN251      0.0000 
     18 C10        14.5160   -0.7940   71.0910 C.2       1 FMN251      0.0000 
     19 C1'        12.4580    0.5470   71.1980 C.3       1 FMN251      0.0000 
     20 C2'        11.5800   -0.1990   70.1180 C.3       1 FMN251      0.0000 
     21 O2'        11.4490    0.6450   68.9370 O.3       1 FMN251      0.0000 
     22 C3'        10.1620   -0.4800   70.6250 C.3       1 FMN251      0.0000 
     23 O3'         9.6530    0.7040   71.2300 O.3       1 FMN251      0.0000 
     24 C4'        10.1410   -1.5970   71.6850 C.3       1 FMN251      0.0000 
     25 O4'        11.1640   -2.5410   71.3990 O.3       1 FMN251      0.0000 
     26 C5'         8.7590   -2.2180   71.6860 C.3       1 FMN251      0.0000 
     27 O5'         8.4770   -2.6920   70.3590 O.3       1 FMN251      0.0000 
     28 P           7.2130   -3.6940   70.2080 P.3       1 FMN251      0.0000 
     29 O1P         6.8900   -3.4820   68.7860 O.co2     1 FMN251      0.0000 
     30 O2P         7.6280   -5.0950   70.4910 O.co2     1 FMN251      0.0000 
     31 O3P         6.0680   -3.1640   71.0750 O.co2     1 FMN251      0.0000 
     32 H          16.1336   -4.1049   71.9409 H         1 FMN251      0.0000 
     33 H          17.5962    1.9180   68.8001 H         1 FMN251      0.0000 
     34 H          12.9819    2.7237   70.0943 H         1 FMN251      0.0000 
     35 H          12.1539    1.5917   71.1963 H         1 FMN251      0.0000 
     36 H          12.2206    0.1099   72.1657 H         1 FMN251      0.0000 
     37 H          12.0559   -1.1205   69.8756 H         1 FMN251      0.0000 
     38 H           9.5525   -0.7864   69.7983 H         1 FMN251      0.0000 
     39 H          10.2970   -1.1163   72.6460 H         1 FMN251      0.0000 
     40 H           8.0419   -1.4594   72.0005 H         1 FMN251      0.0000 
     41 H           8.7486   -3.0314   72.4118 H         1 FMN251      0.0000 
     42 H          17.7120    4.4795   68.4329 H         1 FMN251      0.0000 
     43 H          17.1384    3.8338   67.0763 H         1 FMN251      0.0000 
     44 H          16.3873    5.0853   67.7515 H         1 FMN251      0.0000 
     45 H          14.3219    5.5805   68.8856 H         1 FMN251      0.0000 
     46 H          13.7830    4.6802   67.6669 H         1 FMN251      0.0000 
     47 H          12.9680    4.7288   69.0524 H         1 FMN251      0.0000 
     48 H          12.2036    0.3731   68.3398 H         1 FMN251      0.0000 
     49 H           9.3507    1.2751   70.4668 H         1 FMN251      0.0000 
     50 H          11.9663   -2.2118   71.8969 H         1 FMN251      0.0000 
@<TRIPOS>BOND
     1    2    1 1    
     2   18    1 2    
     3    3    2 2    
     4    4    2 am   
     5    5    4 am   
     6   32    4 1    
     7    6    5 2    
     8    7    5 1    
     9    8    7 2    
    10   18    7 1    
    11    9    8 1    
    12   10    9 ar   
    13   16    9 ar   
    14   11   10 ar   
    15   33   10 1    
    16   12   11 1    
    17   13   11 ar   
    18   42   12 1    
    19   43   12 1    
    20   44   12 1    
    21   14   13 1    
    22   15   13 ar   
    23   45   14 1    
    24   46   14 1    
    25   47   14 1    
    26   16   15 ar   
    27   34   15 1    
    28   17   16 1    
    29   18   17 1    
    30   19   17 1    
    31   20   19 1    
    32   35   19 1    
    33   36   19 1    
    34   21   20 1    
    35   22   20 1    
    36   37   20 1    
    37   48   21 1    
    38   23   22 1    
    39   24   22 1    
    40   38   22 1    
    41   49   23 1    
    42   25   24 1    
    43   26   24 1    
    44   39   24 1    
    45   50   25 1    
    46   27   26 1    
    47   40   26 1    
    48   41   26 1    
    49   28   27 1    
    50   29   28 ar   
    51   30   28 ar   
    52   31   28 ar   
@<TRIPOS>SUBSTRUCTURE
     1 FMN251      1 GROUP   
@<TRIPOS>SET

