#    Name: 3dkg_SX8_1_INTS_M
#    Modification time : Mon Mar 24 23:35:15 2014

@<TRIPOS>MOLECULE
3dkg_SX8_1_INTS_M
   52     0     6     0     0
SMALL
NO_CHARGES


@<TRIPOS>ATOM
      1 CA         17.7315   17.5725   60.3815 C.3       2 GLC5        0.0000 
      2 CA         16.1870   16.5270   60.1180 C.3       6 GLL5        0.0000 
      3 CA         19.2760   18.6180   60.6450 C.3       4 GLP5        0.0000 
      4 CA         15.7375   18.1550   59.2435 C.3       2 GLC5        0.0000 
      5 CA         15.2880   19.7830   58.3690 C.3       4 GLP5        0.0000 
      6 CA         13.1235   13.1410   64.0110 C.3       2 GLC5        0.0000 
      7 CA         11.6460   12.1020   62.8620 C.3       6 GLL5        0.0000 
      8 CA         14.6010   14.1800   65.1600 C.3       4 GLP5        0.0000 
      9 CA         16.4525   13.0645   61.7935 C.3       2 GLC5        0.0000 
     10 CA         14.5330   13.3040   61.0180 C.3       6 GLL5        0.0000 
     11 CA         18.3720   12.8250   62.5690 C.3       4 GLP5        0.0000 
     12 N          17.8420   18.1250   58.4055 N.am      1 SEC2        0.0000 
     13 N          17.9340   16.6740   58.3420 N.am      5 SEL2        0.0000 
     14 N          17.7500   19.5760   58.4690 N.am      3 SEP2        0.0000 
     15 CA         17.8810   11.1795   55.9965 C.3       2 GLC5        0.0000 
     16 CA         18.4010   13.0120   57.1090 C.3       6 GLL5        0.0000 
     17 CA         17.3610    9.3470   54.8840 C.3       4 GLP5        0.0000 
     18 CA         19.0645    9.6550   57.3825 C.3       2 GLC5        0.0000 
     19 CA         18.6930   11.0310   58.9870 C.3       6 GLL5        0.0000 
     20 CA         19.4360    8.2790   55.7780 C.3       4 GLP5        0.0000 
     21 CA         21.4270   11.4255   62.0750 C.3       2 GLC5        0.0000 
     22 CA         20.7340   10.6720   60.3160 C.3       6 GLL5        0.0000 
     23 CA         22.1200   12.1790   63.8340 C.3       4 GLP5        0.0000 
     24 CA         22.0095   12.5695   61.3720 C.3       2 GLC5        0.0000 
     25 CA         21.3290   11.7570   59.6640 C.3       6 GLL5        0.0000 
     26 CA         22.6900   13.3820   63.0800 C.3       4 GLP5        0.0000 
     27 CA         21.3350   14.5845   58.7735 C.3       2 GLC5        0.0000 
     28 CA         20.6250   12.4810   58.6820 C.3       6 GLL5        0.0000 
     29 CA         22.0450   16.6880   58.8650 C.3       4 GLP5        0.0000 
     30 CA         21.1600   13.2630   57.0655 C.3       2 GLC5        0.0000 
     31 CA         21.6950   14.0450   55.4490 C.3       4 GLP5        0.0000 
     32 CA         21.9880   10.0055   62.9920 C.3       2 GLC5        0.0000 
     33 CA         20.8300    8.9410   61.8790 C.3       6 GLL5        0.0000 
     34 CA         23.1460   11.0700   64.1050 C.3       4 GLP5        0.0000 
     35 N          22.5180   10.2290   62.0495 N.am      1 SEC2        0.0000 
     36 N          21.4290    9.9810   61.2490 N.am      5 SEL2        0.0000 
     37 N          23.6070   10.4770   62.8500 N.am      3 SEP2        0.0000 
     38 CA         15.0270   17.6610   61.4625 C.3       2 GLC5        0.0000 
     39 CA         15.3670   15.6630   60.7380 C.3       6 GLL5        0.0000 
     40 CA         14.2770   19.2270   62.4970 C.3       4 GLP5        0.0000 
     41 CA         17.4085   15.1855   61.0885 C.3       2 GLC5        0.0000 
     42 CA         19.0400   14.2760   61.7490 C.3       4 GLP5        0.0000 
     43 CA         14.2677   13.8048   63.2522 C.3       2 GLC5        0.0000 
     44 CA         20.2740   13.3050   56.5905 C.3       2 GLC5        0.0000 
     45 CA         19.3050   12.1180   58.3550 C.3       6 GLL5        0.0000 
     46 CA         19.8435   13.1521   60.4201 C.3       2 GLC5        0.0000 
     47 CA         18.8642   11.3851   61.4204 C.3       2 GLC5        0.0000 
     48 CA         18.5783    7.6950   60.3170 C.3       2 GLC5        0.0000 
     49 CA         19.4020   10.3110   59.9720 C.3       6 GLL5        0.0000 
     50 CA         17.8290    6.2470   59.6710 C.3       4 GLP5        0.0000 
     51 CA         21.5338   10.4009   58.5903 C.3       2 GLC5        0.0000 
     52 CA         22.7100    9.5420   57.5630 C.3       4 GLP5        0.0000 
@<TRIPOS>BOND
@<TRIPOS>SUBSTRUCTURE
     1 SEC2       12 GROUP        1 X    SEC  0     ROOT SEC X 2
     2 GLC5        1 GROUP        1 X    GLC  0     **** GLC X 6
     3 SEP2       14 GROUP        1 Y    SEP  0     ROOT SEP Y 9
     4 GLP5        3 GROUP        1 Y    GLP  0     **** GLP Y 13
     5 SEL2       13 GROUP        1 Z    SEL  0     ROOT SEL Z 16
     6 GLL5        2 GROUP        1 Z    GLL  0     **** GLL Z 20
@<TRIPOS>SET

