#    Name: 3dkg_SX8_1_ligand
#    Modification time : Mon Mar 24 23:35:15 2014

@<TRIPOS>MOLECULE
3dkg_SX8_1_ligand
   39    43     1     0     0
SMALL
NO_CHARGES


@<TRIPOS>ATOM
      1 C7         16.1870   16.5270   60.1180 C.2       1 SX81        0.0000 
      2 C6         15.3670   15.6630   60.7380 C.2       1 SX81        0.0000 
      3 C1         11.6460   12.1020   62.8620 C.3       1 SX81        0.0000 
      4 N1         12.8660   12.3510   62.1220 N.pl3     1 SX81        0.0000 
      5 C5         15.4430   14.2210   60.3410 C.2       1 SX81        0.0000 
      6 C4         14.6700   11.8950   61.1400 C.2       1 SX81        0.0000 
      7 C3         14.5330   13.3040   61.0180 C.2       1 SX81        0.0000 
      8 C2         13.3360   13.5550   61.6710 C.2       1 SX81        0.0000 
      9 N2         13.6660   11.3240   61.8060 N.2       1 SX81        0.0000 
     10 N7         16.2420   13.7300   59.4300 N.2       1 SX81        0.0000 
     11 N6         17.0620   14.6850   58.8530 N.pl3     1 SX81        0.0000 
     12 C8         17.0690   16.0540   59.1200 C.2       1 SX81        0.0000 
     13 C9         18.0170   14.5340   57.8720 C.2       1 SX81        0.0000 
     14 N4         18.5470   15.7090   57.5700 N.2       1 SX81        0.0000 
     15 N3         17.9340   16.6740   58.3420 N.2       1 SX81        0.0000 
     16 S1         18.4010   13.0120   57.1090 S.3       1 SX81        0.0000 
     17 C10        19.3050   12.1180   58.3550 C.ar      1 SX81        0.0000 
     18 C18        18.6930   11.0310   58.9870 C.ar      1 SX81        0.0000 
     19 C17        19.4020   10.3110   59.9720 C.ar      1 SX81        0.0000 
     20 C13        20.7340   10.6720   60.3160 C.ar      1 SX81        0.0000 
     21 C12        21.3290   11.7570   59.6640 C.ar      1 SX81        0.0000 
     22 C11        20.6250   12.4810   58.6820 C.ar      1 SX81        0.0000 
     23 C16        18.8220    9.2190   60.6460 C.ar      1 SX81        0.0000 
     24 C15        19.5430    8.5210   61.6170 C.ar      1 SX81        0.0000 
     25 C14        20.8300    8.9410   61.8790 C.ar      1 SX81        0.0000 
     26 N5         21.4290    9.9810   61.2490 N.ar      1 SX81        0.0000 
     27 H          16.1975   17.5308   60.3445 H         1 SX81        0.0000 
     28 H          14.7012   15.9034   61.4515 H         1 SX81        0.0000 
     29 H          15.4493   11.4271   60.7535 H         1 SX81        0.0000 
     30 H          12.9297   14.4019   61.7789 H         1 SX81        0.0000 
     31 H          17.7419   10.7562   58.7420 H         1 SX81        0.0000 
     32 H          22.2917   12.0329   59.9013 H         1 SX81        0.0000 
     33 H          21.0721   13.2680   58.2083 H         1 SX81        0.0000 
     34 H          17.8600    8.9376   60.4177 H         1 SX81        0.0000 
     35 H          19.1291    7.7374   62.1055 H         1 SX81        0.0000 
     36 H          21.3772    8.4113   62.6210 H         1 SX81        0.0000 
     37 H          11.5327   11.1317   63.0756 H         1 SX81        0.0000 
     38 H          11.6309   12.5971   63.7307 H         1 SX81        0.0000 
     39 H          10.8359   12.3857   62.3489 H         1 SX81        0.0000 
@<TRIPOS>BOND
     1    2    1 2    
     2   12    1 1    
     3   27    1 1    
     4    5    2 1    
     5   28    2 1    
     6    4    3 1    
     7   37    3 1    
     8   38    3 1    
     9   39    3 1    
    10    8    4 1    
    11    9    4 1    
    12    7    5 1    
    13   10    5 2    
    14    7    6 1    
    15    9    6 2    
    16   29    6 1    
    17    8    7 2    
    18   30    8 1    
    19   11   10 1    
    20   12   11 1    
    21   13   11 1    
    22   15   12 2    
    23   14   13 2    
    24   16   13 1    
    25   15   14 1    
    26   17   16 1    
    27   18   17 ar   
    28   22   17 ar   
    29   19   18 ar   
    30   31   18 1    
    31   20   19 ar   
    32   23   19 ar   
    33   21   20 ar   
    34   26   20 ar   
    35   22   21 ar   
    36   32   21 1    
    37   33   22 1    
    38   24   23 ar   
    39   34   23 1    
    40   25   24 ar   
    41   35   24 1    
    42   26   25 ar   
    43   36   25 1    
@<TRIPOS>SUBSTRUCTURE
     1 SX81        1 GROUP   
@<TRIPOS>SET

