#    Name: 3co9_3MS_2_INTS_M
#    Modification time : Mon Mar 24 22:02:16 2014

@<TRIPOS>MOLECULE
3co9_3MS_2_INTS_M
   58     0     9     0     0
SMALL
NO_CHARGES


@<TRIPOS>ATOM
      1 CA         74.0785   59.6160   43.6760 C.3       3 GLC5        0.0000 
      2 CA         75.1200   61.1730   44.3280 C.3       9 GLL5        0.0000 
      3 CA         73.0370   58.0590   43.0240 C.3       6 GLP5        0.0000 
      4 CA         76.0985   61.1580   55.4940 C.3       3 GLC5        0.0000 
      5 CA         75.4050   62.1170   54.0290 C.3       9 GLL5        0.0000 
      6 CA         76.7920   60.1990   56.9590 C.3       6 GLP5        0.0000 
      7 CA         76.7715   59.9155   53.2695 C.3       3 GLC5        0.0000 
      8 CA         75.0040   60.7420   52.2740 C.3       9 GLL5        0.0000 
      9 CA         78.5390   59.0890   54.2650 C.3       6 GLP5        0.0000 
     10 CA         81.8875   61.5720   54.7480 C.3       3 GLC5        0.0000 
     11 CA         80.5330   62.1090   53.4570 C.3       9 GLL5        0.0000 
     12 CA         83.2420   61.0350   56.0390 C.3       6 GLP5        0.0000 
     13 CA         82.1000   63.1820   52.6155 C.3       3 GLC5        0.0000 
     14 CA         83.6670   64.2550   51.7740 C.3       6 GLP5        0.0000 
     15 CA         73.2495   59.8650   39.3420 C.3       3 GLC5        0.0000 
     16 CA         73.4540   61.2200   40.9990 C.3       9 GLL5        0.0000 
     17 CA         73.0450   58.5100   37.6850 C.3       6 GLP5        0.0000 
     18 CA         73.2455   59.6395   42.0115 C.3       3 GLC5        0.0000 
     19 N          75.4510   61.8345   38.4760 N.am      2 SEC2        0.0000 
     20 N          75.7260   61.8520   39.8890 N.am      8 SEL2        0.0000 
     21 N          75.1760   61.8170   37.0630 N.am      5 SEP2        0.0000 
     22 N          76.9675   62.8965   39.9030 N.am      2 SEC2        0.0000 
     23 N          78.2090   63.9410   39.9170 N.am      5 SEP2        0.0000 
     24 O          75.7220   63.7810   41.7745 O.2       1 ALC1        0.0000 
     25 O          75.4360   62.5620   42.2950 O.2       7 ALL1        0.0000 
     26 O          76.0080   65.0000   41.2540 O.2       4 ALP1        0.0000 
     27 CA         77.7800   64.8110   44.1935 C.3       3 GLC5        0.0000 
     28 CA         76.5050   63.1640   44.3890 C.3       9 GLL5        0.0000 
     29 CA         79.0550   66.4580   43.9980 C.3       6 GLP5        0.0000 
     30 CA         78.2835   63.8835   46.7060 C.3       3 GLC5        0.0000 
     31 CA         76.7650   62.9330   45.7490 C.3       9 GLL5        0.0000 
     32 CA         79.8020   64.8340   47.6630 C.3       6 GLP5        0.0000 
     33 N          75.1410   57.8220   50.3385 N.am      2 SEC2        0.0000 
     34 N          74.6090   59.0890   50.6350 N.am      8 SEL2        0.0000 
     35 N          75.6730   56.5550   50.0420 N.am      5 SEP2        0.0000 
     36 CA         78.1225   64.7530   50.7420 C.3       3 GLC5        0.0000 
     37 CA         77.1630   63.8270   52.3800 C.3       9 GLL5        0.0000 
     38 CA         79.0820   65.6790   49.1040 C.3       6 GLP5        0.0000 
     39 CA         81.8725   63.5350   51.4425 C.3       3 GLC5        0.0000 
     40 CA         80.0780   62.8150   51.1110 C.3       9 GLL5        0.0000 
     41 CA         79.5800   64.2470   50.1075 C.3       3 GLC5        0.0000 
     42 CA         75.5120   59.7980   55.0410 C.3       3 GLC5        0.0000 
     43 CA         74.3110   60.2550   53.3690 C.3       9 GLL5        0.0000 
     44 CA         76.5890   58.9070   56.1670 C.3       6 GLP5        0.0000 
     45 CA         79.2590   60.6760   53.6088 C.3       3 GLC5        0.0000 
     46 CA         79.5387   60.8520   51.0438 C.3       3 GLC5        0.0000 
     47 CA         79.4250   62.4170   52.4480 C.3       9 GLL5        0.0000 
     48 CA         79.3260   59.0880   50.3080 C.3       6 GLP5        0.0000 
     49 CA         78.7145   62.8833   45.0285 C.3       3 GLC5        0.0000 
     50 CA         80.7940   62.7180   44.9880 C.3       6 GLP5        0.0000 
     51 CA         76.9350   59.4990   50.0870 C.3       3 GLC5        0.0000 
     52 CA         75.8120   61.1330   50.0370 C.3       9 GLL5        0.0000 
     53 CA         78.3890   58.2670   49.6940 C.3       6 GLP5        0.0000 
     54 CA         77.0763   64.4720   54.4405 C.3       3 GLC5        0.0000 
     55 CA         76.3200   65.2780   56.1630 C.3       6 GLP5        0.0000 
     56 CA         80.2812   63.9455   54.1051 C.3       3 GLC5        0.0000 
     57 CA         78.5020   63.5050   53.0560 C.3       9 GLL5        0.0000 
     58 CA         81.3220   65.0070   55.2060 C.3       6 GLP5        0.0000 
@<TRIPOS>BOND
@<TRIPOS>SUBSTRUCTURE
     1 ALC1       24 GROUP        1 X    ALC  0     ROOT ALC X 1
     2 SEC2       19 GROUP        1 X    SEC  0     **** SEC X 2
     3 GLC5        1 GROUP        1 X    GLC  0     **** GLC X 6
     4 ALP1       26 GROUP        1 Y    ALP  0     ROOT ALP Y 8
     5 SEP2       21 GROUP        1 Y    SEP  0     **** SEP Y 9
     6 GLP5        3 GROUP        1 Y    GLP  0     **** GLP Y 13
     7 ALL1       25 GROUP        1 Z    ALL  0     ROOT ALL Z 15
     8 SEL2       20 GROUP        1 Z    SEL  0     **** SEL Z 16
     9 GLL5        2 GROUP        1 Z    GLL  0     **** GLL Z 20
@<TRIPOS>SET

