#    Name: 3co9_3MS_2_ligand
#    Modification time : Mon Mar 24 22:02:16 2014

@<TRIPOS>MOLECULE
3co9_3MS_2_ligand
   56    59     1     0     0
SMALL
NO_CHARGES


@<TRIPOS>ATOM
      1 C4         74.3110   60.2550   53.3690 C.2       1 3MS579      0.0000 
      2 C5         75.1200   61.1730   44.3280 C.ar      1 3MS579      0.0000 
      3 C6         75.4050   62.1170   54.0290 C.2       1 3MS579      0.0000 
      4 C7         76.2170   61.8300   46.4160 C.ar      1 3MS579      0.0000 
      5 C8         75.6870   62.2830   43.6780 C.ar      1 3MS579      0.0000 
      6 C10        75.0040   60.7420   52.2740 C.2       1 3MS579      0.0000 
      7 C13        75.7580   60.9630   48.5730 C.2       1 3MS579      0.0000 
      8 C15        80.5330   62.1090   53.4570 C.3       1 3MS579      0.0000 
      9 C17        73.4540   61.2200   40.9990 C.3       1 3MS579      0.0000 
     10 C20        79.4250   62.4170   52.4480 C.3       1 3MS579      0.0000 
     11 O30        75.7380   60.0400   41.6040 O.2       1 3MS579      0.0000 
     12 S33        75.2220   61.3090   41.1360 S.o2      1 3MS579      0.0000 
     13 O29        75.7260   61.8520   39.8890 O.2       1 3MS579      0.0000 
     14 N25        75.4360   62.5620   42.2950 N.pl3     1 3MS579      0.0000 
     15 C3         76.5050   63.1640   44.3890 C.ar      1 3MS579      0.0000 
     16 C9         75.4020   60.9610   45.6840 C.ar      1 3MS579      0.0000 
     17 S32        74.7370   59.5560   46.5140 S.o2      1 3MS579      0.0000 
     18 O27        73.3440   59.4060   46.1550 O.2       1 3MS579      0.0000 
     19 O28        75.6890   58.4970   46.2960 O.2       1 3MS579      0.0000 
     20 N23        74.8340   59.9880   48.1420 N.pl3     1 3MS579      0.0000 
     21 N21        76.5230   61.6570   47.7710 N.2       1 3MS579      0.0000 
     22 C2         76.7650   62.9330   45.7490 C.ar      1 3MS579      0.0000 
     23 C12        75.8120   61.1330   50.0370 C.2       1 3MS579      0.0000 
     24 C11        75.1500   60.3290   50.9230 C.2       1 3MS579      0.0000 
     25 O31        74.6090   59.0890   50.6350 O.3       1 3MS579      0.0000 
     26 C14        76.6090   62.2980   50.5420 C.2       1 3MS579      0.0000 
     27 O26        77.2350   62.9770   49.7320 O.2       1 3MS579      0.0000 
     28 N24        76.4860   62.6330   51.8890 N.am      1 3MS579      0.0000 
     29 N22        75.6690   61.8630   52.7100 N.pl3     1 3MS579      0.0000 
     30 C1         74.5590   61.1230   54.4610 C.2       1 3MS579      0.0000 
     31 C19        77.1630   63.8270   52.3800 C.3       1 3MS579      0.0000 
     32 C18        78.5020   63.5050   53.0560 C.3       1 3MS579      0.0000 
     33 C16        80.0780   62.8150   51.1110 C.3       1 3MS579      0.0000 
     34 H          73.7672   59.4864   53.4015 H         1 3MS579      0.0000 
     35 H          74.5137   60.5338   43.8192 H         1 3MS579      0.0000 
     36 H          75.7381   62.8356   54.5459 H         1 3MS579      0.0000 
     37 H          78.8498   61.5151   52.3057 H         1 3MS579      0.0000 
     38 H          75.3626   63.4578   41.8799 H         1 3MS579      0.0000 
     39 H          76.9157   63.9776   43.9220 H         1 3MS579      0.0000 
     40 H          74.1917   59.4894   48.7026 H         1 3MS579      0.0000 
     41 H          77.3721   63.5896   46.2664 H         1 3MS579      0.0000 
     42 H          74.1947   61.0164   55.3262 H         1 3MS579      0.0000 
     43 H          76.5349   64.3610   53.1130 H         1 3MS579      0.0000 
     44 H          77.3624   64.5323   51.5555 H         1 3MS579      0.0000 
     45 H          79.0981   64.4562   53.1337 H         1 3MS579      0.0000 
     46 H          78.3005   63.2244   54.1269 H         1 3MS579      0.0000 
     47 H          81.1635   61.4122   53.1151 H         1 3MS579      0.0000 
     48 H          81.0788   62.9198   53.6682 H         1 3MS579      0.0000 
     49 H          80.1636   61.7707   54.3225 H         1 3MS579      0.0000 
     50 H          73.1665   60.5088   40.3575 H         1 3MS579      0.0000 
     51 H          73.0233   61.0137   41.8776 H         1 3MS579      0.0000 
     52 H          73.0627   62.0817   40.6759 H         1 3MS579      0.0000 
     53 H          80.6606   63.6220   51.2079 H         1 3MS579      0.0000 
     54 H          80.6512   62.0819   50.7449 H         1 3MS579      0.0000 
     55 H          79.3946   63.0290   50.4130 H         1 3MS579      0.0000 
     56 H          73.9436   58.9218   51.3625 H         1 3MS579      0.0000 
@<TRIPOS>BOND
     1    6    1 2    
     2   30    1 1    
     3   34    1 1    
     4    5    2 ar   
     5   16    2 ar   
     6   35    2 1    
     7   29    3 1    
     8   30    3 2    
     9   36    3 1    
    10   16    4 ar   
    11   21    4 1    
    12   22    4 ar   
    13   14    5 1    
    14   15    5 ar   
    15   24    6 1    
    16   29    6 1    
    17   20    7 1    
    18   21    7 2    
    19   23    7 1    
    20   10    8 1    
    21   47    8 1    
    22   48    8 1    
    23   49    8 1    
    24   12    9 1    
    25   50    9 1    
    26   51    9 1    
    27   52    9 1    
    28   32   10 1    
    29   33   10 1    
    30   37   10 1    
    31   12   11 2    
    32   13   12 2    
    33   14   12 1    
    34   38   14 1    
    35   22   15 ar   
    36   39   15 1    
    37   17   16 1    
    38   18   17 2    
    39   19   17 2    
    40   20   17 1    
    41   40   20 1    
    42   41   22 1    
    43   24   23 2    
    44   26   23 1    
    45   25   24 1    
    46   56   25 1    
    47   27   26 2    
    48   28   26 am   
    49   29   28 1    
    50   31   28 1    
    51   42   30 1    
    52   32   31 1    
    53   43   31 1    
    54   44   31 1    
    55   45   32 1    
    56   46   32 1    
    57   53   33 1    
    58   54   33 1    
    59   55   33 1    
@<TRIPOS>SUBSTRUCTURE
     1 3MS579      1 GROUP   
@<TRIPOS>SET

