#    Name: 3lbf_SAH_4_INTS_M
#    Modification time : Mon Mar 24 21:20:29 2014

@<TRIPOS>MOLECULE
3lbf_SAH_4_INTS_M
   83     0     9     0     0
SMALL
NO_CHARGES


@<TRIPOS>ATOM
      1 O          31.0145   54.9145  -34.4325 O.2       1 ALC1        0.0000 
      2 O          30.6630   56.2720  -34.4860 O.2       7 ALL1        0.0000 
      3 O          31.3660   53.5570  -34.3790 O.2       4 ALP1        0.0000 
      4 O          29.6320   55.0790  -34.4210 O.2       1 ALC1        0.0000 
      5 O          28.6010   53.8860  -34.3560 O.2       4 ALP1        0.0000 
      6 O          31.8160   56.5500  -33.7185 O.2       1 ALC1        0.0000 
      7 O          32.9690   56.8280  -32.9510 O.2       4 ALP1        0.0000 
      8 N          32.2160   59.2730  -33.7075 N.am      2 SEC2        0.0000 
      9 N          31.6560   58.6580  -35.0110 N.am      8 SEL2        0.0000 
     10 N          32.7760   59.8880  -32.4040 N.am      5 SEP2        0.0000 
     11 N          32.3125   57.7430  -33.9810 N.am      2 SEC2        0.0000 
     12 N          32.9690   56.8280  -32.9510 N.am      5 SEP2        0.0000 
     13 N          33.6160   57.4560  -37.6230 N.am      2 SEC2        0.0000 
     14 N          32.2320   58.4240  -37.4480 N.am      8 SEL2        0.0000 
     15 N          35.0000   56.4880  -37.7980 N.am      5 SEP2        0.0000 
     16 N          33.3985   58.8995  -37.4085 N.am      2 SEC2        0.0000 
     17 N          34.5650   59.3750  -37.3690 N.am      5 SEP2        0.0000 
     18 CA         27.2780   52.1130  -37.7860 C.3       3 GLC5        0.0000 
     19 CA         28.7890   53.3370  -38.2380 C.3       9 GLL5        0.0000 
     20 CA         25.7670   50.8890  -37.3340 C.3       6 GLP5        0.0000 
     21 CA         30.4215   51.8365  -36.1830 C.3       3 GLC5        0.0000 
     22 CA         30.0170   52.4450  -38.0680 C.3       9 GLL5        0.0000 
     23 CA         30.8260   51.2280  -34.2980 C.3       6 GLP5        0.0000 
     24 O          32.8435   51.7915  -38.3305 O.2       1 ALC1        0.0000 
     25 O          32.0430   52.4480  -39.3740 O.2       7 ALL1        0.0000 
     26 O          33.6440   51.1350  -37.2870 O.2       4 ALP1        0.0000 
     27 O          32.5480   49.4790  -38.9315 O.2       1 ALC1        0.0000 
     28 O          31.7480   49.9330  -40.0200 O.2       7 ALL1        0.0000 
     29 O          33.3480   49.0250  -37.8430 O.2       4 ALP1        0.0000 
     30 CA         30.6085   50.6960  -36.1440 C.3       3 GLC5        0.0000 
     31 CA         30.3910   50.1640  -37.9900 C.3       9 GLL5        0.0000 
     32 N          27.1435   46.5025  -38.9035 N.am      2 SEC2        0.0000 
     33 N          28.2910   47.1910  -38.1800 N.am      8 SEL2        0.0000 
     34 N          25.9960   45.8140  -39.6270 N.am      5 SEP2        0.0000 
     35 CA         30.0965   43.9900  -35.3655 C.3       3 GLC5        0.0000 
     36 CA         29.1300   45.7010  -36.2050 C.3       9 GLL5        0.0000 
     37 CA         31.0630   42.2790  -34.5260 C.3       6 GLP5        0.0000 
     38 CA         29.1115   45.1470  -34.2120 C.3       3 GLC5        0.0000 
     39 CA         29.0930   44.5930  -32.2190 C.3       6 GLP5        0.0000 
     40 O          28.3970   43.3785  -35.9530 O.2       1 ALC1        0.0000 
     41 O          28.3060   44.6410  -36.3620 O.2       7 ALL1        0.0000 
     42 O          28.4880   42.1160  -35.5440 O.2       4 ALP1        0.0000 
     43 N          29.9080   44.8540  -34.2855 N.am      2 SEC2        0.0000 
     44 N          30.0480   45.7460  -35.2160 N.am      8 SEL2        0.0000 
     45 N          29.7680   43.9620  -33.3550 N.am      5 SEP2        0.0000 
     46 CA         29.5260   47.4805  -33.7120 C.3       3 GLC5        0.0000 
     47 CA         30.8700   46.8010  -35.0580 C.3       9 GLL5        0.0000 
     48 CA         28.1820   48.1600  -32.3660 C.3       6 GLP5        0.0000 
     49 CA         30.8480   49.0145  -34.6780 C.3       3 GLC5        0.0000 
     50 CA         31.9110   46.1850  -33.4210 C.3       3 GLC5        0.0000 
     51 CA         32.9520   45.5690  -31.7840 C.3       6 GLP5        0.0000 
     52 CA         32.6560   47.4335  -35.0365 C.3       3 GLC5        0.0000 
     53 CA         34.4420   48.0660  -35.0150 C.3       6 GLP5        0.0000 
     54 CA         31.6785   45.8445  -36.5770 C.3       3 GLC5        0.0000 
     55 CA         32.4870   44.8880  -38.0960 C.3       6 GLP5        0.0000 
     56 CA         29.9815   45.6970  -33.6385 C.3       3 GLC5        0.0000 
     57 N          32.3220   47.2215  -36.3360 N.am      2 SEC2        0.0000 
     58 N          30.8530   47.8830  -35.8570 N.am      8 SEL2        0.0000 
     59 N          33.7910   46.5600  -36.8150 N.am      5 SEP2        0.0000 
     60 CA         30.3970   49.5995  -35.5915 C.3       3 GLC5        0.0000 
     61 CA         29.9680   47.9710  -36.8850 C.3       9 GLL5        0.0000 
     62 CA         30.9015   46.8650  -38.0330 C.3       3 GLC5        0.0000 
     63 CA         31.8350   45.7590  -39.1810 C.3       6 GLP5        0.0000 
     64 CA         29.0685   55.6148  -35.2298 C.3       3 GLC5        0.0000 
     65 CA         31.1230   56.4730  -35.8520 C.3       9 GLL5        0.0000 
     66 CA         27.5910   54.8680  -34.1120 C.3       6 GLP5        0.0000 
     67 CA         30.4820   54.9898  -40.5263 C.3       3 GLC5        0.0000 
     68 CA         30.4800   55.5420  -38.1400 C.3       9 GLL5        0.0000 
     69 CA         31.1380   54.7910  -42.4280 C.3       6 GLP5        0.0000 
     70 CA         32.2380   55.1399  -37.3754 C.3       3 GLC5        0.0000 
     71 CA         33.9630   54.3280  -37.5070 C.3       6 GLP5        0.0000 
     72 CA         27.5708   53.6745  -39.7488 C.3       3 GLC5        0.0000 
     73 CA         29.1720   54.8350  -39.1090 C.3       9 GLL5        0.0000 
     74 CA         26.1610   53.2630  -40.8240 C.3       6 GLP5        0.0000 
     75 CA         32.1530   53.2865  -38.1178 C.3       3 GLC5        0.0000 
     76 CA         31.1857   52.3365  -40.9335 C.3       3 GLC5        0.0000 
     77 CA         30.6690   52.0450  -39.3890 C.3       9 GLL5        0.0000 
     78 CA         31.7510   53.3840  -42.4470 C.3       6 GLP5        0.0000 
     79 CA         29.8092   45.7013  -38.1715 C.3       3 GLC5        0.0000 
     80 CA         29.0410   46.8580  -37.1170 C.3       9 GLL5        0.0000 
     81 CA         30.5330   45.1230  -39.6820 C.3       6 GLP5        0.0000 
     82 CA         27.9289   47.4621  -36.1395 C.3       3 GLC5        0.0000 
     83 CA         26.3310   47.7990  -35.5060 C.3       6 GLP5        0.0000 
@<TRIPOS>BOND
@<TRIPOS>SUBSTRUCTURE
     1 ALC1        1 GROUP        1 X    ALC  0     ROOT ALC X 1
     2 SEC2        8 GROUP        1 X    SEC  0     **** SEC X 2
     3 GLC5       18 GROUP        1 X    GLC  0     **** GLC X 6
     4 ALP1        3 GROUP        1 Y    ALP  0     ROOT ALP Y 8
     5 SEP2       10 GROUP        1 Y    SEP  0     **** SEP Y 9
     6 GLP5       20 GROUP        1 Y    GLP  0     **** GLP Y 13
     7 ALL1        2 GROUP        1 Z    ALL  0     ROOT ALL Z 15
     8 SEL2        9 GROUP        1 Z    SEL  0     **** SEL Z 16
     9 GLL5       19 GROUP        1 Z    GLL  0     **** GLL Z 20
@<TRIPOS>SET

