#    Name: 3lbf_SAH_4_ligand
#    Modification time : Mon Mar 24 21:20:29 2014

@<TRIPOS>MOLECULE
3lbf_SAH_4_ligand
   46    48     1     0     0
SMALL
NO_CHARGES


@<TRIPOS>ATOM
      1 N          30.6630   56.2720  -34.4860 N.4       1 SAH300      0.0000 
      2 CA         31.1230   56.4730  -35.8520 C.3       1 SAH300      0.0000 
      3 CB         29.9690   56.2500  -36.8430 C.3       1 SAH300      0.0000 
      4 CG         30.4800   55.5420  -38.1400 C.3       1 SAH300      0.0000 
      5 SD         29.1720   54.8350  -39.1090 S.3       1 SAH300      0.0000 
      6 C          31.6840   57.8690  -35.9590 C.2       1 SAH300      0.0000 
      7 O          31.6560   58.6580  -35.0110 O.co2     1 SAH300      0.0000 
      8 OXT        32.2320   58.4240  -37.4480 O.co2     1 SAH300      0.0000 
      9 C5'        28.7890   53.3370  -38.2380 C.3       1 SAH300      0.0000 
     10 C4'        30.0170   52.4450  -38.0680 C.3       1 SAH300      0.0000 
     11 O4'        29.6410   51.2360  -37.4150 O.3       1 SAH300      0.0000 
     12 C3'        30.6690   52.0450  -39.3890 C.3       1 SAH300      0.0000 
     13 O3'        32.0430   52.4480  -39.3740 O.3       1 SAH300      0.0000 
     14 C2'        30.5720   50.5330  -39.4510 C.3       1 SAH300      0.0000 
     15 O2'        31.7480   49.9330  -40.0200 O.3       1 SAH300      0.0000 
     16 C1'        30.3910   50.1640  -37.9900 C.3       1 SAH300      0.0000 
     17 N9         29.6910   48.8730  -37.8300 N.pl3     1 SAH300      0.0000 
     18 C8         28.6950   48.4090  -38.6040 C.2       1 SAH300      0.0000 
     19 N7         28.2910   47.1910  -38.1800 N.2       1 SAH300      0.0000 
     20 C5         29.0410   46.8580  -37.1170 C.ar      1 SAH300      0.0000 
     21 C6         29.1300   45.7010  -36.2050 C.ar      1 SAH300      0.0000 
     22 N6         28.3060   44.6410  -36.3620 N.pl3     1 SAH300      0.0000 
     23 N1         30.0480   45.7460  -35.2160 N.ar      1 SAH300      0.0000 
     24 C2         30.8700   46.8010  -35.0580 C.ar      1 SAH300      0.0000 
     25 N3         30.8530   47.8830  -35.8570 N.ar      1 SAH300      0.0000 
     26 C4         29.9680   47.9710  -36.8850 C.ar      1 SAH300      0.0000 
     27 H          31.9095   55.7668  -36.0835 H         1 SAH300      0.0000 
     28 H          29.5367   57.2048  -37.1186 H         1 SAH300      0.0000 
     29 H          29.2115   55.6252  -36.3845 H         1 SAH300      0.0000 
     30 H          31.1149   54.7067  -37.9194 H         1 SAH300      0.0000 
     31 H          30.9546   56.2284  -38.8132 H         1 SAH300      0.0000 
     32 H          28.0259   52.8885  -38.8430 H         1 SAH300      0.0000 
     33 H          28.3941   53.6885  -37.3053 H         1 SAH300      0.0000 
     34 H          30.7533   52.9744  -37.4772 H         1 SAH300      0.0000 
     35 H          30.1181   52.4648  -40.1820 H         1 SAH300      0.0000 
     36 H          29.6729   50.2816  -39.9664 H         1 SAH300      0.0000 
     37 H          31.3736   50.1162  -37.5428 H         1 SAH300      0.0000 
     38 H          28.3118   48.8848  -39.3707 H         1 SAH300      0.0000 
     39 H          28.6576   43.7598  -36.0462 H         1 SAH300      0.0000 
     40 H          27.4179   44.8321  -36.7800 H         1 SAH300      0.0000 
     41 H          31.5729   46.7767  -34.2550 H         1 SAH300      0.0000 
     42 H          30.3154   55.3451  -34.3438 H         1 SAH300      0.0000 
     43 H          31.3971   56.4148  -33.8222 H         1 SAH300      0.0000 
     44 H          29.9243   56.9021  -34.2463 H         1 SAH300      0.0000 
     45 H          32.4665   51.8966  -38.6552 H         1 SAH300      0.0000 
     46 H          32.2921   49.6357  -39.2355 H         1 SAH300      0.0000 
@<TRIPOS>BOND
     1    2    1 1    
     2   42    1 1    
     3   43    1 1    
     4   44    1 1    
     5    3    2 1    
     6    6    2 1    
     7   27    2 1    
     8    4    3 1    
     9   28    3 1    
    10   29    3 1    
    11    5    4 1    
    12   30    4 1    
    13   31    4 1    
    14    9    5 1    
    15    7    6 ar   
    16    8    6 ar   
    17   10    9 1    
    18   32    9 1    
    19   33    9 1    
    20   11   10 1    
    21   12   10 1    
    22   34   10 1    
    23   16   11 1    
    24   13   12 1    
    25   14   12 1    
    26   35   12 1    
    27   45   13 1    
    28   15   14 1    
    29   16   14 1    
    30   36   14 1    
    31   46   15 1    
    32   17   16 1    
    33   37   16 1    
    34   18   17 1    
    35   26   17 1    
    36   19   18 2    
    37   38   18 1    
    38   20   19 1    
    39   21   20 ar   
    40   26   20 ar   
    41   22   21 1    
    42   23   21 ar   
    43   39   22 1    
    44   40   22 1    
    45   24   23 ar   
    46   25   24 ar   
    47   41   24 1    
    48   26   25 ar   
@<TRIPOS>SUBSTRUCTURE
     1 SAH300      1 GROUP   
@<TRIPOS>SET

