#    Name: 2hay_FMN_2_INTS_M
#    Modification time : Tue Mar 25 15:48:56 2014

@<TRIPOS>MOLECULE
2hay_FMN_2_INTS_M
   77     0    12     0     0
SMALL
NO_CHARGES


@<TRIPOS>ATOM
      1 O          38.3555   49.3800   66.6130 O.2       1 ALC1        0.0000 
      2 O          38.2320   47.9870   66.9050 O.2       9 ALL1        0.0000 
      3 O          38.4790   50.7730   66.3210 O.2       5 ALP1        0.0000 
      4 N          40.7535   46.7215   64.3070 N.am      2 SEC2        0.0000 
      5 N          39.3140   47.2910   64.9910 N.am     10 SEL2        0.0000 
      6 N          42.1930   46.1520   63.6230 N.am      6 SEP2        0.0000 
      7 N          39.6910   47.1430   63.5965 N.am      2 SEC2        0.0000 
      8 N          40.0680   46.9950   62.2020 N.am      6 SEP2        0.0000 
      9 N          41.4350   45.7510   64.8970 N.am      2 SEC2        0.0000 
     10 N          40.6770   45.3500   66.1710 N.am     10 SEL2        0.0000 
     11 CA         41.4635   41.8870   65.5570 C.3       4 GLC5        0.0000 
     12 CA         42.2580   43.5390   66.0770 C.3      12 GLL5        0.0000 
     13 CA         40.6690   40.2350   65.0370 C.3       8 GLP5        0.0000 
     14 CA         42.3740   41.0445   65.5005 C.3       4 GLC5        0.0000 
     15 CA         44.0790   41.8540   65.9640 C.3      12 GLL5        0.0000 
     16 CA         45.2875   40.7950   67.1470 C.3       4 GLC5        0.0000 
     17 CA         46.4960   39.7360   68.3300 C.3       8 GLP5        0.0000 
     18 CA         45.5005   41.2325   64.9505 C.3       4 GLC5        0.0000 
     19 CA         46.9220   40.6110   63.9370 C.3       8 GLP5        0.0000 
     20 CA         43.4590   41.3010   70.7100 C.3       4 GLC5        0.0000 
     21 CA         43.6390   41.3470   68.8140 C.3      12 GLL5        0.0000 
     22 CA         43.2790   41.2550   72.6060 C.3       8 GLP5        0.0000 
     23 CA         45.0675   40.5415   68.5720 C.3       4 GLC5        0.0000 
     24 CA         42.5040   42.0970   70.6875 C.3       4 GLC5        0.0000 
     25 CA         41.7290   42.9390   68.7690 C.3      12 GLL5        0.0000 
     26 CA         41.8020   45.2120   70.5340 C.3       4 GLC5        0.0000 
     27 CA         39.8380   44.5730   70.2870 C.3      12 GLL5        0.0000 
     28 CA         43.7660   45.8510   70.7810 C.3       8 GLP5        0.0000 
     29 CA         41.2210   41.9975   72.2245 C.3       4 GLC5        0.0000 
     30 CA         39.1630   42.7400   71.8430 C.3      12 GLL5        0.0000 
     31 CA         37.5385   40.0345   71.1840 C.3       4 GLC5        0.0000 
     32 CA         38.3130   41.5160   72.1640 C.3      12 GLL5        0.0000 
     33 CA         36.7640   38.5530   70.2040 C.3       8 GLP5        0.0000 
     34 N          39.0915   44.8340   77.2725 N.am      2 SEC2        0.0000 
     35 N          39.0040   43.8790   76.1720 N.am     10 SEL2        0.0000 
     36 N          39.1790   45.7890   78.3730 N.am      6 SEP2        0.0000 
     37 N          39.8710   45.0445   75.9770 N.am      2 SEC2        0.0000 
     38 N          40.7380   46.2100   75.7820 N.am      6 SEP2        0.0000 
     39 NZ         42.1145   43.1700   75.1170 N.4       3 LYC4        0.0000 
     40 NZ         40.7740   42.8200   74.7780 N.4      11 LYL4        0.0000 
     41 NZ         43.9140   42.4480   76.1030 N.4       7 LYP4        0.0000 
     42 N          42.1145   43.1700   75.1170 N.am      2 SEC2        0.0000 
     43 N          40.7740   42.8200   74.7780 N.am     10 SEL2        0.0000 
     44 N          43.4550   43.5200   75.4560 N.am      6 SEP2        0.0000 
     45 N          41.9360   42.1185   75.5660 N.am      2 SEC2        0.0000 
     46 N          43.0980   41.4170   76.3540 N.am      6 SEP2        0.0000 
     47 NZ         40.5215   40.4180   76.3305 N.4       3 LYC4        0.0000 
     48 NZ         39.9040   41.6990   76.6780 N.4      11 LYL4        0.0000 
     49 NZ         40.1490   38.2590   76.1230 N.4       7 LYP4        0.0000 
     50 N          41.5010   41.5580   76.5160 N.am      2 SEC2        0.0000 
     51 N          39.9040   41.6990   76.6780 N.am     10 SEL2        0.0000 
     52 N          40.2545   41.0290   77.9215 N.am      2 SEC2        0.0000 
     53 N          40.6050   40.3590   79.1650 N.am      6 SEP2        0.0000 
     54 N          39.3995   40.2035   76.4455 N.am      2 SEC2        0.0000 
     55 N          38.8950   38.7080   76.2130 N.am      6 SEP2        0.0000 
     56 N          40.5215   40.4180   76.3305 N.am      2 SEC2        0.0000 
     57 N          41.1390   39.1370   75.9830 N.am      6 SEP2        0.0000 
     58 CA         43.4783   44.4155   67.7027 C.3       4 GLC5        0.0000 
     59 CA         41.3330   44.2950   66.8000 C.3      12 GLL5        0.0000 
     60 CA         45.1610   44.9140   68.9670 C.3       8 GLP5        0.0000 
     61 CA         42.4352   45.7025   65.9622 C.3       4 GLC5        0.0000 
     62 CA         43.0750   47.4880   65.4860 C.3       8 GLP5        0.0000 
     63 CA         44.3305   43.5412   67.6470 C.3       4 GLC5        0.0000 
     64 CA         42.9210   42.4830   66.6900 C.3      12 GLL5        0.0000 
     65 CA         43.2531   42.8683   64.3699 C.3       4 GLC5        0.0000 
     66 CA         43.1720   43.3040   62.5660 C.3       8 GLP5        0.0000 
     67 CA         42.4495   40.0517   68.8843 C.3       4 GLC5        0.0000 
     68 CA         42.6610   42.1760   68.0430 C.3      12 GLL5        0.0000 
     69 CA         41.7490   38.3420   69.3400 C.3       8 GLP5        0.0000 
     70 CA         43.7180   43.1623   69.2873 C.3       4 GLC5        0.0000 
     71 CA         44.2860   44.5630   70.1460 C.3       8 GLP5        0.0000 
     72 CA         41.7070   41.0721   67.2856 C.3       4 GLC5        0.0000 
     73 CA         40.1990   40.3060   66.4810 C.3       8 GLP5        0.0000 
     74 CA         40.8306   41.9265   67.3014 C.3       4 GLC5        0.0000 
     75 CA         42.8397   44.0200   69.3025 C.3       4 GLC5        0.0000 
     76 CA         39.7244   44.7481   72.2219 C.3       4 GLC5        0.0000 
     77 CA         40.1740   46.1480   73.3380 C.3       8 GLP5        0.0000 
@<TRIPOS>BOND
@<TRIPOS>SUBSTRUCTURE
     1 ALC1        1 GROUP        1 X    ALC  0     ROOT ALC X 1
     2 SEC2        4 GROUP        1 X    SEC  0     **** SEC X 2
     3 LYC4       39 GROUP        1 X    LYC  0     **** LYC X 4
     4 GLC5       11 GROUP        1 X    GLC  0     **** GLC X 6
     5 ALP1        3 GROUP        1 Y    ALP  0     ROOT ALP Y 8
     6 SEP2        6 GROUP        1 Y    SEP  0     **** SEP Y 9
     7 LYP4       41 GROUP        1 Y    LYP  0     **** LYP Y 11
     8 GLP5       13 GROUP        1 Y    GLP  0     **** GLP Y 13
     9 ALL1        2 GROUP        1 Z    ALL  0     ROOT ALL Z 15
    10 SEL2        5 GROUP        1 Z    SEL  0     **** SEL Z 16
    11 LYL4       40 GROUP        1 Z    LYL  0     **** LYL Z 18
    12 GLL5       12 GROUP        1 Z    GLL  0     **** GLL Z 20
@<TRIPOS>SET

