#    Name: 2hay_FMN_2_ligand
#    Modification time : Tue Mar 25 15:48:56 2014

@<TRIPOS>MOLECULE
2hay_FMN_2_ligand
   50    52     1     0     0
SMALL
NO_CHARGES


@<TRIPOS>ATOM
      1 N1         38.5400   46.6960   68.9310 N.2       1 FMN701      0.0000 
      2 C2         37.9090   47.7470   68.2460 C.2       1 FMN701      0.0000 
      3 O2         37.0690   48.4810   68.8200 O.2       1 FMN701      0.0000 
      4 N3         38.2320   47.9870   66.9050 N.am      1 FMN701      0.0000 
      5 C4         39.1410   47.1910   66.2120 C.2       1 FMN701      0.0000 
      6 O4         39.3140   47.2910   64.9910 O.2       1 FMN701      0.0000 
      7 C4A        39.7660   46.1340   66.8780 C.2       1 FMN701      0.0000 
      8 N5         40.6770   45.3500   66.1710 N.2       1 FMN701      0.0000 
      9 C5A        41.3330   44.2950   66.8000 C.ar      1 FMN701      0.0000 
     10 C6         42.2580   43.5390   66.0770 C.ar      1 FMN701      0.0000 
     11 C7         42.9210   42.4830   66.6900 C.ar      1 FMN701      0.0000 
     12 C7M        44.0790   41.8540   65.9640 C.3       1 FMN701      0.0000 
     13 C8         42.6610   42.1760   68.0430 C.ar      1 FMN701      0.0000 
     14 C8M        43.6390   41.3470   68.8140 C.3       1 FMN701      0.0000 
     15 C9         41.7290   42.9390   68.7690 C.ar      1 FMN701      0.0000 
     16 C9A        41.0580   44.0150   68.1490 C.ar      1 FMN701      0.0000 
     17 N10        40.1300   44.8220   68.8550 N.pl3     1 FMN701      0.0000 
     18 C10        39.4740   45.8860   68.2340 C.2       1 FMN701      0.0000 
     19 C1'        39.8380   44.5730   70.2870 C.3       1 FMN701      0.0000 
     20 C2'        38.9350   43.3400   70.4500 C.3       1 FMN701      0.0000 
     21 O2'        37.5650   43.6800   70.2940 O.3       1 FMN701      0.0000 
     22 C3'        39.1630   42.7400   71.8430 C.3       1 FMN701      0.0000 
     23 O3'        40.5220   42.4070   72.0080 O.3       1 FMN701      0.0000 
     24 C4'        38.3130   41.5160   72.1640 C.3       1 FMN701      0.0000 
     25 O4'        36.9520   41.8800   72.0020 O.3       1 FMN701      0.0000 
     26 C5'        38.6090   41.0100   73.5910 C.3       1 FMN701      0.0000 
     27 O5'        38.3580   41.9830   74.6160 O.3       1 FMN701      0.0000 
     28 P          39.5100   42.6000   75.5670 P.3       1 FMN701      0.0000 
     29 O1P        39.0040   43.8790   76.1720 O.co2     1 FMN701      0.0000 
     30 O2P        40.7740   42.8200   74.7780 O.co2     1 FMN701      0.0000 
     31 O3P        39.9040   41.6990   76.6780 O.co2     1 FMN701      0.0000 
     32 H          37.7781   48.7840   66.4145 H         1 FMN701      0.0000 
     33 H          42.4459   43.7658   65.0930 H         1 FMN701      0.0000 
     34 H          41.5354   42.7156   69.7484 H         1 FMN701      0.0000 
     35 H          39.3289   45.4324   70.7289 H         1 FMN701      0.0000 
     36 H          40.7627   44.3973   70.8412 H         1 FMN701      0.0000 
     37 H          39.2503   42.6023   69.7239 H         1 FMN701      0.0000 
     38 H          38.8910   43.5236   72.5800 H         1 FMN701      0.0000 
     39 H          38.5945   40.7333   71.4670 H         1 FMN701      0.0000 
     40 H          39.6678   40.6729   73.6046 H         1 FMN701      0.0000 
     41 H          37.9990   40.0940   73.7454 H         1 FMN701      0.0000 
     42 H          44.8063   42.5156   65.7812 H         1 FMN701      0.0000 
     43 H          44.4868   41.1083   66.4909 H         1 FMN701      0.0000 
     44 H          43.8015   41.4724   65.0823 H         1 FMN701      0.0000 
     45 H          44.5396   41.7796   68.8574 H         1 FMN701      0.0000 
     46 H          43.3390   41.1994   69.7564 H         1 FMN701      0.0000 
     47 H          43.7668   40.4447   68.4023 H         1 FMN701      0.0000 
     48 H          37.0715   43.0440   70.8873 H         1 FMN701      0.0000 
     49 H          40.7064   42.5471   72.9808 H         1 FMN701      0.0000 
     50 H          36.6159   41.3009   71.2592 H         1 FMN701      0.0000 
@<TRIPOS>BOND
     1    2    1 1    
     2   18    1 2    
     3    3    2 2    
     4    4    2 am   
     5    5    4 am   
     6   32    4 1    
     7    6    5 2    
     8    7    5 1    
     9    8    7 2    
    10   18    7 1    
    11    9    8 1    
    12   10    9 ar   
    13   16    9 ar   
    14   11   10 ar   
    15   33   10 1    
    16   12   11 1    
    17   13   11 ar   
    18   42   12 1    
    19   43   12 1    
    20   44   12 1    
    21   14   13 1    
    22   15   13 ar   
    23   45   14 1    
    24   46   14 1    
    25   47   14 1    
    26   16   15 ar   
    27   34   15 1    
    28   17   16 1    
    29   18   17 1    
    30   19   17 1    
    31   20   19 1    
    32   35   19 1    
    33   36   19 1    
    34   21   20 1    
    35   22   20 1    
    36   37   20 1    
    37   48   21 1    
    38   23   22 1    
    39   24   22 1    
    40   38   22 1    
    41   49   23 1    
    42   25   24 1    
    43   26   24 1    
    44   39   24 1    
    45   50   25 1    
    46   27   26 1    
    47   40   26 1    
    48   41   26 1    
    49   28   27 1    
    50   29   28 ar   
    51   30   28 ar   
    52   31   28 ar   
@<TRIPOS>SUBSTRUCTURE
     1 FMN701      1 GROUP   
@<TRIPOS>SET

