#    Name: 4duh_RLI_2_INTS_M
#    Modification time : Tue Mar 25 10:13:19 2014

@<TRIPOS>MOLECULE
4duh_RLI_2_INTS_M
   65     0    12     0     0
SMALL
NO_CHARGES


@<TRIPOS>ATOM
      1 O          29.1785    9.6310    8.3450 O.2       1 ALC1        0.0000 
      2 O          30.4150    9.3110    7.7390 O.2       9 ALL1        0.0000 
      3 O          27.9420    9.9510    8.9510 O.2       5 ALP1        0.0000 
      4 CA         31.7470    9.7880    5.1060 C.3       4 GLC5        0.0000 
      5 CA         31.8620    8.0610    5.9440 C.3      12 GLL5        0.0000 
      6 CA         31.6320   11.5150    4.2680 C.3       8 GLP5        0.0000 
      7 CA         33.4205   11.1190   10.5810 C.3       4 GLC5        0.0000 
      8 CA         31.6270   11.5240   10.0350 C.3      12 GLL5        0.0000 
      9 CA         35.2140   10.7140   11.1270 C.3       8 GLP5        0.0000 
     10 N          28.8295    6.8860    7.9605 N.am      2 SEC2        0.0000 
     11 N          29.7460    7.2590    6.9050 N.am     10 SEL2        0.0000 
     12 N          27.9130    6.5130    9.0160 N.am      6 SEP2        0.0000 
     13 NZ         28.3275   -1.9105    5.6805 N.4       3 LYC4        0.0000 
     14 NZ         27.7100   -1.2470    4.6080 N.4      11 LYL4        0.0000 
     15 NZ         28.8880   -1.6050    7.6630 N.4       7 LYP4        0.0000 
     16 N          28.3275   -1.9105    5.6805 N.am      2 SEC2        0.0000 
     17 N          27.7100   -1.2470    4.6080 N.am     10 SEL2        0.0000 
     18 N          28.9450   -2.5740    6.7530 N.am      6 SEP2        0.0000 
     19 N          28.0870   -0.8210    5.9575 N.am      2 SEC2        0.0000 
     20 N          28.4640   -0.3950    7.3070 N.am      6 SEP2        0.0000 
     21 CA         34.6265    4.0300    3.4550 C.3       4 GLC5        0.0000 
     22 CA         33.5140    5.0790    2.5080 C.3      12 GLL5        0.0000 
     23 CA         35.7390    2.9810    4.4020 C.3       8 GLP5        0.0000 
     24 CA         34.7465    4.0835    1.5290 C.3       4 GLC5        0.0000 
     25 CA         35.9790    3.0880    0.5500 C.3       8 GLP5        0.0000 
     26 CA         32.2455    5.6820    0.9955 C.3       4 GLC5        0.0000 
     27 CA         30.9770    6.2850   -0.5170 C.3       8 GLP5        0.0000 
     28 CA         29.1340   12.3205    8.1220 C.3       4 GLC5        0.0000 
     29 CA         30.8100   11.4220    8.8380 C.3      12 GLL5        0.0000 
     30 CA         27.4580   13.2190    7.4060 C.3       8 GLP5        0.0000 
     31 O          32.8810    2.7260    1.2370 O.2       1 ALC1        0.0000 
     32 O          32.0610    2.9050    2.3470 O.2       9 ALL1        0.0000 
     33 O          33.7010    2.5470    0.1270 O.2       5 ALP1        0.0000 
     34 CA         30.6945    4.1160    7.0920 C.3       4 GLC5        0.0000 
     35 CA         29.2740    5.1120    5.8710 C.3      12 GLL5        0.0000 
     36 CA         32.1150    3.1200    8.3130 C.3       8 GLP5        0.0000 
     37 CA         32.5295    5.6005    6.2110 C.3       4 GLC5        0.0000 
     38 CA         31.9340    5.7850    4.2940 C.3      12 GLL5        0.0000 
     39 CA         33.1250    5.4160    8.1280 C.3       8 GLP5        0.0000 
     40 CA         30.6120    6.0750    2.8130 C.3       4 GLC5        0.0000 
     41 CA         29.2900    6.3650    1.3320 C.3       8 GLP5        0.0000 
     42 CA         35.1005    5.9745    4.2440 C.3       4 GLC5        0.0000 
     43 CA         33.0850    6.2190    3.6180 C.3      12 GLL5        0.0000 
     44 CA         37.1160    5.7300    4.8700 C.3       8 GLP5        0.0000 
     45 CA         31.7095    6.6790    2.0790 C.3       4 GLC5        0.0000 
     46 CA         30.3340    7.1390    0.5400 C.3       8 GLP5        0.0000 
     47 CA         31.1010    1.7175    4.8230 C.3       4 GLC5        0.0000 
     48 CA         29.9580    2.2680    3.5130 C.3      12 GLL5        0.0000 
     49 CA         32.2440    1.1670    6.1330 C.3       8 GLP5        0.0000 
     50 CA         26.8385    1.5525    4.2870 C.3       4 GLC5        0.0000 
     51 CA         29.0030    1.3180    3.8110 C.3      12 GLL5        0.0000 
     52 CA         24.6740    1.7870    4.7630 C.3       8 GLP5        0.0000 
     53 CA         32.3157   12.9475    9.1578 C.3       4 GLC5        0.0000 
     54 CA         33.4130   14.4220    8.8790 C.3       8 GLP5        0.0000 
     55 CA         30.5008   13.4035    9.9148 C.3       4 GLC5        0.0000 
     56 CA         29.7830   15.3340   10.3930 C.3       8 GLP5        0.0000 
     57 CA         31.6348    9.6470   10.2428 C.3       4 GLC5        0.0000 
     58 CA         32.0510    7.8210   11.0490 C.3       8 GLP5        0.0000 
     59 CA         28.0590    6.6783    5.6215 C.3       4 GLC5        0.0000 
     60 CA         30.0920    6.3070    6.0430 C.3      12 GLL5        0.0000 
     61 CA         26.4350    7.6470    5.2860 C.3       8 GLP5        0.0000 
     62 CA         31.9737    6.1205    6.9955 C.3       4 GLC5        0.0000 
     63 CA         30.9987    0.1954    4.2093 C.3       4 GLC5        0.0000 
     64 CA         30.1330   -0.2870    2.3840 C.3      12 GLL5        0.0000 
     65 CA         32.1800   -0.1980    5.4680 C.3       8 GLP5        0.0000 
@<TRIPOS>BOND
@<TRIPOS>SUBSTRUCTURE
     1 ALC1        1 GROUP        1 X    ALC  0     ROOT ALC X 1
     2 SEC2       10 GROUP        1 X    SEC  0     **** SEC X 2
     3 LYC4       13 GROUP        1 X    LYC  0     **** LYC X 4
     4 GLC5        4 GROUP        1 X    GLC  0     **** GLC X 6
     5 ALP1        3 GROUP        1 Y    ALP  0     ROOT ALP Y 8
     6 SEP2       12 GROUP        1 Y    SEP  0     **** SEP Y 9
     7 LYP4       15 GROUP        1 Y    LYP  0     **** LYP Y 11
     8 GLP5        6 GROUP        1 Y    GLP  0     **** GLP Y 13
     9 ALL1        2 GROUP        1 Z    ALL  0     ROOT ALL Z 15
    10 SEL2       11 GROUP        1 Z    SEL  0     **** SEL Z 16
    11 LYL4       14 GROUP        1 Z    LYL  0     **** LYL Z 18
    12 GLL5        5 GROUP        1 Z    GLL  0     **** GLL Z 20
@<TRIPOS>SET

