#    Name: 4duh_RLI_2_ligand
#    Modification time : Tue Mar 25 10:13:19 2014

@<TRIPOS>MOLECULE
4duh_RLI_2_ligand
   41    43     1     0     0
SMALL
NO_CHARGES


@<TRIPOS>ATOM
      1 N10        30.4150    9.3110    7.7390 N.am      1 RLI301      0.0000 
      2 O10        32.1580   10.3680    7.3710 O.2       1 RLI301      0.0000 
      3 S10        31.8620    8.0610    5.9440 S.3       1 RLI301      0.0000 
      4 C11        31.6270   11.5240   10.0350 C.3       1 RLI301      0.0000 
      5 N11        29.7460    7.2590    6.9050 N.2       1 RLI301      0.0000 
      6 O11        27.7100   -1.2470    4.6080 O.co2     1 RLI301      0.0000 
      7 S11        33.5140    5.0790    2.5080 S.3       1 RLI301      0.0000 
      8 C12        31.2520   10.3150    7.8770 C.2       1 RLI301      0.0000 
      9 N12        31.5330    4.5970    3.8670 N.2       1 RLI301      0.0000 
     10 O12        27.5740   -1.5860    2.5670 O.co2     1 RLI301      0.0000 
     11 C13        30.8100   11.4220    8.8380 C.3       1 RLI301      0.0000 
     12 N13        32.0610    2.9050    2.3470 N.pl3     1 RLI301      0.0000 
     13 C14        30.5820    8.2390    6.9280 C.2       1 RLI301      0.0000 
     14 C15        30.0920    6.3070    6.0430 C.2       1 RLI301      0.0000 
     15 C16        29.2740    5.1120    5.8710 C.3       1 RLI301      0.0000 
     16 C17        31.2440    6.6250    5.4220 C.2       1 RLI301      0.0000 
     17 C18        31.9340    5.7850    4.2940 C.2       1 RLI301      0.0000 
     18 C19        33.0850    6.2190    3.6180 C.2       1 RLI301      0.0000 
     19 C20        32.2750    4.1170    2.9350 C.2       1 RLI301      0.0000 
     20 C21        31.0170    1.9550    2.6420 C.ar      1 RLI301      0.0000 
     21 C22        29.9580    2.2680    3.5130 C.ar      1 RLI301      0.0000 
     22 C23        29.0030    1.3180    3.8110 C.ar      1 RLI301      0.0000 
     23 C24        29.0770    0.0090    3.2480 C.ar      1 RLI301      0.0000 
     24 C25        27.9940   -0.9970    3.4890 C.2       1 RLI301      0.0000 
     25 C26        30.1330   -0.2870    2.3840 C.ar      1 RLI301      0.0000 
     26 C27        31.0960    0.6750    2.0770 C.ar      1 RLI301      0.0000 
     27 H          29.4974    9.3280    8.3244 H         1 RLI301      0.0000 
     28 H          30.8173   12.3789    8.2746 H         1 RLI301      0.0000 
     29 H          29.7480   11.2336    9.1021 H         1 RLI301      0.0000 
     30 H          32.7376    2.5940    1.5651 H         1 RLI301      0.0000 
     31 H          33.5983    6.9648    3.6806 H         1 RLI301      0.0000 
     32 H          29.9060    3.2099    3.9223 H         1 RLI301      0.0000 
     33 H          28.2209    1.5354    4.4438 H         1 RLI301      0.0000 
     34 H          30.2019   -1.2289    1.9675 H         1 RLI301      0.0000 
     35 H          31.8651    0.4472    1.4362 H         1 RLI301      0.0000 
     36 H          32.5835   11.7171    9.8164 H         1 RLI301      0.0000 
     37 H          31.3109   12.2555   10.6391 H         1 RLI301      0.0000 
     38 H          31.6131   10.6776   10.5674 H         1 RLI301      0.0000 
     39 H          29.6630    4.4904    5.1911 H         1 RLI301      0.0000 
     40 H          29.1860    4.5963    6.7233 H         1 RLI301      0.0000 
     41 H          28.3480    5.3363    5.5672 H         1 RLI301      0.0000 
@<TRIPOS>BOND
     1    8    1 am   
     2   13    1 1    
     3   27    1 1    
     4    8    2 2    
     5   13    3 1    
     6   16    3 1    
     7   11    4 1    
     8   36    4 1    
     9   37    4 1    
    10   38    4 1    
    11   13    5 2    
    12   14    5 1    
    13   24    6 ar   
    14   18    7 1    
    15   19    7 1    
    16   11    8 1    
    17   17    9 1    
    18   19    9 2    
    19   24   10 ar   
    20   28   11 1    
    21   29   11 1    
    22   19   12 1    
    23   20   12 1    
    24   30   12 1    
    25   15   14 1    
    26   16   14 2    
    27   39   15 1    
    28   40   15 1    
    29   41   15 1    
    30   17   16 1    
    31   18   17 2    
    32   31   18 1    
    33   21   20 ar   
    34   26   20 ar   
    35   22   21 ar   
    36   32   21 1    
    37   23   22 ar   
    38   33   22 1    
    39   24   23 1    
    40   25   23 ar   
    41   26   25 ar   
    42   34   25 1    
    43   35   26 1    
@<TRIPOS>SUBSTRUCTURE
     1 RLI301      1 GROUP   
@<TRIPOS>SET

