#    Name: 1f0x_FAD_2_INTS_M
#    Modification time : Tue Mar 25 00:30:55 2014

@<TRIPOS>MOLECULE
1f0x_FAD_2_INTS_M
  130     0     9     0     0
SMALL
NO_CHARGES


@<TRIPOS>ATOM
      1 N          63.2045   75.8525   11.7425 N.am      2 SEC2        0.0000 
      2 N          64.1730   74.7670   11.1860 N.am      8 SEL2        0.0000 
      3 N          62.2360   76.9380   12.2990 N.am      5 SEP2        0.0000 
      4 N          62.8585   74.6075   11.9085 N.am      2 SEC2        0.0000 
      5 N          61.5440   74.4480   12.6310 N.am      5 SEP2        0.0000 
      6 N          64.6245   73.8025   11.9415 N.am      2 SEC2        0.0000 
      7 N          65.0760   72.8380   12.6970 N.am      5 SEP2        0.0000 
      8 N          67.2495   76.6985   10.0645 N.am      2 SEC2        0.0000 
      9 N          66.1120   75.9030   10.4650 N.am      8 SEL2        0.0000 
     10 N          68.3870   77.4940    9.6640 N.am      5 SEP2        0.0000 
     11 N          65.4795   77.1270   11.1365 N.am      2 SEC2        0.0000 
     12 N          64.8470   78.3510   11.8080 N.am      5 SEP2        0.0000 
     13 N          65.2560   73.3115   11.3300 N.am      2 SEC2        0.0000 
     14 N          65.4360   73.7850    9.9630 N.am      8 SEL2        0.0000 
     15 CA         65.7005   73.6180    7.1470 C.3       3 GLC5        0.0000 
     16 CA         66.1780   73.2460    9.0510 C.3       9 GLL5        0.0000 
     17 CA         65.2230   73.9900    5.2430 C.3       6 GLP5        0.0000 
     18 CA         66.7715   70.8375    7.1580 C.3       3 GLC5        0.0000 
     19 CA         66.3080   71.6770    9.1790 C.3       9 GLL5        0.0000 
     20 CA         67.2350   69.9980    5.1370 C.3       6 GLP5        0.0000 
     21 CA         67.0580   71.8420   12.2870 C.3       3 GLC5        0.0000 
     22 CA         67.2870   71.1220   10.2760 C.3       9 GLL5        0.0000 
     23 CA         66.8290   72.5620   14.2980 C.3       6 GLP5        0.0000 
     24 O          68.5135   68.5625   10.1250 O.2       1 ALC1        0.0000 
     25 O          67.4570   69.7060   10.2620 O.2       7 ALL1        0.0000 
     26 O          69.5700   67.4190    9.9880 O.2       4 ALP1        0.0000 
     27 O          70.2555   72.5710   10.7975 O.2       1 ALC1        0.0000 
     28 O          69.7100   71.3970   10.5390 O.2       7 ALL1        0.0000 
     29 O          70.8010   73.7450   11.0560 O.2       4 ALP1        0.0000 
     30 CA         67.9130   70.8040    6.7735 C.3       3 GLC5        0.0000 
     31 CA         68.5910   71.6100    8.4100 C.3       9 GLL5        0.0000 
     32 CA         73.1965   74.5225    5.9465 C.3       3 GLC5        0.0000 
     33 CA         71.5030   73.9230    5.1150 C.3       9 GLL5        0.0000 
     34 CA         74.8900   75.1220    6.7780 C.3       6 GLP5        0.0000 
     35 CA         71.7865   73.0060    3.3785 C.3       3 GLC5        0.0000 
     36 CA         72.0700   72.0890    1.6420 C.3       6 GLP5        0.0000 
     37 O          72.5325   74.9065    3.2195 O.2       1 ALC1        0.0000 
     38 O          71.7720   75.0010    4.4630 O.2       7 ALL1        0.0000 
     39 O          73.2930   74.8120    1.9760 O.2       4 ALP1        0.0000 
     40 N          73.1905   72.5085    3.9735 N.am      2 SEC2        0.0000 
     41 N          72.2710   72.7800    4.9350 N.am      8 SEL2        0.0000 
     42 N          74.1100   72.2370    3.0120 N.am      5 SEP2        0.0000 
     43 CA         73.1590   72.2425    6.9855 C.3       3 GLC5        0.0000 
     44 CA         72.0100   71.5950    5.6090 C.3       9 GLL5        0.0000 
     45 CA         74.3080   72.8900    8.3620 C.3       6 GLP5        0.0000 
     46 CA         70.3055   71.1730    4.9175 C.3       3 GLC5        0.0000 
     47 CA         68.6010   70.7510    4.2260 C.3       6 GLP5        0.0000 
     48 CA         71.3225   69.7200    4.9985 C.3       3 GLC5        0.0000 
     49 CA         70.6350   67.8450    4.3880 C.3       6 GLP5        0.0000 
     50 CA         71.6955   70.2530    7.1595 C.3       3 GLC5        0.0000 
     51 CA         71.3810   68.9110    8.7100 C.3       6 GLP5        0.0000 
     52 CA         73.9230   71.5590    5.1165 C.3       3 GLC5        0.0000 
     53 CA         75.8360   71.5230    4.6240 C.3       6 GLP5        0.0000 
     54 CA         71.9535   71.1000    3.8700 C.3       3 GLC5        0.0000 
     55 CA         71.8970   70.6050    2.1310 C.3       6 GLP5        0.0000 
     56 CA         70.8095   70.7010    7.7190 C.3       3 GLC5        0.0000 
     57 CA         70.2380   72.4910    6.7280 C.3       9 GLL5        0.0000 
     58 N          56.3540   69.6735    4.8370 N.am      2 SEC2        0.0000 
     59 N          56.4420   70.1690    6.2390 N.am      8 SEL2        0.0000 
     60 N          56.2660   69.1780    3.4350 N.am      5 SEP2        0.0000 
     61 O          53.9410   70.5825    5.0945 O.2       1 ALC1        0.0000 
     62 O          54.5850   71.4730    6.3260 O.2       7 ALL1        0.0000 
     63 O          53.2970   69.6920    3.8630 O.2       4 ALP1        0.0000 
     64 N          52.7090   74.4145    6.3460 N.am      2 SEC2        0.0000 
     65 N          52.7180   72.8320    6.4690 N.am      8 SEL2        0.0000 
     66 N          52.7000   75.9970    6.2230 N.am      5 SEP2        0.0000 
     67 CA         52.6030   76.2155   13.4690 C.3       3 GLC5        0.0000 
     68 CA         53.5590   77.7070   12.2800 C.3       9 GLL5        0.0000 
     69 CA         51.6470   74.7240   14.6580 C.3       6 GLP5        0.0000 
     70 CA         56.7570   77.1310   14.8285 C.3       3 GLC5        0.0000 
     71 CA         56.3660   76.8020   13.1750 C.3       9 GLL5        0.0000 
     72 CA         57.1480   77.4600   16.4820 C.3       6 GLP5        0.0000 
     73 CA         56.3440   75.2140   14.2050 C.3       3 GLC5        0.0000 
     74 CA         56.3220   73.6260   15.2350 C.3       6 GLP5        0.0000 
     75 CA         56.5200   72.7155   11.4975 C.3       3 GLC5        0.0000 
     76 CA         57.7250   72.9410    9.8160 C.3       9 GLL5        0.0000 
     77 CA         55.3150   72.4900   13.1790 C.3       6 GLP5        0.0000 
     78 CA         56.7195   71.2480   10.1215 C.3       3 GLC5        0.0000 
     79 CA         55.7140   69.5550   10.4270 C.3       6 GLP5        0.0000 
     80 CA         58.1135   74.5465    6.9895 C.3       3 GLC5        0.0000 
     81 CA         58.6360   73.6720    8.7830 C.3       9 GLL5        0.0000 
     82 CA         57.5910   75.4210    5.1960 C.3       6 GLP5        0.0000 
     83 CA         60.7075   73.1875   10.8340 C.3       3 GLC5        0.0000 
     84 CA         60.0420   73.3590    8.9880 C.3       9 GLL5        0.0000 
     85 CA         61.3730   73.0160   12.6800 C.3       6 GLP5        0.0000 
     86 O          60.2035   75.3140   10.2920 O.2       1 ALC1        0.0000 
     87 O          60.2300   73.7930   10.3540 O.2       7 ALL1        0.0000 
     88 O          60.1770   76.8350   10.2300 O.2       4 ALP1        0.0000 
     89 CA         59.1475   74.8575    6.5735 C.3       3 GLC5        0.0000 
     90 CA         60.7040   74.2940    7.9510 C.3       9 GLL5        0.0000 
     91 CA         60.1495   76.2235    7.1650 C.3       3 GLC5        0.0000 
     92 CA         59.5950   78.1530    6.3790 C.3       6 GLP5        0.0000 
     93 CA         63.6210   74.1355    6.7225 C.3       3 GLC5        0.0000 
     94 CA         62.0190   74.2810    8.2020 C.3       9 GLL5        0.0000 
     95 N          63.3230   78.0565    6.2285 N.am      2 SEC2        0.0000 
     96 N          63.9530   77.4060    7.2840 N.am      8 SEL2        0.0000 
     97 N          62.6930   78.7070    5.1730 N.am      5 SEP2        0.0000 
     98 N          64.6230   77.2970    6.1330 N.am      2 SEC2        0.0000 
     99 N          65.2930   77.1880    4.9820 N.am      5 SEP2        0.0000 
    100 N          62.4785   76.8840   10.8425 N.am      2 SEC2        0.0000 
    101 N          62.7210   76.8300    9.3860 N.am      8 SEL2        0.0000 
    102 N          61.4490   76.8325    9.8080 N.am      2 SEC2        0.0000 
    103 N          60.1770   76.8350   10.2300 N.am      5 SEP2        0.0000 
    104 CA         69.9795   70.3293    8.9280 C.3       3 GLC5        0.0000 
    105 CA         68.5650   71.8850    9.8820 C.3       9 GLL5        0.0000 
    106 CA         71.6253   73.2537    7.6547 C.3       3 GLC5        0.0000 
    107 CA         72.9300   73.3700    8.8970 C.3       6 GLP5        0.0000 
    108 CA         69.9525   74.0087    3.9785 C.3       3 GLC5        0.0000 
    109 CA         70.4030   73.7840    6.0970 C.3       9 GLL5        0.0000 
    110 CA         68.9520   74.1640    2.3510 C.3       6 GLP5        0.0000 
    111 CA         69.5983   71.9616    5.1965 C.3       3 GLC5        0.0000 
    112 CA         55.2072   73.5957   11.5745 C.3       3 GLC5        0.0000 
    113 CA         55.7600   74.5020   10.1970 C.3       9 GLL5        0.0000 
    114 CA         53.0995   76.1345    8.6698 C.3       3 GLC5        0.0000 
    115 CA         54.4390   74.9010    9.7430 C.3       9 GLL5        0.0000 
    116 CA         52.1060   76.8380    7.2470 C.3       6 GLP5        0.0000 
    117 CA         55.3310   76.6165    9.3702 C.3       3 GLC5        0.0000 
    118 CA         53.7470   75.9610   10.4420 C.3       9 GLL5        0.0000 
    119 CA         56.5690   77.8020    8.6480 C.3       6 GLP5        0.0000 
    120 CA         55.7865   77.0935   10.2100 C.3       3 GLC5        0.0000 
    121 CA         54.3330   76.5930   11.5430 C.3       9 GLL5        0.0000 
    122 CA         55.1525   78.7450   11.7177 C.3       3 GLC5        0.0000 
    123 CA         56.3590   80.3400   11.5240 C.3       6 GLP5        0.0000 
    124 CA         55.6688   74.0745   12.4187 C.3       3 GLC5        0.0000 
    125 CA         55.6750   76.1770   12.0010 C.3       9 GLL5        0.0000 
    126 CA         56.1897   78.4147   12.0560 C.3       3 GLC5        0.0000 
    127 CA         58.0601   76.6151   11.7310 C.3       3 GLC5        0.0000 
    128 CA         59.9250   77.4150   11.5100 C.3       6 GLP5        0.0000 
    129 CA         56.3170   76.3118    9.7022 C.3       3 GLC5        0.0000 
    130 CA         56.3700   75.1410   11.3160 C.3       9 GLL5        0.0000 
@<TRIPOS>BOND
@<TRIPOS>SUBSTRUCTURE
     1 ALC1       24 GROUP        1 X    ALC  0     ROOT ALC X 1
     2 SEC2        1 GROUP        1 X    SEC  0     **** SEC X 2
     3 GLC5       15 GROUP        1 X    GLC  0     **** GLC X 6
     4 ALP1       26 GROUP        1 Y    ALP  0     ROOT ALP Y 8
     5 SEP2        3 GROUP        1 Y    SEP  0     **** SEP Y 9
     6 GLP5       17 GROUP        1 Y    GLP  0     **** GLP Y 13
     7 ALL1       25 GROUP        1 Z    ALL  0     ROOT ALL Z 15
     8 SEL2        2 GROUP        1 Z    SEL  0     **** SEL Z 16
     9 GLL5       16 GROUP        1 Z    GLL  0     **** GLL Z 20
@<TRIPOS>SET

