#    Name: 1f0x_FAD_2_ligand
#    Modification time : Tue Mar 25 00:30:55 2014

@<TRIPOS>MOLECULE
1f0x_FAD_2_ligand
   84    89     1     0     0
SMALL
NO_CHARGES


@<TRIPOS>ATOM
      1 PA         65.0950   75.1340   10.1230 P.3       1 FAD1600     0.0000 
      2 O1A        64.1730   74.7670   11.1860 O.co2     1 FAD1600     0.0000 
      3 O2A        66.1120   75.9030   10.4650 O.co2     1 FAD1600     0.0000 
      4 O5B        65.4360   73.7850    9.9630 O.3       1 FAD1600     0.0000 
      5 C5B        66.1780   73.2460    9.0510 C.3       1 FAD1600     0.0000 
      6 C4B        66.3080   71.6770    9.1790 C.3       1 FAD1600     0.0000 
      7 O4B        67.1810   71.5260    7.9760 O.3       1 FAD1600     0.0000 
      8 C3B        67.2870   71.1220   10.2760 C.3       1 FAD1600     0.0000 
      9 O3B        67.4570   69.7060   10.2620 O.3       1 FAD1600     0.0000 
     10 C2B        68.5650   71.8850    9.8820 C.3       1 FAD1600     0.0000 
     11 O2B        69.7100   71.3970   10.5390 O.3       1 FAD1600     0.0000 
     12 C1B        68.5910   71.6100    8.4100 C.3       1 FAD1600     0.0000 
     13 N9A        69.1710   72.6600    7.5460 N.pl3     1 FAD1600     0.0000 
     14 C8A        68.7450   73.9640    7.3950 C.2       1 FAD1600     0.0000 
     15 N7A        69.4660   74.6520    6.5420 N.2       1 FAD1600     0.0000 
     16 C5A        70.4030   73.7840    6.0970 C.ar      1 FAD1600     0.0000 
     17 C6A        71.5030   73.9230    5.1150 C.ar      1 FAD1600     0.0000 
     18 N6A        71.7720   75.0010    4.4630 N.pl3     1 FAD1600     0.0000 
     19 N1A        72.2710   72.7800    4.9350 N.ar      1 FAD1600     0.0000 
     20 C2A        72.0100   71.5950    5.6090 C.ar      1 FAD1600     0.0000 
     21 N3A        71.0290   71.3610    6.5080 N.ar      1 FAD1600     0.0000 
     22 C4A        70.2380   72.4910    6.7280 C.ar      1 FAD1600     0.0000 
     23 N1         56.4610   71.7620    7.8100 N.2       1 FAD1600     0.0000 
     24 C2         55.8850   71.1020    6.7990 C.2       1 FAD1600     0.0000 
     25 O2         56.4420   70.1690    6.2390 O.2       1 FAD1600     0.0000 
     26 N3         54.5850   71.4730    6.3260 N.am      1 FAD1600     0.0000 
     27 C4         53.8410   72.5400    6.8980 C.2       1 FAD1600     0.0000 
     28 O4         52.7180   72.8320    6.4690 O.2       1 FAD1600     0.0000 
     29 C4X        54.4570   73.2450    8.0170 C.2       1 FAD1600     0.0000 
     30 N5         53.7900   74.2890    8.6630 N.2       1 FAD1600     0.0000 
     31 C5X        54.4390   74.9010    9.7430 C.ar      1 FAD1600     0.0000 
     32 C6         53.7470   75.9610   10.4420 C.ar      1 FAD1600     0.0000 
     33 C7         54.3330   76.5930   11.5430 C.ar      1 FAD1600     0.0000 
     34 C7M        53.5590   77.7070   12.2800 C.3       1 FAD1600     0.0000 
     35 C8         55.6750   76.1770   12.0010 C.ar      1 FAD1600     0.0000 
     36 C8M        56.3660   76.8020   13.1750 C.3       1 FAD1600     0.0000 
     37 C9         56.3700   75.1410   11.3160 C.ar      1 FAD1600     0.0000 
     38 C9A        55.7600   74.5020   10.1970 C.ar      1 FAD1600     0.0000 
     39 N10        56.3910   73.4060    9.4480 N.pl3     1 FAD1600     0.0000 
     40 C10        55.7950   72.8050    8.4300 C.2       1 FAD1600     0.0000 
     41 C1'        57.7250   72.9410    9.8160 C.3       1 FAD1600     0.0000 
     42 C2'        58.6360   73.6720    8.7830 C.3       1 FAD1600     0.0000 
     43 O2'        58.3070   73.2790    7.4340 O.3       1 FAD1600     0.0000 
     44 C3'        60.0420   73.3590    8.9880 C.3       1 FAD1600     0.0000 
     45 O3'        60.2300   73.7930   10.3540 O.3       1 FAD1600     0.0000 
     46 C4'        60.7040   74.2940    7.9510 C.3       1 FAD1600     0.0000 
     47 O4'        60.5470   73.7050    6.5700 O.3       1 FAD1600     0.0000 
     48 C5'        62.0190   74.2810    8.2020 C.3       1 FAD1600     0.0000 
     49 O5'        62.5540   75.4270    7.3570 O.3       1 FAD1600     0.0000 
     50 P          63.3570   76.3450    8.2040 P.3       1 FAD1600     0.0000 
     51 O1P        63.9530   77.4060    7.2840 O.co2     1 FAD1600     0.0000 
     52 O2P        62.7210   76.8300    9.3860 O.co2     1 FAD1600     0.0000 
     53 O3P        64.4270   75.4870    8.7340 O.3       1 FAD1600     0.0000 
     54 H          67.2475   73.6048    9.0281 H         1 FAD1600     0.0000 
     55 H          65.8253   73.4023    7.9907 H         1 FAD1600     0.0000 
     56 H          65.4700   71.1993    9.0739 H         1 FAD1600     0.0000 
     57 H          66.9578   71.5322   11.2051 H         1 FAD1600     0.0000 
     58 H          68.3672   72.9182   10.0246 H         1 FAD1600     0.0000 
     59 H          69.0512   70.6636    8.2121 H         1 FAD1600     0.0000 
     60 H          67.9592   74.3160    7.9028 H         1 FAD1600     0.0000 
     61 H          72.5472   74.9524    3.8331 H         1 FAD1600     0.0000 
     62 H          71.1806   75.7860    4.6475 H         1 FAD1600     0.0000 
     63 H          72.6788   70.7693    5.3777 H         1 FAD1600     0.0000 
     64 H          54.1766   70.9416    5.5385 H         1 FAD1600     0.0000 
     65 H          52.8187   76.2366   10.1110 H         1 FAD1600     0.0000 
     66 H          57.2951   74.8578   11.6217 H         1 FAD1600     0.0000 
     67 H          57.8376   71.8963    9.6712 H         1 FAD1600     0.0000 
     68 H          58.0061   73.2627   10.7868 H         1 FAD1600     0.0000 
     69 H          58.4769   74.7372    8.9058 H         1 FAD1600     0.0000 
     70 H          60.2396   72.3897    8.8016 H         1 FAD1600     0.0000 
     71 H          60.2477   75.2329    7.9948 H         1 FAD1600     0.0000 
     72 H          62.5310   73.3814    7.8770 H         1 FAD1600     0.0000 
     73 H          62.2834   74.4961    9.2320 H         1 FAD1600     0.0000 
     74 H          54.0813   78.0759   13.0488 H         1 FAD1600     0.0000 
     75 H          53.3464   78.4743   11.6749 H         1 FAD1600     0.0000 
     76 H          52.6906   77.3748   12.6482 H         1 FAD1600     0.0000 
     77 H          57.2639   76.3932   13.3383 H         1 FAD1600     0.0000 
     78 H          56.5102   77.7826   13.0422 H         1 FAD1600     0.0000 
     79 H          55.8376   76.6948   14.0172 H         1 FAD1600     0.0000 
     80 H          68.4256   69.5598   10.4631 H         1 FAD1600     0.0000 
     81 H          70.2100   72.2133   10.8281 H         1 FAD1600     0.0000 
     82 H          58.0128   72.3260    7.5067 H         1 FAD1600     0.0000 
     83 H          60.2077   74.7919   10.3134 H         1 FAD1600     0.0000 
     84 H          59.6881   73.1939    6.6029 H         1 FAD1600     0.0000 
@<TRIPOS>BOND
     1    2    1 ar   
     2    3    1 ar   
     3    4    1 1    
     4   53    1 1    
     5    5    4 1    
     6    6    5 1    
     7   54    5 1    
     8   55    5 1    
     9    7    6 1    
    10    8    6 1    
    11   56    6 1    
    12   12    7 1    
    13    9    8 1    
    14   10    8 1    
    15   57    8 1    
    16   80    9 1    
    17   11   10 1    
    18   12   10 1    
    19   58   10 1    
    20   81   11 1    
    21   13   12 1    
    22   59   12 1    
    23   14   13 1    
    24   22   13 1    
    25   15   14 2    
    26   60   14 1    
    27   16   15 1    
    28   17   16 ar   
    29   22   16 ar   
    30   18   17 1    
    31   19   17 ar   
    32   61   18 1    
    33   62   18 1    
    34   20   19 ar   
    35   21   20 ar   
    36   63   20 1    
    37   22   21 ar   
    38   24   23 1    
    39   40   23 2    
    40   25   24 2    
    41   26   24 am   
    42   27   26 am   
    43   64   26 1    
    44   28   27 2    
    45   29   27 1    
    46   30   29 2    
    47   40   29 1    
    48   31   30 1    
    49   32   31 ar   
    50   38   31 ar   
    51   33   32 ar   
    52   65   32 1    
    53   34   33 1    
    54   35   33 ar   
    55   74   34 1    
    56   75   34 1    
    57   76   34 1    
    58   36   35 1    
    59   37   35 ar   
    60   77   36 1    
    61   78   36 1    
    62   79   36 1    
    63   38   37 ar   
    64   66   37 1    
    65   39   38 1    
    66   40   39 1    
    67   41   39 1    
    68   42   41 1    
    69   67   41 1    
    70   68   41 1    
    71   43   42 1    
    72   44   42 1    
    73   69   42 1    
    74   82   43 1    
    75   45   44 1    
    76   46   44 1    
    77   70   44 1    
    78   83   45 1    
    79   47   46 1    
    80   48   46 1    
    81   71   46 1    
    82   84   47 1    
    83   49   48 1    
    84   72   48 1    
    85   73   48 1    
    86   50   49 1    
    87   51   50 ar   
    88   52   50 ar   
    89   53   50 1    
@<TRIPOS>SUBSTRUCTURE
     1 FAD1600     1 GROUP   
@<TRIPOS>SET

