#    Name: 1fgi_SU1_1_INTS_M
#    Modification time : Tue Mar 25 01:22:56 2014

@<TRIPOS>MOLECULE
1fgi_SU1_1_INTS_M
   65     0     9     0     0
SMALL
NO_CHARGES


@<TRIPOS>ATOM
      1 O           4.7130    1.1915   20.1235 O.2       1 ALC1        0.0000 
      2 O           5.7320    2.1500   20.4400 O.2       7 ALL1        0.0000 
      3 O           3.6940    0.2330   19.8070 O.2       4 ALP1        0.0000 
      4 N           6.3125    0.4490   22.6160 N.am      2 SEC2        0.0000 
      5 N           6.4480    1.8200   22.5560 N.am      8 SEL2        0.0000 
      6 N           6.1770   -0.9220   22.6760 N.am      5 SEP2        0.0000 
      7 CA          6.2875    4.1015   23.0535 C.3       3 GLC5        0.0000 
      8 CA          7.3090    3.5360   21.2270 C.3       9 GLL5        0.0000 
      9 CA          5.2660    4.6670   24.8800 C.3       6 GLP5        0.0000 
     10 CA          4.6845    5.5555   16.4185 C.3       3 GLC5        0.0000 
     11 CA          5.9110    4.0990   17.3010 C.3       9 GLL5        0.0000 
     12 CA          3.4580    7.0120   15.5360 C.3       6 GLP5        0.0000 
     13 CA          6.3570    1.1255   18.4185 C.3       3 GLC5        0.0000 
     14 CA          5.9940    3.0250   19.4180 C.3       9 GLL5        0.0000 
     15 CA          6.7200   -0.7740   17.4190 C.3       6 GLP5        0.0000 
     16 CA          5.7245    5.4845   20.5330 C.3       3 GLC5        0.0000 
     17 CA          6.9850    3.9220   19.8820 C.3       9 GLL5        0.0000 
     18 CA          4.4640    7.0470   21.1840 C.3       6 GLP5        0.0000 
     19 CA          8.8030    2.9205   20.4010 C.3       3 GLC5        0.0000 
     20 CA          8.3610    4.1930   22.1030 C.3       9 GLL5        0.0000 
     21 CA          9.2450    1.6480   18.6990 C.3       6 GLP5        0.0000 
     22 CA          8.6465    0.6110   25.9050 C.3       3 GLC5        0.0000 
     23 CA          9.2110    2.5460   25.1870 C.3       9 GLL5        0.0000 
     24 CA          8.0820   -1.3240   26.6230 C.3       6 GLP5        0.0000 
     25 CA         11.7875    2.4000   25.1155 C.3       3 GLC5        0.0000 
     26 CA         11.2890    3.7210   26.2330 C.3       9 GLL5        0.0000 
     27 CA         12.2860    1.0790   23.9980 C.3       6 GLP5        0.0000 
     28 CA         11.6745    5.2325   20.2850 C.3       3 GLC5        0.0000 
     29 CA         11.7120    4.9870   22.4300 C.3       9 GLL5        0.0000 
     30 CA         11.6370    5.4780   18.1400 C.3       6 GLP5        0.0000 
     31 CA         11.9990    3.0330   23.2140 C.3       3 GLC5        0.0000 
     32 CA         11.5535    3.4965   21.1045 C.3       3 GLC5        0.0000 
     33 CA         11.3950    2.0060   19.7790 C.3       6 GLP5        0.0000 
     34 N          14.7770    5.0845   21.4605 N.am      2 SEC2        0.0000 
     35 N          13.6100    5.8150   21.2600 N.am      8 SEL2        0.0000 
     36 N          15.9440    4.3540   21.6610 N.am      5 SEP2        0.0000 
     37 CA          5.0650    3.6475   21.0373 C.3       3 GLC5        0.0000 
     38 CA          2.9830    3.5660   21.5200 C.3       6 GLP5        0.0000 
     39 CA          8.0870    6.4752   17.7430 C.3       3 GLC5        0.0000 
     40 CA          7.4410    4.9330   19.0220 C.3       9 GLL5        0.0000 
     41 CA          9.0050    7.9770   17.1080 C.3       6 GLP5        0.0000 
     42 CA          6.3790    6.7153   18.9290 C.3       3 GLC5        0.0000 
     43 CA          6.8970    5.0140   17.7340 C.3       9 GLL5        0.0000 
     44 CA          5.5890    8.4570   19.4800 C.3       6 GLP5        0.0000 
     45 CA          8.2070    3.3107   18.5385 C.3       3 GLC5        0.0000 
     46 CA          5.1237    2.0285   16.7357 C.3       3 GLC5        0.0000 
     47 CA          4.5680    0.4560   15.7600 C.3       6 GLP5        0.0000 
     48 CA          7.4622    2.6245   18.2052 C.3       3 GLC5        0.0000 
     49 CA          5.4480    3.1030   18.1220 C.3       9 GLL5        0.0000 
     50 CA          4.3520    3.3150   20.1450 C.3       3 GLC5        0.0000 
     51 CA          3.9414    3.3175   18.0379 C.3       3 GLC5        0.0000 
     52 CA          2.0460    3.3220   17.5110 C.3       6 GLP5        0.0000 
     53 CA          7.9078    2.5125   19.3426 C.3       3 GLC5        0.0000 
     54 CA          7.7408    5.2780   23.8685 C.3       3 GLC5        0.0000 
     55 CA          6.8390    6.6080   24.9830 C.3       6 GLP5        0.0000 
     56 CA          8.6195    5.7242   24.3875 C.3       3 GLC5        0.0000 
     57 CA          9.9880    4.2570   24.0490 C.3       9 GLL5        0.0000 
     58 CA          8.2545    3.9875   25.9965 C.3       3 GLC5        0.0000 
     59 CA         10.1990    3.5000   25.1750 C.3       9 GLL5        0.0000 
     60 CA          6.8040    4.9520   26.8120 C.3       6 GLP5        0.0000 
     61 CA         11.0875    6.9838   23.8223 C.3       3 GLC5        0.0000 
     62 CA         10.8120    5.4240   23.5350 C.3       9 GLL5        0.0000 
     63 CA         10.9130    8.7620   24.6620 C.3       6 GLP5        0.0000 
     64 CA         10.9333    2.2902   24.2260 C.3       3 GLC5        0.0000 
     65 CA          8.9240    3.7030   23.4050 C.3       9 GLL5        0.0000 
@<TRIPOS>BOND
@<TRIPOS>SUBSTRUCTURE
     1 ALC1        1 GROUP        1 X    ALC  0     ROOT ALC X 1
     2 SEC2        4 GROUP        1 X    SEC  0     **** SEC X 2
     3 GLC5        7 GROUP        1 X    GLC  0     **** GLC X 6
     4 ALP1        3 GROUP        1 Y    ALP  0     ROOT ALP Y 8
     5 SEP2        6 GROUP        1 Y    SEP  0     **** SEP Y 9
     6 GLP5        9 GROUP        1 Y    GLP  0     **** GLP Y 13
     7 ALL1        2 GROUP        1 Z    ALL  0     ROOT ALL Z 15
     8 SEL2        5 GROUP        1 Z    SEL  0     **** SEL Z 16
     9 GLL5        8 GROUP        1 Z    GLL  0     **** GLL Z 20
@<TRIPOS>SET

