#    Name: 1fgi_SU1_1_ligand
#    Modification time : Tue Mar 25 01:22:56 2014

@<TRIPOS>MOLECULE
1fgi_SU1_1_ligand
   37    39     1     0     0
SMALL
NO_CHARGES


@<TRIPOS>ATOM
      1 N1          5.7320    2.1500   20.4400 N.am      1 SU11001     0.0000 
      2 C2          6.5130    2.4730   21.5170 C.2       1 SU11001     0.0000 
      3 O2          6.4480    1.8200   22.5560 O.2       1 SU11001     0.0000 
      4 C3          7.3090    3.5360   21.2270 C.2       1 SU11001     0.0000 
      5 C4          7.4410    4.9330   19.0220 C.ar      1 SU11001     0.0000 
      6 C5          6.8970    5.0140   17.7340 C.ar      1 SU11001     0.0000 
      7 C6          5.9110    4.0990   17.3010 C.ar      1 SU11001     0.0000 
      8 C7          5.4480    3.1030   18.1220 C.ar      1 SU11001     0.0000 
      9 C8          5.9940    3.0250   19.4180 C.ar      1 SU11001     0.0000 
     10 C9          6.9850    3.9220   19.8820 C.ar      1 SU11001     0.0000 
     11 C10         8.3610    4.1930   22.1030 C.2       1 SU11001     0.0000 
     12 N1'         8.4470    2.6740   24.1080 N.pl3     1 SU11001     0.0000 
     13 C2'         8.9240    3.7030   23.4050 C.2       1 SU11001     0.0000 
     14 C3'         9.9880    4.2570   24.0490 C.2       1 SU11001     0.0000 
     15 C4'        10.1990    3.5000   25.1750 C.2       1 SU11001     0.0000 
     16 C5'         9.2110    2.5460   25.1870 C.2       1 SU11001     0.0000 
     17 C11        11.2890    3.7210   26.2330 C.3       1 SU11001     0.0000 
     18 C12        10.8120    5.4240   23.5350 C.3       1 SU11001     0.0000 
     19 C13        11.7120    4.9870   22.4300 C.3       1 SU11001     0.0000 
     20 C14        12.4730    6.1130   21.7160 C.2       1 SU11001     0.0000 
     21 O3         11.9370    7.2490   21.5710 O.co2     1 SU11001     0.0000 
     22 O4         13.6100    5.8150   21.2600 O.co2     1 SU11001     0.0000 
     23 H           5.1003    1.4253   20.4051 H         1 SU11001     0.0000 
     24 H           8.1502    5.5910   19.3283 H         1 SU11001     0.0000 
     25 H           7.2170    5.7500   17.0882 H         1 SU11001     0.0000 
     26 H           5.5401    4.1982   16.3362 H         1 SU11001     0.0000 
     27 H           4.7432    2.4423   17.8254 H         1 SU11001     0.0000 
     28 H           8.7396    5.1082   21.7463 H         1 SU11001     0.0000 
     29 H           7.6874    2.1265   23.8729 H         1 SU11001     0.0000 
     30 H           9.1074    1.8840   25.8947 H         1 SU11001     0.0000 
     31 H          11.4028    5.8312   24.3600 H         1 SU11001     0.0000 
     32 H          10.1356    6.2060   23.1796 H         1 SU11001     0.0000 
     33 H          11.1253    4.4314   21.6658 H         1 SU11001     0.0000 
     34 H          12.4594    4.2614   22.8197 H         1 SU11001     0.0000 
     35 H          12.2062    3.6663   25.8383 H         1 SU11001     0.0000 
     36 H          11.2094    4.6187   26.6663 H         1 SU11001     0.0000 
     37 H          11.2425    3.0384   26.9623 H         1 SU11001     0.0000 
@<TRIPOS>BOND
     1    2    1 am   
     2    9    1 1    
     3   23    1 1    
     4    3    2 2    
     5    4    2 1    
     6   10    4 1    
     7   11    4 2    
     8    6    5 ar   
     9   10    5 ar   
    10   24    5 1    
    11    7    6 ar   
    12   25    6 1    
    13    8    7 ar   
    14   26    7 1    
    15    9    8 ar   
    16   27    8 1    
    17   10    9 ar   
    18   13   11 1    
    19   28   11 1    
    20   13   12 1    
    21   16   12 1    
    22   29   12 1    
    23   14   13 2    
    24   15   14 1    
    25   18   14 1    
    26   16   15 2    
    27   17   15 1    
    28   30   16 1    
    29   35   17 1    
    30   36   17 1    
    31   37   17 1    
    32   19   18 1    
    33   31   18 1    
    34   32   18 1    
    35   20   19 1    
    36   33   19 1    
    37   34   19 1    
    38   21   20 ar   
    39   22   20 ar   
@<TRIPOS>SUBSTRUCTURE
     1 SU11001     1 GROUP   
@<TRIPOS>SET

