#    Name: 2V60_2_CAVITY_N1_ALL.mol2
#    Modification time : Mon Mar 10 14:52:59 2014

@<TRIPOS>MOLECULE
2V60_2_CAVITY_N1_ALL.mol2
   37     0     4     0     0
SMALL
NO_CHARGES


@<TRIPOS>ATOM
      1 N          15.5994  130.6504   22.7392 N.2       2 ALA2        0.0000 
      2 CA         16.1921  129.3343   23.1473 C.3       4 GLY6        0.0000 
      3 CA         16.7848  128.0182   23.5554 C.3       4 GLY6        0.0000 
      4 O          15.1884  128.6176   22.2935 O.2       2 ALA2        0.0000 
      5 O          15.7811  127.3015   22.7016 O.2       2 ALA2        0.0000 
      6 CZ         16.3738  125.9854   23.1097 C.ar      3 PHE5        0.0000 
      7 CA         17.5471  131.4315   22.4292 C.3       4 GLY6        0.0000 
      8 N          18.1399  130.1154   22.8373 N.2       2 ALA2        0.0000 
      9 N          16.5435  130.7147   21.5754 N.2       2 ALA2        0.0000 
     10 CA         17.1362  129.3986   21.9835 C.3       4 GLY6        0.0000 
     11 CA         17.7289  128.0825   22.3916 C.3       4 GLY6        0.0000 
     12 CA         18.3216  126.7664   22.7997 C.3       4 GLY6        0.0000 
     13 N          16.1326  128.6819   21.1297 N.2       2 ALA2        0.0000 
     14 N          16.7253  127.3658   21.5378 N.2       2 ALA2        0.0000 
     15 CZ         17.3180  126.0497   21.9459 C.ar      3 PHE5        0.0000 
     16 CA         18.4913  131.4958   21.2654 C.3       4 GLY6        0.0000 
     17 N          19.0840  130.1797   21.6735 N.2       2 ALA2        0.0000 
     18 OG         17.4877  130.7791   20.4116 O.2       1 SER1        0.0000 
     19 OG         18.0804  129.4629   20.8197 O.2       1 SER1        0.0000 
     20 OG         18.6731  128.1468   21.2278 O.2       1 SER1        0.0000 
     21 OG         19.2658  126.8307   21.6359 O.2       1 SER1        0.0000 
     22 N          17.0767  128.7462   19.9659 N.2       2 ALA2        0.0000 
     23 N          17.6694  127.4301   20.3740 N.2       2 ALA2        0.0000 
     24 CZ         18.2621  126.1140   20.7821 C.ar      3 PHE5        0.0000 
     25 CZ         17.2585  125.3972   19.9283 C.ar      3 PHE5        0.0000 
     26 CZ         19.0245  129.5273   19.6559 C.ar      3 PHE5        0.0000 
     27 CZ         19.6172  128.2111   20.0640 C.ar      3 PHE5        0.0000 
     28 OG         18.0209  128.8105   18.8021 O.2       1 SER1        0.0000 
     29 N          18.6136  127.4944   19.2102 N.2       2 ALA2        0.0000 
     30 N          19.2063  126.1783   19.6183 N.2       2 ALA2        0.0000 
     31 N          17.0173  128.0938   17.9482 N.2       2 ALA2        0.0000 
     32 N          17.6100  126.7777   18.3563 N.2       2 ALA2        0.0000 
     33 CZ         19.9687  129.5916   18.4921 C.ar      3 PHE5        0.0000 
     34 CZ         20.5614  128.2755   18.9002 C.ar      3 PHE5        0.0000 
     35 CZ         18.9651  128.8748   17.6383 C.ar      3 PHE5        0.0000 
     36 N          19.5578  127.5587   18.0464 N.2       2 ALA2        0.0000 
     37 CZ         14.8370  127.2372   23.8654 C.ar      3 PHE5        0.0000 
@<TRIPOS>BOND
@<TRIPOS>SUBSTRUCTURE
     1 SER1       18 GROUP   
     2 ALA2        1 GROUP   
     3 PHE5        6 GROUP   
     4 GLY6        2 GROUP   
@<TRIPOS>SET

