#    Name: 2v60_C17_2_INTS_M
#    Modification time : Tue Mar 25 01:03:48 2014

@<TRIPOS>MOLECULE
2v60_C17_2_INTS_M
   51     0     3     0     0
SMALL
NO_CHARGES


@<TRIPOS>ATOM
      1 CA         19.8645  128.7740   20.9515 C.3       1 GLC5        0.0000 
      2 CA         17.7180  128.5150   20.9410 C.3       3 GLL5        0.0000 
      3 CA         22.0110  129.0330   20.9620 C.3       2 GLP5        0.0000 
      4 CA         15.8320  126.4795   20.4125 C.3       1 GLC5        0.0000 
      5 CA         17.8900  127.1720   20.6010 C.3       3 GLL5        0.0000 
      6 CA         13.7740  125.7870   20.2240 C.3       2 GLP5        0.0000 
      7 CA         18.8165  125.6380   21.7670 C.3       1 GLC5        0.0000 
      8 CA         19.7430  124.1040   22.9330 C.3       2 GLP5        0.0000 
      9 CA         20.0195  127.4680   21.0410 C.3       1 GLC5        0.0000 
     10 CA         22.1490  127.7640   21.4810 C.3       2 GLP5        0.0000 
     11 CA         13.6670  127.4790   26.6750 C.3       1 GLC5        0.0000 
     12 CA         13.5500  129.0000   26.0570 C.3       3 GLL5        0.0000 
     13 CA         13.7840  125.9580   27.2930 C.3       2 GLP5        0.0000 
     14 CA         13.5430  134.0745   29.0270 C.3       1 GLC5        0.0000 
     15 CA         14.3270  132.3720   29.7070 C.3       3 GLL5        0.0000 
     16 CA         12.7590  135.7770   28.3470 C.3       2 GLP5        0.0000 
     17 CA         15.8530  131.1045   30.2035 C.3       1 GLC5        0.0000 
     18 CA         17.3790  129.8370   30.7000 C.3       2 GLP5        0.0000 
     19 CA         15.4670  133.7375   29.0685 C.3       1 GLC5        0.0000 
     20 CA         16.6070  135.1030   28.4300 C.3       2 GLP5        0.0000 
     21 CA         13.2315  131.9405   26.2405 C.3       1 GLC5        0.0000 
     22 CA         13.8800  130.6780   27.9200 C.3       3 GLL5        0.0000 
     23 CA         12.5830  133.2030   24.5610 C.3       2 GLP5        0.0000 
     24 CA         14.6910  126.9255   21.6493 C.3       1 GLC5        0.0000 
     25 CA         16.0900  127.8710   22.5560 C.3       3 GLL5        0.0000 
     26 CA         13.5705  130.6972   23.3065 C.3       1 GLC5        0.0000 
     27 CA         14.9530  129.5390   23.9300 C.3       3 GLL5        0.0000 
     28 CA         11.8290  131.3660   22.9960 C.3       2 GLP5        0.0000 
     29 CA         16.1766  129.1845   24.9884 C.3       1 GLC5        0.0000 
     30 CA         15.6710  130.5180   23.3040 C.3       3 GLL5        0.0000 
     31 CA         16.9980  128.6610   26.4440 C.3       2 GLP5        0.0000 
     32 CA         16.9165  132.1800   23.0273 C.3       1 GLC5        0.0000 
     33 CA         17.7170  133.9670   23.2330 C.3       2 GLP5        0.0000 
     34 CA         17.3980  129.0545   23.9981 C.3       1 GLC5        0.0000 
     35 CA         16.5610  130.2680   22.3390 C.3       3 GLL5        0.0000 
     36 CA         18.2900  128.7910   25.7060 C.3       2 GLP5        0.0000 
     37 CA         11.7777  128.7018   28.9835 C.3       1 GLC5        0.0000 
     38 CA         13.0230  129.8240   27.2260 C.3       3 GLL5        0.0000 
     39 CA         11.2060  127.6240   30.5560 C.3       2 GLP5        0.0000 
     40 CA         12.0331  130.8328   25.7454 C.3       1 GLC5        0.0000 
     41 CA         11.6760  129.7350   27.5960 C.3       3 GLL5        0.0000 
     42 CA         11.5850  132.0920   24.3720 C.3       2 GLP5        0.0000 
     43 CA         10.2235  131.1895   30.3252 C.3       1 GLC5        0.0000 
     44 CA         11.1900  130.5260   28.6410 C.3       3 GLL5        0.0000 
     45 CA          8.8250  131.4240   31.6650 C.3       2 GLP5        0.0000 
     46 CA         10.6225  131.9125   27.4247 C.3       1 GLC5        0.0000 
     47 CA          9.6230  132.8700   25.8640 C.3       2 GLP5        0.0000 
     48 CA         11.4140  129.2895   29.7707 C.3       1 GLC5        0.0000 
     49 CA         13.6143  132.1340   31.2966 C.3       1 GLC5        0.0000 
     50 CA         13.7010  132.3730   33.1650 C.3       2 GLP5        0.0000 
     51 CA         15.2906  129.3530   26.8624 C.3       1 GLC5        0.0000 
@<TRIPOS>BOND
@<TRIPOS>SUBSTRUCTURE
     1 GLC5        1 GROUP        1 X    GLC  0     ROOT GLC X 6
     2 GLP5        3 GROUP        1 Y    GLP  0     ROOT GLP Y 13
     3 GLL5        2 GROUP        1 Z    GLL  0     ROOT GLL Z 20
@<TRIPOS>SET

