#    Name: 2v60_C17_2_ligand
#    Modification time : Tue Mar 25 01:03:49 2014

@<TRIPOS>MOLECULE
2v60_C17_2_ligand
   33    35     1     0     0
SMALL
NO_CHARGES


@<TRIPOS>ATOM
      1 O2C        17.2710  124.9730   20.9670 O.2       1 C171498     0.0000 
      2 C2         17.1470  126.1840   21.2520 C.2       1 C171498     0.0000 
      3 O1         16.2600  126.5450   22.2280 O.3       1 C171498     0.0000 
      4 C9         16.0900  127.8710   22.5560 C.ar      1 C171498     0.0000 
      5 C10        16.8120  128.8650   21.9270 C.ar      1 C171498     0.0000 
      6 C4         17.7180  128.5150   20.9410 C.2       1 C171498     0.0000 
      7 C4C        18.5030  129.5800   20.2350 C.2       1 C171498     0.0000 
      8 O4C        18.3570  130.8010   20.5280 O.2       1 C171498     0.0000 
      9 C3         17.8900  127.1720   20.6010 C.2       1 C171498     0.0000 
     10 C8         15.1260  128.2570   23.5930 C.ar      1 C171498     0.0000 
     11 C7         14.9530  129.5390   23.9300 C.ar      1 C171498     0.0000 
     12 C6         15.6710  130.5180   23.3040 C.ar      1 C171498     0.0000 
     13 C5         16.5610  130.2680   22.3390 C.ar      1 C171498     0.0000 
     14 O7C        13.9930  129.8810   24.9970 O.3       1 C171498     0.0000 
     15 C7B        13.5500  129.0000   26.0570 C.3       1 C171498     0.0000 
     16 C1B        13.0230  129.8240   27.2260 C.ar      1 C171498     0.0000 
     17 C6B        11.6760  129.7350   27.5960 C.ar      1 C171498     0.0000 
     18 C5B        11.1900  130.5260   28.6410 C.ar      1 C171498     0.0000 
     19 C4B        12.0540  131.3840   29.3300 C.ar      1 C171498     0.0000 
     20 C3B        13.4020  131.4520   28.9690 C.ar      1 C171498     0.0000 
     21 CL3        14.3270  132.3720   29.7070 Cl        1 C171498     0.0000 
     22 C2B        13.8800  130.6780   27.9200 C.ar      1 C171498     0.0000 
     23 H          19.1515  129.2032   19.5086 H         1 C171498     0.0000 
     24 H          18.5634  126.9094   19.8715 H         1 C171498     0.0000 
     25 H          14.6010  127.4848   24.0355 H         1 C171498     0.0000 
     26 H          15.5049  131.5232   23.6079 H         1 C171498     0.0000 
     27 H          17.0951  130.9861   21.8510 H         1 C171498     0.0000 
     28 H          14.3708  128.3756   26.4225 H         1 C171498     0.0000 
     29 H          12.7466  128.3408   25.7148 H         1 C171498     0.0000 
     30 H          11.0498  129.0927   27.1026 H         1 C171498     0.0000 
     31 H          10.1994  130.4778   28.9033 H         1 C171498     0.0000 
     32 H          11.6978  131.9615   30.0983 H         1 C171498     0.0000 
     33 H          14.8732  130.7329   27.6506 H         1 C171498     0.0000 
@<TRIPOS>BOND
     1    2    1 2    
     2    3    2 1    
     3    9    2 1    
     4    4    3 1    
     5    5    4 ar   
     6   10    4 ar   
     7    6    5 1    
     8   13    5 ar   
     9    7    6 1    
    10    9    6 2    
    11    8    7 2    
    12   23    7 1    
    13   24    9 1    
    14   11   10 ar   
    15   25   10 1    
    16   12   11 ar   
    17   14   11 1    
    18   13   12 ar   
    19   26   12 1    
    20   27   13 1    
    21   15   14 1    
    22   16   15 1    
    23   28   15 1    
    24   29   15 1    
    25   17   16 ar   
    26   22   16 ar   
    27   18   17 ar   
    28   30   17 1    
    29   19   18 ar   
    30   31   18 1    
    31   20   19 ar   
    32   32   19 1    
    33   21   20 1    
    34   22   20 ar   
    35   33   22 1    
@<TRIPOS>SUBSTRUCTURE
     1 C171498     1 GROUP   
@<TRIPOS>SET

