#    Name: 1pr6_XYA_1_INTS_M
#    Modification time : Mon Mar 24 22:10:14 2014

@<TRIPOS>MOLECULE
1pr6_XYA_1_INTS_M
   37     0     9     0     0
SMALL
NO_CHARGES


@<TRIPOS>ATOM
      1 CA         92.6205   64.8850   17.0980 C.3       3 GLC5        0.0000 
      2 CA         94.0190   65.0450   18.6880 C.3       9 GLL5        0.0000 
      3 CA         91.2220   64.7250   15.5080 C.3       6 GLP5        0.0000 
      4 CA         92.8865   63.4345   18.6375 C.3       3 GLC5        0.0000 
      5 CA         91.7540   61.8240   18.5870 C.3       6 GLP5        0.0000 
      6 CA         89.3920   68.6515   20.6570 C.3       3 GLC5        0.0000 
      7 CA         89.7900   67.6020   18.7860 C.3       9 GLL5        0.0000 
      8 CA         88.9940   69.7010   22.5280 C.3       6 GLP5        0.0000 
      9 CA         87.5890   68.9145   18.8935 C.3       3 GLC5        0.0000 
     10 CA         88.7240   67.2210   17.9440 C.3       9 GLL5        0.0000 
     11 CA         86.4540   70.6080   19.8430 C.3       6 GLP5        0.0000 
     12 CA         87.0385   64.8905   19.2480 C.3       3 GLC5        0.0000 
     13 CA         89.0580   65.0000   18.5890 C.3       9 GLL5        0.0000 
     14 CA         85.0190   64.7810   19.9070 C.3       6 GLP5        0.0000 
     15 CA         88.8780   64.8890   20.5670 C.3       3 GLC5        0.0000 
     16 CA         88.6980   64.7780   22.5450 C.3       6 GLP5        0.0000 
     17 CA         89.8180   63.3730   19.2835 C.3       3 GLC5        0.0000 
     18 CA         90.5780   61.7460   19.9780 C.3       6 GLP5        0.0000 
     19 CA         89.5605   65.6815   21.0140 C.3       3 GLC5        0.0000 
     20 CA         90.4230   66.5850   19.4830 C.3       9 GLL5        0.0000 
     21 CA         91.9000   63.1875   21.3355 C.3       3 GLC5        0.0000 
     22 CA         92.6170   65.1750   21.4050 C.3       9 GLL5        0.0000 
     23 CA         91.1830   61.2000   21.2660 C.3       6 GLP5        0.0000 
     24 N          91.1395   63.8095   22.7630 N.am      2 SEC2        0.0000 
     25 N          92.2500   64.8900   22.7470 N.am      8 SEL2        0.0000 
     26 N          90.0290   62.7290   22.7790 N.am      5 SEP2        0.0000 
     27 O          92.5825   63.8345   23.5560 O.2       1 ALC1        0.0000 
     28 O          92.2500   64.8900   22.7470 O.2       7 ALL1        0.0000 
     29 O          92.9150   62.7790   24.3650 O.2       4 ALP1        0.0000 
     30 O          94.4545   62.6890   22.0870 O.2       1 ALC1        0.0000 
     31 O          94.4630   63.5570   21.0550 O.2       7 ALL1        0.0000 
     32 O          94.4460   61.8210   23.1190 O.2       4 ALP1        0.0000 
     33 CA         95.6925   64.3555   18.6245 C.3       3 GLC5        0.0000 
     34 CA         94.4310   65.7050   20.0140 C.3       9 GLL5        0.0000 
     35 CA         97.1600   63.3360   17.8980 C.3       6 GLP5        0.0000 
     36 CA         90.9680   65.6043   22.5435 C.3       3 GLC5        0.0000 
     37 CA         89.3520   65.2780   23.8450 C.3       6 GLP5        0.0000 
@<TRIPOS>BOND
@<TRIPOS>SUBSTRUCTURE
     1 ALC1       27 GROUP        1 X    ALC  0     ROOT ALC X 1
     2 SEC2       24 GROUP        1 X    SEC  0     **** SEC X 2
     3 GLC5        1 GROUP        1 X    GLC  0     **** GLC X 6
     4 ALP1       29 GROUP        1 Y    ALP  0     ROOT ALP Y 8
     5 SEP2       26 GROUP        1 Y    SEP  0     **** SEP Y 9
     6 GLP5        3 GROUP        1 Y    GLP  0     **** GLP Y 13
     7 ALL1       28 GROUP        1 Z    ALL  0     ROOT ALL Z 15
     8 SEL2       25 GROUP        1 Z    SEL  0     **** SEL Z 16
     9 GLL5        2 GROUP        1 Z    GLL  0     **** GLL Z 20
@<TRIPOS>SET

