#    Name: 1pr6_XYA_1_ligand
#    Modification time : Mon Mar 24 22:10:14 2014

@<TRIPOS>MOLECULE
1pr6_XYA_1_ligand
   32    34     1     0     0
SMALL
NO_CHARGES


@<TRIPOS>ATOM
      1 O5'        94.3570   65.8800   17.5860 O.3       1 XYA1245     0.0000 
      2 C5'        94.0190   65.0450   18.6880 C.3       1 XYA1245     0.0000 
      3 C4'        94.4310   65.7050   20.0140 C.3       1 XYA1245     0.0000 
      4 O4'        93.7190   66.9250   20.2390 O.3       1 XYA1245     0.0000 
      5 C1'        92.5510   66.6860   21.0790 C.3       1 XYA1245     0.0000 
      6 N9         91.4380   67.2180   20.2220 N.pl3     1 XYA1245     0.0000 
      7 C8         91.2990   68.5350   19.9040 C.2       1 XYA1245     0.0000 
      8 N7         90.3610   68.8410   19.0700 N.2       1 XYA1245     0.0000 
      9 C5         89.7900   67.6020   18.7860 C.ar      1 XYA1245     0.0000 
     10 C6         88.7240   67.2210   17.9440 C.ar      1 XYA1245     0.0000 
     11 N1         88.3770   65.8980   17.8660 N.ar      1 XYA1245     0.0000 
     12 C2         89.0580   65.0000   18.5890 C.ar      1 XYA1245     0.0000 
     13 N3         90.0970   65.2490   19.4250 N.ar      1 XYA1245     0.0000 
     14 C4         90.4230   66.5850   19.4830 C.ar      1 XYA1245     0.0000 
     15 N6         88.0610   68.1210   17.2320 N.pl3     1 XYA1245     0.0000 
     16 C2'        92.6170   65.1750   21.4050 C.3       1 XYA1245     0.0000 
     17 O2'        92.2500   64.8900   22.7470 O.3       1 XYA1245     0.0000 
     18 C3'        94.1000   64.8990   21.2310 C.3       1 XYA1245     0.0000 
     19 O3'        94.4630   63.5570   21.0550 O.3       1 XYA1245     0.0000 
     20 H          94.5253   64.0704   18.6354 H         1 XYA1245     0.0000 
     21 H          92.9380   64.8511   18.7401 H         1 XYA1245     0.0000 
     22 H          95.4911   65.8956   20.0080 H         1 XYA1245     0.0000 
     23 H          92.6578   67.2583   21.9661 H         1 XYA1245     0.0000 
     24 H          91.9305   69.2297   20.3278 H         1 XYA1245     0.0000 
     25 H          88.7506   63.9584   18.5014 H         1 XYA1245     0.0000 
     26 H          88.3709   69.0676   17.3209 H         1 XYA1245     0.0000 
     27 H          87.3109   67.7720   16.6703 H         1 XYA1245     0.0000 
     28 H          92.0911   64.6509   20.6718 H         1 XYA1245     0.0000 
     29 H          94.6117   65.3780   22.0636 H         1 XYA1245     0.0000 
     30 H          95.3226   66.1042   17.7179 H         1 XYA1245     0.0000 
     31 H          92.7100   64.0290   22.9637 H         1 XYA1245     0.0000 
     32 H          94.3828   63.1461   21.9631 H         1 XYA1245     0.0000 
@<TRIPOS>BOND
     1    2    1 1    
     2   30    1 1    
     3    3    2 1    
     4   20    2 1    
     5   21    2 1    
     6    4    3 1    
     7   18    3 1    
     8   22    3 1    
     9    5    4 1    
    10    6    5 1    
    11   16    5 1    
    12   23    5 1    
    13    7    6 1    
    14   14    6 1    
    15    8    7 2    
    16   24    7 1    
    17    9    8 1    
    18   10    9 ar   
    19   14    9 ar   
    20   11   10 ar   
    21   15   10 1    
    22   12   11 ar   
    23   13   12 ar   
    24   25   12 1    
    25   14   13 ar   
    26   26   15 1    
    27   27   15 1    
    28   17   16 1    
    29   18   16 1    
    30   28   16 1    
    31   31   17 1    
    32   19   18 1    
    33   29   18 1    
    34   32   19 1    
@<TRIPOS>SUBSTRUCTURE
     1 XYA1245     1 GROUP   
@<TRIPOS>SET

