#    Name: 1wbw_LI4_1_INTS_M
#    Modification time : Tue Mar 25 08:54:13 2014

@<TRIPOS>MOLECULE
1wbw_LI4_1_INTS_M
   66     0     9     0     0
SMALL
NO_CHARGES


@<TRIPOS>ATOM
      1 CA         21.3065   32.5790   28.9635 C.3       3 GLC5        0.0000 
      2 CA         22.5070   32.7670   30.8230 C.3       9 GLL5        0.0000 
      3 CA         20.1060   32.3910   27.1040 C.3       6 GLP5        0.0000 
      4 CA         19.3290   34.8020   32.6985 C.3       3 GLC5        0.0000 
      5 CA         21.3980   34.5600   31.9810 C.3       9 GLL5        0.0000 
      6 CA         17.2600   35.0440   33.4160 C.3       6 GLP5        0.0000 
      7 CA         21.4010   36.7205   31.6520 C.3       3 GLC5        0.0000 
      8 CA         21.4040   38.8810   31.3230 C.3       6 GLP5        0.0000 
      9 CA         22.8090   35.1885   32.8900 C.3       3 GLC5        0.0000 
     10 CA         24.2200   35.8170   33.7990 C.3       6 GLP5        0.0000 
     11 CA         23.6805   35.4430   32.1705 C.3       3 GLC5        0.0000 
     12 CA         23.1410   35.0690   30.5420 C.3       9 GLL5        0.0000 
     13 O          20.1215   36.2670   33.0120 O.2       1 ALC1        0.0000 
     14 O          20.4400   34.9940   32.8810 O.2       7 ALL1        0.0000 
     15 O          19.8030   37.5400   33.1430 O.2       4 ALP1        0.0000 
     16 CA         18.9230   32.4270   29.0085 C.3       3 GLC5        0.0000 
     17 CA         17.7400   32.4630   30.9130 C.3       9 GLL5        0.0000 
     18 CA         14.0335   30.5185   33.4495 C.3       3 GLC5        0.0000 
     19 CA         15.3390   31.5100   32.0470 C.3       9 GLL5        0.0000 
     20 CA         12.7280   29.5270   34.8520 C.3       6 GLP5        0.0000 
     21 CA         16.1335   33.8395   28.5995 C.3       3 GLC5        0.0000 
     22 CA         16.5610   33.0590   30.6550 C.3       9 GLL5        0.0000 
     23 CA         15.7060   34.6200   26.5440 C.3       6 GLP5        0.0000 
     24 CA         18.7880   28.2605   35.2575 C.3       3 GLC5        0.0000 
     25 CA         17.7840   29.1280   33.4630 C.3       9 GLL5        0.0000 
     26 CA         19.7920   27.3930   37.0520 C.3       6 GLP5        0.0000 
     27 CA         14.6510   29.6300   34.0270 C.3       3 GLC5        0.0000 
     28 CA         16.5740   29.7330   33.2020 C.3       9 GLL5        0.0000 
     29 N          22.6325   36.5260   31.9615 N.am      2 SEC2        0.0000 
     30 N          22.2070   35.4430   31.4040 N.am      8 SEL2        0.0000 
     31 N          23.0580   37.6090   32.5190 N.am      5 SEP2        0.0000 
     32 CA         21.3190   29.8085   30.4445 C.3       3 GLC5        0.0000 
     33 CA         20.2950   31.2140   31.4840 C.3       9 GLL5        0.0000 
     34 CA         22.3430   28.4030   29.4050 C.3       6 GLP5        0.0000 
     35 CA         20.0455   30.5745   29.4110 C.3       3 GLC5        0.0000 
     36 CA         19.7960   29.9350   27.3380 C.3       6 GLP5        0.0000 
     37 CA         23.3055   34.0653   28.3735 C.3       3 GLC5        0.0000 
     38 CA         23.3150   33.7280   30.2180 C.3       9 GLL5        0.0000 
     39 CA         23.3830   33.7320   26.3670 C.3       6 GLP5        0.0000 
     40 CA         22.9305   36.0962   29.5440 C.3       3 GLC5        0.0000 
     41 CA         22.6330   37.7940   28.7080 C.3       6 GLP5        0.0000 
     42 CA         20.4672   34.6445   30.4977 C.3       3 GLC5        0.0000 
     43 CA         21.5170   33.1940   31.7160 C.3       9 GLL5        0.0000 
     44 CA         19.4770   35.4120   29.1470 C.3       6 GLP5        0.0000 
     45 CA         23.6520   32.9409   32.2751 C.3       3 GLC5        0.0000 
     46 CA         25.0900   32.6610   33.4320 C.3       6 GLP5        0.0000 
     47 CA         21.2628   33.4845   33.9472 C.3       3 GLC5        0.0000 
     48 CA         21.0680   33.0920   36.0460 C.3       6 GLP5        0.0000 
     49 CA         21.2515   34.7851   29.8391 C.3       3 GLC5        0.0000 
     50 CA         18.3137   34.0865   29.9655 C.3       3 GLC5        0.0000 
     51 CA         17.5075   33.4720   32.3770 C.3       3 GLC5        0.0000 
     52 CA         16.1810   31.7223   34.0787 C.3       3 GLC5        0.0000 
     53 CA         16.5410   30.8490   32.3440 C.3       9 GLL5        0.0000 
     54 CA         16.4220   32.2650   35.9620 C.3       6 GLP5        0.0000 
     55 CA         16.6000   33.1118   32.8057 C.3       3 GLC5        0.0000 
     56 CA         13.6672   31.6593   31.0175 C.3       3 GLC5        0.0000 
     57 CA         15.3860   32.5830   31.2150 C.3       9 GLL5        0.0000 
     58 CA         11.9720   31.2720   30.4040 C.3       6 GLP5        0.0000 
     59 CA         14.5612   34.2685   30.5025 C.3       3 GLC5        0.0000 
     60 CA         13.1490   35.7160   30.0700 C.3       6 GLP5        0.0000 
     61 CA         16.6167   33.9325   32.1755 C.3       3 GLC5        0.0000 
     62 CA         16.5139   28.6337   31.6075 C.3       3 GLC5        0.0000 
     63 CA         15.8570   27.5580   30.0970 C.3       6 GLP5        0.0000 
     64 CA         16.8005   30.8478   34.6472 C.3       3 GLC5        0.0000 
     65 CA         16.0426   31.1420   29.6659 C.3       3 GLC5        0.0000 
     66 CA         15.8250   30.0210   28.0180 C.3       6 GLP5        0.0000 
@<TRIPOS>BOND
@<TRIPOS>SUBSTRUCTURE
     1 ALC1       13 GROUP        1 X    ALC  0     ROOT ALC X 1
     2 SEC2       29 GROUP        1 X    SEC  0     **** SEC X 2
     3 GLC5        1 GROUP        1 X    GLC  0     **** GLC X 6
     4 ALP1       15 GROUP        1 Y    ALP  0     ROOT ALP Y 8
     5 SEP2       31 GROUP        1 Y    SEP  0     **** SEP Y 9
     6 GLP5        3 GROUP        1 Y    GLP  0     **** GLP Y 13
     7 ALL1       14 GROUP        1 Z    ALL  0     ROOT ALL Z 15
     8 SEL2       30 GROUP        1 Z    SEL  0     **** SEL Z 16
     9 GLL5        2 GROUP        1 Z    GLL  0     **** GLL Z 20
@<TRIPOS>SET

