#    Name: 1wbw_LI4_1_ligand
#    Modification time : Tue Mar 25 08:54:13 2014

@<TRIPOS>MOLECULE
1wbw_LI4_1_ligand
   33    35     1     0     0
SMALL
NO_CHARGES


@<TRIPOS>ATOM
      1 C1         23.3150   33.7280   30.2180 C.ar      1 LI41355     0.0000 
      2 C2         22.5070   32.7670   30.8230 C.ar      1 LI41355     0.0000 
      3 C3         21.5170   33.1940   31.7160 C.ar      1 LI41355     0.0000 
      4 C4         21.3980   34.5600   31.9810 C.ar      1 LI41355     0.0000 
      5 C6         23.1410   35.0690   30.5420 C.ar      1 LI41355     0.0000 
      6 O10        20.6890   32.3100   32.3530 O.3       1 LI41355     0.0000 
      7 N12        20.4400   34.9940   32.8810 N.pl3     1 LI41355     0.0000 
      8 C13        17.7400   32.4630   30.9130 C.ar      1 LI41355     0.0000 
      9 C15        17.7700   31.3370   31.7630 C.ar      1 LI41355     0.0000 
     10 C16        16.5410   30.8490   32.3440 C.ar      1 LI41355     0.0000 
     11 C17        15.3390   31.5100   32.0470 C.ar      1 LI41355     0.0000 
     12 C18        15.3860   32.5830   31.2150 C.ar      1 LI41355     0.0000 
     13 C19        16.5610   33.0590   30.6550 C.ar      1 LI41355     0.0000 
     14 C23        18.9960   30.6800   32.0600 C.ar      1 LI41355     0.0000 
     15 C24        18.9830   29.5920   32.9000 C.ar      1 LI41355     0.0000 
     16 C25        17.7840   29.1280   33.4630 C.ar      1 LI41355     0.0000 
     17 C26        16.5740   29.7330   33.2020 C.ar      1 LI41355     0.0000 
     18 N3         22.2070   35.4430   31.4040 N.ar      1 LI41355     0.0000 
     19 C9         20.2950   31.2140   31.4840 C.3       1 LI41355     0.0000 
     20 H          24.0300   33.4476   29.5411 H         1 LI41355     0.0000 
     21 H          22.6312   31.7793   30.6226 H         1 LI41355     0.0000 
     22 H          23.7691   35.7679   30.0845 H         1 LI41355     0.0000 
     23 H          20.3829   35.9826   33.0202 H         1 LI41355     0.0000 
     24 H          19.8881   34.2813   33.3140 H         1 LI41355     0.0000 
     25 H          18.6226   32.8006   30.5110 H         1 LI41355     0.0000 
     26 H          14.4662   31.1780   32.4547 H         1 LI41355     0.0000 
     27 H          14.4884   33.0874   30.9761 H         1 LI41355     0.0000 
     28 H          16.5125   33.8906   30.0280 H         1 LI41355     0.0000 
     29 H          19.8645   29.0986   33.1287 H         1 LI41355     0.0000 
     30 H          17.8216   28.3009   34.0956 H         1 LI41355     0.0000 
     31 H          15.7080   29.3884   33.6170 H         1 LI41355     0.0000 
     32 H          21.0277   30.4238   31.4904 H         1 LI41355     0.0000 
     33 H          20.1137   31.5551   30.4780 H         1 LI41355     0.0000 
@<TRIPOS>BOND
     1    2    1 ar   
     2    5    1 ar   
     3   20    1 1    
     4    3    2 ar   
     5   21    2 1    
     6    4    3 ar   
     7    6    3 1    
     8    7    4 1    
     9   18    4 ar   
    10   18    5 ar   
    11   22    5 1    
    12   19    6 1    
    13   23    7 1    
    14   24    7 1    
    15    9    8 ar   
    16   13    8 ar   
    17   25    8 1    
    18   10    9 ar   
    19   14    9 ar   
    20   11   10 ar   
    21   17   10 ar   
    22   12   11 ar   
    23   26   11 1    
    24   13   12 ar   
    25   27   12 1    
    26   28   13 1    
    27   15   14 ar   
    28   19   14 1    
    29   16   15 ar   
    30   29   15 1    
    31   17   16 ar   
    32   30   16 1    
    33   31   17 1    
    34   32   19 1    
    35   33   19 1    
@<TRIPOS>SUBSTRUCTURE
     1 LI41355     1 GROUP   
@<TRIPOS>SET

