#    Name: 2i4d_QFI_1_INTS_M
#    Modification time : Tue Mar 25 17:24:32 2014

@<TRIPOS>MOLECULE
2i4d_QFI_1_INTS_M
   95     0     9     0     0
SMALL
NO_CHARGES


@<TRIPOS>ATOM
      1 N           9.6850   18.8350   21.4865 N.am      2 SEC2        0.0000 
      2 N          10.7650   18.5040   20.4450 N.am      8 SEL2        0.0000 
      3 N           8.6050   19.1660   22.5280 N.am      5 SEP2        0.0000 
      4 O          12.0465   22.7735   17.8480 O.2       1 ALC1        0.0000 
      5 O          13.5720   22.2150   17.8840 O.2       7 ALL1        0.0000 
      6 O          10.5210   23.3320   17.8120 O.2       4 ALP1        0.0000 
      7 CA         16.0410   27.1315   16.8620 C.3       3 GLC5        0.0000 
      8 CA         16.0080   25.0840   17.6070 C.3       9 GLL5        0.0000 
      9 CA         16.0740   29.1790   16.1170 C.3       6 GLP5        0.0000 
     10 CA         16.2760   21.9885   21.3405 C.3       3 GLC5        0.0000 
     11 CA         17.3970   23.0000   19.9170 C.3       9 GLL5        0.0000 
     12 CA         15.1550   20.9770   22.7640 C.3       6 GLP5        0.0000 
     13 CA         20.3580   22.4135   18.6605 C.3       3 GLC5        0.0000 
     14 CA         19.7320   23.7940   20.1280 C.3       9 GLL5        0.0000 
     15 CA         20.9840   21.0330   17.1930 C.3       6 GLP5        0.0000 
     16 CA         20.7205   22.4500   20.5755 C.3       3 GLC5        0.0000 
     17 CA         21.7090   21.1060   21.0230 C.3       6 GLP5        0.0000 
     18 CA         20.1355   23.9970   22.3260 C.3       3 GLC5        0.0000 
     19 CA         20.5390   24.2000   24.5240 C.3       6 GLP5        0.0000 
     20 CA         16.4380   26.0440   13.7535 C.3       3 GLC5        0.0000 
     21 CA         18.1530   26.6210   14.9190 C.3       9 GLL5        0.0000 
     22 CA         14.7230   25.4670   12.5880 C.3       6 GLP5        0.0000 
     23 CA         18.5555   28.6275   16.1440 C.3       3 GLC5        0.0000 
     24 CA         20.2390   27.8860   14.8860 C.3       9 GLL5        0.0000 
     25 CA         16.8720   29.3690   17.4020 C.3       6 GLP5        0.0000 
     26 N          20.1920   30.4675   14.7665 N.am      2 SEC2        0.0000 
     27 N          20.9390   29.0520   14.5460 N.am      8 SEL2        0.0000 
     28 N          19.4450   31.8830   14.9870 N.am      5 SEP2        0.0000 
     29 CA         21.7330   30.4505   16.2635 C.3       3 GLC5        0.0000 
     30 CA         22.3110   29.1180   14.9730 C.3       9 GLL5        0.0000 
     31 CA         21.1550   31.7830   17.5540 C.3       6 GLP5        0.0000 
     32 CA         21.4155   30.6125   13.8855 C.3       3 GLC5        0.0000 
     33 CA         20.5200   32.1070   12.7980 C.3       6 GLP5        0.0000 
     34 CA         23.1870   28.1715   13.5595 C.3       3 GLC5        0.0000 
     35 CA         24.0630   27.2250   12.1460 C.3       6 GLP5        0.0000 
     36 CA         22.2500   26.2950   13.9555 C.3       3 GLC5        0.0000 
     37 CA         20.8840   26.8120   15.5340 C.3       9 GLL5        0.0000 
     38 CA         23.6160   25.7780   12.3770 C.3       6 GLP5        0.0000 
     39 N          13.1890   26.3580   18.3955 N.am      2 SEC2        0.0000 
     40 N          13.6600   24.9760   18.2350 N.am      8 SEL2        0.0000 
     41 N          12.7180   27.7400   18.5560 N.am      5 SEP2        0.0000 
     42 O          13.2790   25.5270   19.4395 O.2       1 ALC1        0.0000 
     43 O          13.6600   24.9760   18.2350 O.2       7 ALL1        0.0000 
     44 O          12.8980   26.0780   20.6440 O.2       4 ALP1        0.0000 
     45 O          14.0175   24.7910   19.7755 O.2       1 ALC1        0.0000 
     46 O          14.3750   24.6060   21.3160 O.2       4 ALP1        0.0000 
     47 CA         13.1245   18.7240   11.7515 C.3       3 GLC5        0.0000 
     48 CA         11.9150   18.0090   13.2920 C.3       9 GLL5        0.0000 
     49 CA         14.3340   19.4390   10.2110 C.3       6 GLP5        0.0000 
     50 CA         12.8550   16.3190   14.2045 C.3       3 GLC5        0.0000 
     51 CA         13.7950   14.6290   15.1170 C.3       6 GLP5        0.0000 
     52 CA         13.9245   17.8730   14.2595 C.3       3 GLC5        0.0000 
     53 CA         15.9340   17.7370   15.2270 C.3       6 GLP5        0.0000 
     54 CA         10.6500   23.7135   14.9085 C.3       3 GLC5        0.0000 
     55 CA         11.9370   22.2400   15.0050 C.3       9 GLL5        0.0000 
     56 CA          9.3630   25.1870   14.8120 C.3       6 GLP5        0.0000 
     57 CA         13.0595   18.0670   22.2140 C.3       3 GLC5        0.0000 
     58 CA         12.1230   18.9920   20.6050 C.3       9 GLL5        0.0000 
     59 CA         13.9960   17.1420   23.8230 C.3       6 GLP5        0.0000 
     60 CA         13.6390   19.9845   21.6845 C.3       3 GLC5        0.0000 
     61 CA         10.4740   20.3480   19.7450 C.3       3 GLC5        0.0000 
     62 CA         10.5480   18.2190   19.0560 C.3       9 GLL5        0.0000 
     63 CA         10.4000   22.4770   20.4340 C.3       6 GLP5        0.0000 
     64 CA          8.6715   18.7025   19.5510 C.3       3 GLC5        0.0000 
     65 CA          6.7950   19.1860   20.0460 C.3       6 GLP5        0.0000 
     66 N           9.1430   20.0740   19.4390 N.am      2 SEC2        0.0000 
     67 N           9.7560   19.2330   18.4350 N.am      8 SEL2        0.0000 
     68 N           8.5300   20.9150   20.4430 N.am      5 SEP2        0.0000 
     69 CA          8.4325   19.2025   18.5430 C.3       3 GLC5        0.0000 
     70 CA         10.0700   19.2190   17.0400 C.3       9 GLL5        0.0000 
     71 CA         14.4190   18.5300   20.2978 C.3       3 GLC5        0.0000 
     72 CA         16.3820   18.0390   20.6880 C.3       6 GLP5        0.0000 
     73 CA         11.9610   20.6805   20.7168 C.3       3 GLC5        0.0000 
     74 CA         12.7890   19.0500   19.2100 C.3       9 GLL5        0.0000 
     75 CA         11.4660   22.3400   21.5260 C.3       6 GLP5        0.0000 
     76 CA         18.5990   24.8843   13.6135 C.3       3 GLC5        0.0000 
     77 CA         18.7970   25.5560   15.5710 C.3       9 GLL5        0.0000 
     78 CA         18.7230   23.6800   11.9820 C.3       6 GLP5        0.0000 
     79 CA         17.2940   28.1898   15.4330 C.3       3 GLC5        0.0000 
     80 CA         18.8518   27.8321   12.8337 C.3       3 GLC5        0.0000 
     81 CA         18.8750   27.7800   14.5790 C.3       9 GLL5        0.0000 
     82 CA         18.3270   28.1210   10.8500 C.3       6 GLP5        0.0000 
     83 CA         12.6940   22.4790   13.0015 C.3       3 GLC5        0.0000 
     84 CA         13.3360   22.4110   15.0340 C.3       9 GLL5        0.0000 
     85 CA         11.6340   22.9820   11.3340 C.3       6 GLP5        0.0000 
     86 CA         14.3141   23.8630   13.7315 C.3       3 GLC5        0.0000 
     87 CA         14.1720   21.5410   14.3040 C.3       9 GLL5        0.0000 
     88 CA         14.9115   19.3783   14.5755 C.3       3 GLC5        0.0000 
     89 CA         15.7870   20.5072   13.3340 C.3       3 GLC5        0.0000 
     90 CA         13.6060   20.4980   13.5440 C.3       9 GLL5        0.0000 
     91 CA         17.6850   19.9950   12.7440 C.3       6 GLP5        0.0000 
     92 CA         13.6190   19.9258   11.8697 C.3       3 GLC5        0.0000 
     93 CA         12.2690   21.6973   12.4313 C.3       3 GLC5        0.0000 
     94 CA         11.6437   22.3507   12.9800 C.3       3 GLC5        0.0000 
     95 CA         11.3700   21.1990   14.2470 C.3       9 GLL5        0.0000 
@<TRIPOS>BOND
@<TRIPOS>SUBSTRUCTURE
     1 ALC1        4 GROUP        1 X    ALC  0     ROOT ALC X 1
     2 SEC2        1 GROUP        1 X    SEC  0     **** SEC X 2
     3 GLC5        7 GROUP        1 X    GLC  0     **** GLC X 6
     4 ALP1        6 GROUP        1 Y    ALP  0     ROOT ALP Y 8
     5 SEP2        3 GROUP        1 Y    SEP  0     **** SEP Y 9
     6 GLP5        9 GROUP        1 Y    GLP  0     **** GLP Y 13
     7 ALL1        5 GROUP        1 Z    ALL  0     ROOT ALL Z 15
     8 SEL2        2 GROUP        1 Z    SEL  0     **** SEL Z 16
     9 GLL5        8 GROUP        1 Z    GLL  0     **** GLL Z 20
@<TRIPOS>SET

