#    Name: 2i4d_QFI_1_ligand
#    Modification time : Tue Mar 25 17:24:32 2014

@<TRIPOS>MOLECULE
2i4d_QFI_1_ligand
   84    87     1     0     0
SMALL
NO_CHARGES


@<TRIPOS>ATOM
      1 C          11.8880   18.1870   18.3200 C.3       1 QFI300      0.0000 
      2 O          10.7650   18.5040   20.4450 O.3       1 QFI300      0.0000 
      3 C5         12.7890   19.0500   19.2100 C.3       1 QFI300      0.0000 
      4 O4         12.7450   20.4310   18.8200 O.3       1 QFI300      0.0000 
      5 C4         13.8170   20.9230   18.1820 C.2       1 QFI300      0.0000 
      6 N1         13.5720   22.2150   17.8840 N.am      1 QFI300      0.0000 
      7 C6         14.5400   23.0230   17.1870 C.3       1 QFI300      0.0000 
      8 C7         14.8430   24.2050   18.1340 C.3       1 QFI300      0.0000 
      9 C15        16.0080   25.0840   17.6070 C.3       1 QFI300      0.0000 
     10 N2         17.2520   24.2810   17.5830 N.pl3     1 QFI300      0.0000 
     11 C16        18.2170   24.9380   18.4890 C.3       1 QFI300      0.0000 
     12 C17        18.2920   24.2540   19.8790 C.3       1 QFI300      0.0000 
     13 C24        17.3970   23.0000   19.9170 C.3       1 QFI300      0.0000 
     14 C25        19.7320   23.7940   20.1280 C.3       1 QFI300      0.0000 
     15 S          17.8980   24.1240   16.0130 S.o2      1 QFI300      0.0000 
     16 C18        18.7970   25.5560   15.5710 C.ar      1 QFI300      0.0000 
     17 C19        18.1530   26.6210   14.9190 C.ar      1 QFI300      0.0000 
     18 C20        18.8750   27.7800   14.5790 C.ar      1 QFI300      0.0000 
     19 C21        20.2390   27.8860   14.8860 C.ar      1 QFI300      0.0000 
     20 O1         20.9390   29.0520   14.5460 O.3       1 QFI300      0.0000 
     21 C26        22.3110   29.1180   14.9730 C.3       1 QFI300      0.0000 
     22 C22        20.8840   26.8120   15.5340 C.ar      1 QFI300      0.0000 
     23 C23        20.1640   25.6510   15.8760 C.ar      1 QFI300      0.0000 
     24 O7         16.7850   23.9020   15.0420 O.2       1 QFI300      0.0000 
     25 O8         18.8160   22.9420   15.9990 O.2       1 QFI300      0.0000 
     26 O6         13.6600   24.9760   18.2350 O.3       1 QFI300      0.0000 
     27 C8         13.9410   23.5430   15.8580 C.3       1 QFI300      0.0000 
     28 C9         13.3360   22.4110   15.0340 C.ar      1 QFI300      0.0000 
     29 C10        14.1720   21.5410   14.3040 C.ar      1 QFI300      0.0000 
     30 C12        13.6060   20.4980   13.5440 C.ar      1 QFI300      0.0000 
     31 C14        12.2020   20.3270   13.5130 C.ar      1 QFI300      0.0000 
     32 O40        11.6400   19.2980   12.7640 O.3       1 QFI300      0.0000 
     33 C41        11.9150   18.0090   13.2920 C.3       1 QFI300      0.0000 
     34 P42        11.0470   16.7420   12.3170 P.3       1 QFI300      0.0000 
     35 O45         9.4740   17.0070   12.3670 O.co2     1 QFI300      0.0000 
     36 O44        11.3580   15.4140   12.8920 O.co2     1 QFI300      0.0000 
     37 O43        11.5320   16.8010   10.7980 O.co2     1 QFI300      0.0000 
     38 C13        11.3700   21.1990   14.2470 C.ar      1 QFI300      0.0000 
     39 C11        11.9370   22.2400   15.0050 C.ar      1 QFI300      0.0000 
     40 O5         14.8380   20.3070   17.9020 O.2       1 QFI300      0.0000 
     41 C3         12.1230   18.9920   20.6050 C.3       1 QFI300      0.0000 
     42 C27        10.5480   18.2190   19.0560 C.3       1 QFI300      0.0000 
     43 O9          9.7560   19.2330   18.4350 O.3       1 QFI300      0.0000 
     44 C2         10.0700   19.2190   17.0400 C.3       1 QFI300      0.0000 
     45 C1         11.5620   18.8440   16.9610 C.3       1 QFI300      0.0000 
     46 H          12.2141   17.2337   18.2278 H         1 QFI300      0.0000 
     47 H          13.7365   18.6477   19.2762 H         1 QFI300      0.0000 
     48 H          12.6784   22.6743   18.1454 H         1 QFI300      0.0000 
     49 H          15.4342   22.5004   16.9994 H         1 QFI300      0.0000 
     50 H          15.1301   23.7980   19.0879 H         1 QFI300      0.0000 
     51 H          16.1108   25.9384   18.2677 H         1 QFI300      0.0000 
     52 H          15.7480   25.4258   16.6107 H         1 QFI300      0.0000 
     53 H          17.9432   25.9913   18.6487 H         1 QFI300      0.0000 
     54 H          19.2274   24.9245   18.0545 H         1 QFI300      0.0000 
     55 H          17.9988   24.9282   20.6306 H         1 QFI300      0.0000 
     56 H          17.1573   26.5547   14.6906 H         1 QFI300      0.0000 
     57 H          18.3965   28.5540   14.1017 H         1 QFI300      0.0000 
     58 H          21.8819   26.8778   15.7567 H         1 QFI300      0.0000 
     59 H          20.6396   24.8769   16.3473 H         1 QFI300      0.0000 
     60 H          14.7313   24.0291   15.2856 H         1 QFI300      0.0000 
     61 H          13.1708   24.2798   16.0870 H         1 QFI300      0.0000 
     62 H          15.1848   21.6669   14.3263 H         1 QFI300      0.0000 
     63 H          14.2071   19.8644   13.0149 H         1 QFI300      0.0000 
     64 H          11.5271   17.8024   14.2761 H         1 QFI300      0.0000 
     65 H          12.9323   17.6636   13.2055 H         1 QFI300      0.0000 
     66 H          10.3560   21.0729   14.2268 H         1 QFI300      0.0000 
     67 H          11.3348   22.8737   15.5357 H         1 QFI300      0.0000 
     68 H          12.7158   18.3296   21.2285 H         1 QFI300      0.0000 
     69 H          12.1419   19.9936   21.0238 H         1 QFI300      0.0000 
     70 H          10.0932   17.2493   18.9239 H         1 QFI300      0.0000 
     71 H           9.9480   20.1866   16.5826 H         1 QFI300      0.0000 
     72 H           9.5125   18.4708   16.5018 H         1 QFI300      0.0000 
     73 H          11.7125   18.1386   16.1807 H         1 QFI300      0.0000 
     74 H          12.1460   19.7239   16.8431 H         1 QFI300      0.0000 
     75 H          17.6740   22.3252   19.2330 H         1 QFI300      0.0000 
     76 H          17.4314   22.5460   20.8073 H         1 QFI300      0.0000 
     77 H          16.4386   23.2222   19.7381 H         1 QFI300      0.0000 
     78 H          20.3744   24.5603   20.1138 H         1 QFI300      0.0000 
     79 H          19.8303   23.3455   21.0164 H         1 QFI300      0.0000 
     80 H          20.0386   23.1417   19.4349 H         1 QFI300      0.0000 
     81 H          22.8574   28.3767   14.5831 H         1 QFI300      0.0000 
     82 H          22.7442   29.9767   14.6993 H         1 QFI300      0.0000 
     83 H          22.3941   29.0517   15.9673 H         1 QFI300      0.0000 
     84 H          13.3814   24.8980   19.1922 H         1 QFI300      0.0000 
@<TRIPOS>BOND
     1    3    1 1    
     2   42    1 1    
     3   45    1 1    
     4   46    1 1    
     5   41    2 1    
     6   42    2 1    
     7    4    3 1    
     8   41    3 1    
     9   47    3 1    
    10    5    4 1    
    11    6    5 am   
    12   40    5 2    
    13    7    6 1    
    14   48    6 1    
    15    8    7 1    
    16   27    7 1    
    17   49    7 1    
    18    9    8 1    
    19   26    8 1    
    20   50    8 1    
    21   10    9 1    
    22   51    9 1    
    23   52    9 1    
    24   11   10 1    
    25   15   10 1    
    26   12   11 1    
    27   53   11 1    
    28   54   11 1    
    29   13   12 1    
    30   14   12 1    
    31   55   12 1    
    32   75   13 1    
    33   76   13 1    
    34   77   13 1    
    35   78   14 1    
    36   79   14 1    
    37   80   14 1    
    38   16   15 1    
    39   24   15 2    
    40   25   15 2    
    41   17   16 ar   
    42   23   16 ar   
    43   18   17 ar   
    44   56   17 1    
    45   19   18 ar   
    46   57   18 1    
    47   20   19 1    
    48   22   19 ar   
    49   21   20 1    
    50   81   21 1    
    51   82   21 1    
    52   83   21 1    
    53   23   22 ar   
    54   58   22 1    
    55   59   23 1    
    56   84   26 1    
    57   28   27 1    
    58   60   27 1    
    59   61   27 1    
    60   29   28 ar   
    61   39   28 ar   
    62   30   29 ar   
    63   62   29 1    
    64   31   30 ar   
    65   63   30 1    
    66   32   31 1    
    67   38   31 ar   
    68   33   32 1    
    69   34   33 1    
    70   64   33 1    
    71   65   33 1    
    72   35   34 ar   
    73   36   34 ar   
    74   37   34 ar   
    75   39   38 ar   
    76   66   38 1    
    77   67   39 1    
    78   68   41 1    
    79   69   41 1    
    80   43   42 1    
    81   70   42 1    
    82   44   43 1    
    83   45   44 1    
    84   71   44 1    
    85   72   44 1    
    86   73   45 1    
    87   74   45 1    
@<TRIPOS>SUBSTRUCTURE
     1 QFI300      1 GROUP   
@<TRIPOS>SET

