#    Name: 2ghl_LIB_1_INTS_M
#    Modification time : Tue Mar 25 14:27:54 2014

@<TRIPOS>MOLECULE
2ghl_LIB_1_INTS_M
   77     0     9     0     0
SMALL
NO_CHARGES


@<TRIPOS>ATOM
      1 CA         -7.0965    0.6345   15.2050 C.3       3 GLC5        0.0000 
      2 CA         -5.5790   -0.1830   16.5440 C.3       9 GLL5        0.0000 
      3 CA         -8.6140    1.4520   13.8660 C.3       6 GLP5        0.0000 
      4 CA         -6.3290    0.1065   20.7810 C.3       3 GLC5        0.0000 
      5 CA         -5.5530   -0.3020   18.9490 C.3       9 GLL5        0.0000 
      6 CA         -7.1050    0.5150   22.6130 C.3       6 GLP5        0.0000 
      7 CA         -2.8655   -0.9210   15.5455 C.3       3 GLC5        0.0000 
      8 CA         -4.2290    0.2070   16.5680 C.3       9 GLL5        0.0000 
      9 CA         -1.5020   -2.0490   14.5230 C.3       6 GLP5        0.0000 
     10 CA         -4.8110    0.4920   25.6325 C.3       3 GLC5        0.0000 
     11 CA         -3.9680    1.6500   24.7630 C.3       9 GLL5        0.0000 
     12 CA         -5.6540   -0.6660   26.5020 C.3       6 GLP5        0.0000 
     13 CA         -4.7405    2.8440   26.0095 C.3       3 GLC5        0.0000 
     14 CA         -5.5130    4.0380   27.2560 C.3       6 GLP5        0.0000 
     15 CA         -5.5890    1.8270   23.8565 C.3       3 GLC5        0.0000 
     16 CA         -7.2100    2.0040   22.9500 C.3       6 GLP5        0.0000 
     17 CA         -3.8655    3.8820   25.9570 C.3       3 GLC5        0.0000 
     18 CA         -2.2180    3.7260   24.6580 C.3       9 GLL5        0.0000 
     19 CA         -5.0195    0.4295   12.8805 C.3       3 GLC5        0.0000 
     20 CA         -5.6040   -0.7890   14.1610 C.3       9 GLL5        0.0000 
     21 CA         -4.4350    1.6480   11.6000 C.3       6 GLP5        0.0000 
     22 CA         -3.5530   -1.4190   14.3420 C.3       3 GLC5        0.0000 
     23 CA         -6.7910   -1.1975   12.4395 C.3       3 GLC5        0.0000 
     24 CA         -7.9780   -1.6060   10.7180 C.3       6 GLP5        0.0000 
     25 CA         -7.1090    0.3315   14.0135 C.3       3 GLC5        0.0000 
     26 CA         -5.3790   -2.5075   14.7935 C.3       3 GLC5        0.0000 
     27 CA         -5.1540   -4.2260   15.4260 C.3       6 GLP5        0.0000 
     28 CA         -3.9675   -5.2940   21.0025 C.3       3 GLC5        0.0000 
     29 CA         -3.0490   -3.5430   20.5150 C.3       9 GLL5        0.0000 
     30 CA         -4.8860   -7.0450   21.4900 C.3       6 GLP5        0.0000 
     31 CA         -1.7295   -4.9815   20.5200 C.3       3 GLC5        0.0000 
     32 CA         -0.4100   -6.4200   20.5250 C.3       6 GLP5        0.0000 
     33 N          -2.7650   -5.1880   22.1455 N.am      2 SEC2        0.0000 
     34 N          -2.8140   -3.6420   21.8220 N.am      8 SEL2        0.0000 
     35 N          -2.7160   -6.7340   22.4690 N.am      5 SEP2        0.0000 
     36 CA         -4.7695   -2.8830   21.6755 C.3       3 GLC5        0.0000 
     37 CA         -2.7740   -2.5620   22.5730 C.3       9 GLL5        0.0000 
     38 CA         -6.7650   -3.2040   20.7780 C.3       6 GLP5        0.0000 
     39 CA         -4.3095   -3.8505   23.2720 C.3       3 GLC5        0.0000 
     40 CA         -5.8450   -5.1390   23.9710 C.3       6 GLP5        0.0000 
     41 CA         -1.5805   -4.3710   22.3020 C.3       3 GLC5        0.0000 
     42 CA         -0.3870   -6.1800   22.0310 C.3       6 GLP5        0.0000 
     43 O          -2.1430   -4.1320   24.2815 O.2       1 ALC1        0.0000 
     44 O          -2.5090   -2.7440   23.8620 O.2       7 ALL1        0.0000 
     45 O          -1.7770   -5.5200   24.7010 O.2       4 ALP1        0.0000 
     46 CA          0.9415   -3.5560   26.3230 C.3       3 GLC5        0.0000 
     47 CA          0.0100   -2.4340   25.4400 C.3       9 GLL5        0.0000 
     48 CA          1.8730   -4.6780   27.2060 C.3       6 GLP5        0.0000 
     49 CA          2.1005   -1.6755   25.4060 C.3       3 GLC5        0.0000 
     50 CA          4.1910   -0.9170   25.3720 C.3       6 GLP5        0.0000 
     51 CA          0.9325   -0.4840   21.9715 C.3       3 GLC5        0.0000 
     52 CA         -0.2050   -0.7260   23.6110 C.3       9 GLL5        0.0000 
     53 CA          2.0700   -0.2420   20.3320 C.3       6 GLP5        0.0000 
     54 O           0.5775    0.5560   25.4770 O.2       1 ALC1        0.0000 
     55 O          -0.6300   -0.2350   25.9690 O.2       7 ALL1        0.0000 
     56 O           1.7850    1.3470   24.9850 O.2       4 ALP1        0.0000 
     57 CA         -4.8265   -1.8145   16.6350 C.3       3 GLC5        0.0000 
     58 CA         -4.7490   -3.6410   16.7140 C.3       6 GLP5        0.0000 
     59 CA         -6.3323   -1.7903   19.5640 C.3       3 GLC5        0.0000 
     60 CA         -6.2460   -0.4510   17.7510 C.3       9 GLL5        0.0000 
     61 CA         -6.8059    1.2508   18.1576 C.3       3 GLC5        0.0000 
     62 CA         -7.8790    2.8110   18.2670 C.3       6 GLP5        0.0000 
     63 CA         -5.3243   -2.0088   17.5320 C.3       3 GLC5        0.0000 
     64 CA         -4.3125   -1.7252   17.5392 C.3       3 GLC5        0.0000 
     65 CA         -4.2200    0.0560   18.9600 C.3       9 GLL5        0.0000 
     66 CA         -1.8535   -0.3708   18.6472 C.3       3 GLC5        0.0000 
     67 CA         -3.5320    0.3250   17.7690 C.3       9 GLL5        0.0000 
     68 CA          0.1690   -0.9320   18.9300 C.3       6 GLP5        0.0000 
     69 CA         -4.5450    2.6720   22.5935 C.3       3 GLC5        0.0000 
     70 CA         -2.3620    2.3560   22.6660 C.3       9 GLL5        0.0000 
     71 CA         -6.5300    2.8370   21.8720 C.3       6 GLP5        0.0000 
     72 CA         -3.9522   -3.2830   18.4725 C.3       3 GLC5        0.0000 
     73 CA         -3.2620   -2.3070   19.9470 C.3       9 GLL5        0.0000 
     74 CA         -4.9599   -2.9228   20.6032 C.3       3 GLC5        0.0000 
     75 CA         -1.4929   -1.7868   19.6792 C.3       3 GLC5        0.0000 
     76 CA         -4.0927   -1.2853   25.9955 C.3       3 GLC5        0.0000 
     77 CA         -2.2610   -1.6550   24.8180 C.3       9 GLL5        0.0000 
@<TRIPOS>BOND
@<TRIPOS>SUBSTRUCTURE
     1 ALC1       43 GROUP        1 X    ALC  0     ROOT ALC X 1
     2 SEC2       33 GROUP        1 X    SEC  0     **** SEC X 2
     3 GLC5        1 GROUP        1 X    GLC  0     **** GLC X 6
     4 ALP1       45 GROUP        1 Y    ALP  0     ROOT ALP Y 8
     5 SEP2       35 GROUP        1 Y    SEP  0     **** SEP Y 9
     6 GLP5        3 GROUP        1 Y    GLP  0     **** GLP Y 13
     7 ALL1       44 GROUP        1 Z    ALL  0     ROOT ALL Z 15
     8 SEL2       34 GROUP        1 Z    SEL  0     **** SEL Z 16
     9 GLL5        2 GROUP        1 Z    GLL  0     **** GLL Z 20
@<TRIPOS>SET

