#    Name: 2ghl_LIB_1_ligand
#    Modification time : Tue Mar 25 14:27:54 2014

@<TRIPOS>MOLECULE
2ghl_LIB_1_ligand
   58    60     1     0     0
SMALL
NO_CHARGES


@<TRIPOS>ATOM
      1 N1         -3.5670    0.1040   20.1890 N.am      1 LIB401      0.0000 
      2 C4         -5.5790   -0.1830   16.5440 C.ar      1 LIB401      0.0000 
      3 C5         -5.5530   -0.3020   18.9490 C.ar      1 LIB401      0.0000 
      4 C6         -3.5320    0.3250   17.7690 C.ar      1 LIB401      0.0000 
      5 C7         -4.2290    0.2070   16.5680 C.ar      1 LIB401      0.0000 
      6 C8         -6.2460   -0.4510   17.7510 C.ar      1 LIB401      0.0000 
      7 C20        -2.3620    2.3560   22.6660 C.ar      1 LIB401      0.0000 
      8 C22        -1.2790    4.5320   24.0170 C.ar      1 LIB401      0.0000 
      9 C24        -2.7580    2.6580   23.9640 C.ar      1 LIB401      0.0000 
     10 C26        -0.8840    4.2490   22.7080 C.ar      1 LIB401      0.0000 
     11 CL28       -3.9680    1.6500   24.7630 Cl        1 LIB401      0.0000 
     12 C25        -2.2180    3.7260   24.6580 C.ar      1 LIB401      0.0000 
     13 C23        -1.4210    3.1570   22.0230 C.ar      1 LIB401      0.0000 
     14 N19        -2.9570    1.2510   22.0500 N.am      1 LIB401      0.0000 
     15 C1         -3.2750    1.2490   20.7700 C.2       1 LIB401      0.0000 
     16 O18        -3.3030    2.2710   20.1190 O.2       1 LIB401      0.0000 
     17 C2         -4.2200    0.0560   18.9600 C.ar      1 LIB401      0.0000 
     18 O13        -6.2750   -0.3600   15.3540 O.3       1 LIB401      0.0000 
     19 C14        -5.6040   -0.7890   14.1610 C.3       1 LIB401      0.0000 
     20 C3         -3.2590   -1.1730   20.7370 C.ar      1 LIB401      0.0000 
     21 C32        -3.2620   -2.3070   19.9470 C.ar      1 LIB401      0.0000 
     22 C37        -3.0490   -3.5430   20.5150 C.ar      1 LIB401      0.0000 
     23 N38        -2.8140   -3.6420   21.8220 N.ar      1 LIB401      0.0000 
     24 C34        -2.7740   -2.5620   22.5730 C.ar      1 LIB401      0.0000 
     25 N33        -3.0150   -1.3360   22.0350 N.ar      1 LIB401      0.0000 
     26 N35        -2.5090   -2.7440   23.8620 N.pl3     1 LIB401      0.0000 
     27 C40        -2.2610   -1.6550   24.8180 C.3       1 LIB401      0.0000 
     28 C43        -2.8020   -2.1540   26.1600 C.3       1 LIB401      0.0000 
     29 C42        -0.7790   -1.2600   24.9480 C.3       1 LIB401      0.0000 
     30 C47         0.0100   -2.4340   25.4400 C.3       1 LIB401      0.0000 
     31 C46        -0.2050   -0.7260   23.6110 C.3       1 LIB401      0.0000 
     32 O45        -0.6300   -0.2350   25.9690 O.3       1 LIB401      0.0000 
     33 H          -6.0505   -0.4636   19.8444 H         1 LIB401      0.0000 
     34 H          -2.5569    0.5969   17.7846 H         1 LIB401      0.0000 
     35 H          -3.7484    0.4091   15.6750 H         1 LIB401      0.0000 
     36 H          -7.2191   -0.7486   17.7434 H         1 LIB401      0.0000 
     37 H          -0.8743    5.3396   24.5097 H         1 LIB401      0.0000 
     38 H          -0.1893    4.8519   22.2427 H         1 LIB401      0.0000 
     39 H          -2.4979    3.9231   25.6180 H         1 LIB401      0.0000 
     40 H          -1.1284    2.9509   21.0689 H         1 LIB401      0.0000 
     41 H          -3.1436    0.4094   22.6566 H         1 LIB401      0.0000 
     42 H          -3.4242   -2.2249   18.9310 H         1 LIB401      0.0000 
     43 H          -3.0758   -4.3861   19.9065 H         1 LIB401      0.0000 
     44 H          -2.4608   -3.7131   24.2828 H         1 LIB401      0.0000 
     45 H          -2.8382   -0.7840   24.5448 H         1 LIB401      0.0000 
     46 H          -4.8892   -0.1463   13.8854 H         1 LIB401      0.0000 
     47 H          -5.1665   -1.6802   14.2810 H         1 LIB401      0.0000 
     48 H          -6.2351   -0.8737   13.3900 H         1 LIB401      0.0000 
     49 H          -2.3412   -2.9898   26.4585 H         1 LIB401      0.0000 
     50 H          -2.6789   -1.4765   26.8851 H         1 LIB401      0.0000 
     51 H          -3.7797   -2.3590   26.1132 H         1 LIB401      0.0000 
     52 H           0.9808   -2.2146   25.5374 H         1 LIB401      0.0000 
     53 H          -0.3104   -2.7487   26.3335 H         1 LIB401      0.0000 
     54 H          -0.0533   -3.2122   24.8152 H         1 LIB401      0.0000 
     55 H           0.7588   -0.4730   23.6953 H         1 LIB401      0.0000 
     56 H          -0.2664   -1.4076   22.8819 H         1 LIB401      0.0000 
     57 H          -0.6947    0.0865   23.2947 H         1 LIB401      0.0000 
     58 H           0.1734    0.2918   25.6914 H         1 LIB401      0.0000 
@<TRIPOS>BOND
     1   15    1 am   
     2   17    1 1    
     3   20    1 1    
     4    5    2 ar   
     5    6    2 ar   
     6   18    2 1    
     7    6    3 ar   
     8   17    3 ar   
     9   33    3 1    
    10    5    4 ar   
    11   17    4 ar   
    12   34    4 1    
    13   35    5 1    
    14   36    6 1    
    15    9    7 ar   
    16   13    7 ar   
    17   14    7 1    
    18   10    8 ar   
    19   12    8 ar   
    20   37    8 1    
    21   11    9 1    
    22   12    9 ar   
    23   13   10 ar   
    24   38   10 1    
    25   39   12 1    
    26   40   13 1    
    27   15   14 am   
    28   41   14 1    
    29   16   15 2    
    30   19   18 1    
    31   46   19 1    
    32   47   19 1    
    33   48   19 1    
    34   21   20 ar   
    35   25   20 ar   
    36   22   21 ar   
    37   42   21 1    
    38   23   22 ar   
    39   43   22 1    
    40   24   23 ar   
    41   25   24 ar   
    42   26   24 1    
    43   27   26 1    
    44   44   26 1    
    45   28   27 1    
    46   29   27 1    
    47   45   27 1    
    48   49   28 1    
    49   50   28 1    
    50   51   28 1    
    51   30   29 1    
    52   31   29 1    
    53   32   29 1    
    54   52   30 1    
    55   53   30 1    
    56   54   30 1    
    57   55   31 1    
    58   56   31 1    
    59   57   31 1    
    60   58   32 1    
@<TRIPOS>SUBSTRUCTURE
     1 LIB401      1 GROUP   
@<TRIPOS>SET

