#    Name: 2zru_FMN_1_INTS_M
#    Modification time : Tue Mar 25 10:57:31 2014

@<TRIPOS>MOLECULE
2zru_FMN_1_INTS_M
   92     0    12     0     0
SMALL
NO_CHARGES


@<TRIPOS>ATOM
      1 N          60.6790   18.7305   18.8930 N.am      2 SEC2        0.0000 
      2 N          60.3500   18.0320   17.6340 N.am     10 SEL2        0.0000 
      3 N          61.0080   19.4290   20.1520 N.am      6 SEP2        0.0000 
      4 N          61.5135   15.5785   19.7945 N.am      2 SEC2        0.0000 
      5 N          60.5950   16.7560   19.4030 N.am     10 SEL2        0.0000 
      6 N          62.4320   14.4010   20.1860 N.am      6 SEP2        0.0000 
      7 N          60.8015   18.0925   19.7775 N.am      2 SEC2        0.0000 
      8 O          60.7270   14.4505   18.1395 O.2       1 ALC1        0.0000 
      9 O          60.3970   15.6870   17.4170 O.2       9 ALL1        0.0000 
     10 O          61.0570   13.2140   18.8620 O.2       5 ALP1        0.0000 
     11 N          60.7560   13.3985   15.6795 N.am      2 SEC2        0.0000 
     12 N          60.1220   14.6380   15.4400 N.am     10 SEL2        0.0000 
     13 N          61.3900   12.1590   15.9190 N.am      6 SEP2        0.0000 
     14 N          61.0035   16.3355   13.2655 N.am      2 SEC2        0.0000 
     15 N          60.0740   17.1780   14.0700 N.am     10 SEL2        0.0000 
     16 N          61.9330   15.4930   12.4610 N.am      6 SEP2        0.0000 
     17 CA         60.6905   18.4875    8.4130 C.3       4 GLC5        0.0000 
     18 CA         60.6130   19.7930    9.9860 C.3      12 GLL5        0.0000 
     19 CA         60.7680   17.1820    6.8400 C.3       8 GLP5        0.0000 
     20 CA         59.8620   21.4580    9.0285 C.3       4 GLC5        0.0000 
     21 CA         59.1110   23.1230    8.0710 C.3       8 GLP5        0.0000 
     22 CA         58.9285   20.1290   11.3280 C.3       4 GLC5        0.0000 
     23 CA         57.2440   20.4650   12.6700 C.3       8 GLP5        0.0000 
     24 CA         62.0715   20.6430    8.7670 C.3       4 GLC5        0.0000 
     25 CA         63.5300   21.4930    7.5480 C.3       8 GLP5        0.0000 
     26 CA         60.0660   22.6775    9.8735 C.3       4 GLC5        0.0000 
     27 CA         61.0210   22.2320   11.6760 C.3      12 GLL5        0.0000 
     28 CA         63.0190   21.4240   11.8335 C.3       4 GLC5        0.0000 
     29 CA         65.0170   20.6160   11.9910 C.3       8 GLP5        0.0000 
     30 CA         59.6870   23.5875   12.1485 C.3       4 GLC5        0.0000 
     31 CA         58.3530   24.9430   12.6210 C.3       8 GLP5        0.0000 
     32 CA         59.1325   21.3485   12.1730 C.3       4 GLC5        0.0000 
     33 CA         61.5965   24.1250   10.9320 C.3       4 GLC5        0.0000 
     34 CA         62.1720   26.0180   10.1880 C.3       8 GLP5        0.0000 
     35 CA         58.7760   21.2390   18.1080 C.3       4 GLC5        0.0000 
     36 CA         60.2890   20.6220   16.6160 C.3      12 GLL5        0.0000 
     37 CA         57.2630   21.8560   19.6000 C.3       8 GLP5        0.0000 
     38 N          63.7315   20.9055   17.8710 N.am      2 SEC2        0.0000 
     39 N          62.5200   20.2700   17.5250 N.am     10 SEL2        0.0000 
     40 N          64.9430   21.5410   18.2170 N.am      6 SEP2        0.0000 
     41 N          61.7640   19.8495   18.8385 N.am      2 SEC2        0.0000 
     42 O          62.8395   19.2745   16.7430 O.2       1 ALC1        0.0000 
     43 O          62.5200   20.2700   17.5250 O.2       9 ALL1        0.0000 
     44 O          63.1590   18.2790   15.9610 O.2       5 ALP1        0.0000 
     45 N          61.0965   20.8350   19.5440 N.am      2 SEC2        0.0000 
     46 N          61.1850   22.2410   18.9360 N.am     10 SEL2        0.0000 
     47 N          60.4105   23.0850   19.7105 N.am      2 SEC2        0.0000 
     48 N          59.6360   23.9290   20.4850 N.am      6 SEP2        0.0000 
     49 O          62.1550   22.4360   19.8295 O.2       1 ALC1        0.0000 
     50 O          61.1850   22.2410   18.9360 O.2       9 ALL1        0.0000 
     51 O          63.1250   22.6310   20.7230 O.2       5 ALP1        0.0000 
     52 CA         61.4300   26.6565   18.4730 C.3       4 GLC5        0.0000 
     53 CA         61.1130   25.0180   17.4530 C.3      12 GLL5        0.0000 
     54 CA         61.7470   28.2950   19.4930 C.3       8 GLP5        0.0000 
     55 NZ         64.4810   27.8350   15.2905 N.4       3 LYC4        0.0000 
     56 NZ         64.3030   26.4810   15.8700 N.4      11 LYL4        0.0000 
     57 NZ         63.8680   29.5300   13.7120 N.4       7 LYP4        0.0000 
     58 N          64.4810   27.8350   15.2905 N.am      2 SEC2        0.0000 
     59 N          64.3030   26.4810   15.8700 N.am     10 SEL2        0.0000 
     60 N          64.6590   29.1890   14.7110 N.am      6 SEP2        0.0000 
     61 N          65.2850   25.4815   15.6120 N.am      2 SEC2        0.0000 
     62 N          66.2670   24.4820   15.3540 N.am      6 SEP2        0.0000 
     63 NZ         63.3170   28.3275   15.2515 N.4       3 LYC4        0.0000 
     64 NZ         61.9750   27.4660   15.7920 N.4      11 LYL4        0.0000 
     65 N          62.3245   28.2075   14.6975 N.am      2 SEC2        0.0000 
     66 N          61.9750   27.4660   15.7920 N.am     10 SEL2        0.0000 
     67 N          62.6740   28.9490   13.6030 N.am      6 SEP2        0.0000 
     68 N          63.3170   28.3275   15.2515 N.am      2 SEC2        0.0000 
     69 N          60.7230   27.8255   15.0850 N.am      2 SEC2        0.0000 
     70 N          59.4710   28.1850   14.3780 N.am      6 SEP2        0.0000 
     71 N          62.2050   28.5965   16.7220 N.am      2 SEC2        0.0000 
     72 N          62.4350   29.7270   17.6520 N.am      6 SEP2        0.0000 
     73 N          61.4735   25.6360   13.7920 N.am      2 SEC2        0.0000 
     74 N          62.4370   25.3180   14.5640 N.am     10 SEL2        0.0000 
     75 N          60.5100   25.9540   13.0200 N.am      6 SEP2        0.0000 
     76 N          63.5490   24.9530   13.6480 N.am      2 SEC2        0.0000 
     77 N          64.6610   24.5880   12.7320 N.am      6 SEP2        0.0000 
     78 CA         61.8550   17.7705   13.1220 C.3       4 GLC5        0.0000 
     79 CA         60.1700   18.4130   13.5050 C.3      12 GLL5        0.0000 
     80 CA         63.4910   17.0790   13.4320 C.3       8 GLP5        0.0000 
     81 CA         59.6365   16.6530   12.2800 C.3       4 GLC5        0.0000 
     82 CA         59.0540   14.8440   11.7480 C.3       8 GLP5        0.0000 
     83 CA         62.3870   19.8938   12.4667 C.3       4 GLC5        0.0000 
     84 CA         60.5580   19.7320   11.5080 C.3      12 GLL5        0.0000 
     85 CA         64.1100   19.4910   13.0350 C.3       8 GLP5        0.0000 
     86 CA         62.2860   19.8355   13.5120 C.3       4 GLC5        0.0000 
     87 CA         60.6010   20.7880   13.6790 C.3      12 GLL5        0.0000 
     88 CA         60.0553   25.0903   15.3803 C.3       4 GLC5        0.0000 
     89 CA         60.7340   23.6030   16.9820 C.3      12 GLL5        0.0000 
     90 CA         59.1870   25.8700   13.5430 C.3       8 GLP5        0.0000 
     91 CA         62.8890   22.7190   16.0389 C.3       4 GLC5        0.0000 
     92 CA         64.5810   22.6990   14.9810 C.3       8 GLP5        0.0000 
@<TRIPOS>BOND
@<TRIPOS>SUBSTRUCTURE
     1 ALC1        8 GROUP        1 X    ALC  0     ROOT ALC X 1
     2 SEC2        1 GROUP        1 X    SEC  0     **** SEC X 2
     3 LYC4       55 GROUP        1 X    LYC  0     **** LYC X 4
     4 GLC5       17 GROUP        1 X    GLC  0     **** GLC X 6
     5 ALP1       10 GROUP        1 Y    ALP  0     ROOT ALP Y 8
     6 SEP2        3 GROUP        1 Y    SEP  0     **** SEP Y 9
     7 LYP4       57 GROUP        1 Y    LYP  0     **** LYP Y 11
     8 GLP5       19 GROUP        1 Y    GLP  0     **** GLP Y 13
     9 ALL1        9 GROUP        1 Z    ALL  0     ROOT ALL Z 15
    10 SEL2        2 GROUP        1 Z    SEL  0     **** SEL Z 16
    11 LYL4       56 GROUP        1 Z    LYL  0     **** LYL Z 18
    12 GLL5       18 GROUP        1 Z    GLL  0     **** GLL Z 20
@<TRIPOS>SET

