#    Name: 2zru_FMN_1_ligand
#    Modification time : Tue Mar 25 10:57:31 2014

@<TRIPOS>MOLECULE
2zru_FMN_1_ligand
   50    52     1     0     0
SMALL
NO_CHARGES


@<TRIPOS>ATOM
      1 N1         60.3500   18.0320   17.6340 N.2       1 FMN669      0.0000 
      2 C2         60.3690   16.8060   18.1840 C.2       1 FMN669      0.0000 
      3 O2         60.5950   16.7560   19.4030 O.2       1 FMN669      0.0000 
      4 N3         60.3970   15.6870   17.4170 N.am      1 FMN669      0.0000 
      5 C4         60.1770   15.7060   16.0950 C.2       1 FMN669      0.0000 
      6 O4         60.1220   14.6380   15.4400 O.2       1 FMN669      0.0000 
      7 C4A        60.1710   17.0170   15.4110 C.2       1 FMN669      0.0000 
      8 N5         60.0740   17.1780   14.0700 N.2       1 FMN669      0.0000 
      9 C5A        60.1700   18.4130   13.5050 C.ar      1 FMN669      0.0000 
     10 C6         60.2680   18.5110   12.1190 C.ar      1 FMN669      0.0000 
     11 C7         60.5580   19.7320   11.5080 C.ar      1 FMN669      0.0000 
     12 C7M        60.6130   19.7930    9.9860 C.3       1 FMN669      0.0000 
     13 C8         60.7700   20.8610   12.2890 C.ar      1 FMN669      0.0000 
     14 C8M        61.0210   22.2320   11.6760 C.3       1 FMN669      0.0000 
     15 C9         60.6010   20.7880   13.6790 C.ar      1 FMN669      0.0000 
     16 C9A        60.3230   19.5720   14.2990 C.ar      1 FMN669      0.0000 
     17 N10        60.3700   19.4550   15.7220 N.pl3     1 FMN669      0.0000 
     18 C10        60.2180   18.1990   16.2930 C.2       1 FMN669      0.0000 
     19 C1'        60.2890   20.6220   16.6160 C.3       1 FMN669      0.0000 
     20 C2'        61.6830   21.2140   16.8190 C.3       1 FMN669      0.0000 
     21 O2'        62.5200   20.2700   17.5250 O.3       1 FMN669      0.0000 
     22 C3'        61.6370   22.5360   17.6040 C.3       1 FMN669      0.0000 
     23 O3'        61.1850   22.2410   18.9360 O.3       1 FMN669      0.0000 
     24 C4'        60.7340   23.6030   16.9820 C.3       1 FMN669      0.0000 
     25 O4'        60.8150   23.4950   15.5340 O.3       1 FMN669      0.0000 
     26 C5'        61.1130   25.0180   17.4530 C.3       1 FMN669      0.0000 
     27 O5'        62.4610   25.3680   17.0850 O.3       1 FMN669      0.0000 
     28 P          62.8230   26.2200   15.7390 P.3       1 FMN669      0.0000 
     29 O1P        64.3030   26.4810   15.8700 O.co2     1 FMN669      0.0000 
     30 O2P        61.9750   27.4660   15.7920 O.co2     1 FMN669      0.0000 
     31 O3P        62.4370   25.3180   14.5640 O.co2     1 FMN669      0.0000 
     32 H          60.6027   14.7595   17.8912 H         1 FMN669      0.0000 
     33 H          60.1247   17.6713   11.5356 H         1 FMN669      0.0000 
     34 H          60.6842   21.6459   14.2448 H         1 FMN669      0.0000 
     35 H          59.8903   20.3351   17.5896 H         1 FMN669      0.0000 
     36 H          59.6457   21.3917   16.1883 H         1 FMN669      0.0000 
     37 H          62.1065   21.4262   15.8403 H         1 FMN669      0.0000 
     38 H          62.6536   22.9299   17.6453 H         1 FMN669      0.0000 
     39 H          59.7141   23.4023   17.3089 H         1 FMN669      0.0000 
     40 H          60.9734   25.0512   18.5469 H         1 FMN669      0.0000 
     41 H          60.3820   25.7192   17.0159 H         1 FMN669      0.0000 
     42 H          60.8289   20.7129    9.6587 H         1 FMN669      0.0000 
     43 H          61.3093   19.1789    9.6146 H         1 FMN669      0.0000 
     44 H          59.7410   19.5318    9.5721 H         1 FMN669      0.0000 
     45 H          61.1554   22.9330   12.3764 H         1 FMN669      0.0000 
     46 H          61.8362   22.2363   11.0968 H         1 FMN669      0.0000 
     47 H          60.2551   22.5300   11.1063 H         1 FMN669      0.0000 
     48 H          62.3460   19.3896   17.0838 H         1 FMN669      0.0000 
     49 H          61.9714   22.4306   19.5240 H         1 FMN669      0.0000 
     50 H          61.4507   24.2151   15.2560 H         1 FMN669      0.0000 
@<TRIPOS>BOND
     1    2    1 1    
     2   18    1 2    
     3    3    2 2    
     4    4    2 am   
     5    5    4 am   
     6   32    4 1    
     7    6    5 2    
     8    7    5 1    
     9    8    7 2    
    10   18    7 1    
    11    9    8 1    
    12   10    9 ar   
    13   16    9 ar   
    14   11   10 ar   
    15   33   10 1    
    16   12   11 1    
    17   13   11 ar   
    18   42   12 1    
    19   43   12 1    
    20   44   12 1    
    21   14   13 1    
    22   15   13 ar   
    23   45   14 1    
    24   46   14 1    
    25   47   14 1    
    26   16   15 ar   
    27   34   15 1    
    28   17   16 1    
    29   18   17 1    
    30   19   17 1    
    31   20   19 1    
    32   35   19 1    
    33   36   19 1    
    34   21   20 1    
    35   22   20 1    
    36   37   20 1    
    37   48   21 1    
    38   23   22 1    
    39   24   22 1    
    40   38   22 1    
    41   49   23 1    
    42   25   24 1    
    43   26   24 1    
    44   39   24 1    
    45   50   25 1    
    46   27   26 1    
    47   40   26 1    
    48   41   26 1    
    49   28   27 1    
    50   29   28 ar   
    51   30   28 ar   
    52   31   28 ar   
@<TRIPOS>SUBSTRUCTURE
     1 FMN669      1 GROUP   
@<TRIPOS>SET

