#    Name: 1g1l_DAU_12_INTS_M
#    Modification time : Tue Mar 25 02:20:03 2014

@<TRIPOS>MOLECULE
1g1l_DAU_12_INTS_M
   61     0     9     0     0
SMALL
NO_CHARGES


@<TRIPOS>ATOM
      1 O          54.2235   34.6025  -17.9670 O.2       1 ALC1        0.0000 
      2 O          55.1240   34.3060  -18.8400 O.2       7 ALL1        0.0000 
      3 O          53.3230   34.8990  -17.0940 O.2       4 ALP1        0.0000 
      4 CA         56.8450   33.4645  -17.8005 C.3       3 GLC5        0.0000 
      5 CA         55.6790   32.9920  -18.9170 C.3       9 GLL5        0.0000 
      6 CA         58.0110   33.9370  -16.6840 C.3       6 GLP5        0.0000 
      7 N          50.8730   30.5005  -22.9170 N.am      2 SEC2        0.0000 
      8 N          51.4480   30.4770  -21.7190 N.am      8 SEL2        0.0000 
      9 N          50.2980   30.5240  -24.1150 N.am      5 SEP2        0.0000 
     10 O          52.0065   29.3960  -22.1565 O.2       1 ALC1        0.0000 
     11 O          51.4480   30.4770  -21.7190 O.2       7 ALL1        0.0000 
     12 O          52.5650   28.3150  -22.5940 O.2       4 ALP1        0.0000 
     13 N          54.2935   27.4700  -19.1765 N.am      2 SEC2        0.0000 
     14 N          53.7240   27.8040  -18.0960 N.am      8 SEL2        0.0000 
     15 N          54.8630   27.1360  -20.2570 N.am      5 SEP2        0.0000 
     16 N          53.8475   27.0890  -16.7830 N.am      2 SEC2        0.0000 
     17 N          53.9710   26.3740  -15.4700 N.am      5 SEP2        0.0000 
     18 N          51.5475   26.9845  -20.0665 N.am      2 SEC2        0.0000 
     19 N          51.3050   28.0590  -19.0660 N.am      8 SEL2        0.0000 
     20 N          51.7900   25.9100  -21.0670 N.am      5 SEP2        0.0000 
     21 N          48.5655   29.7880  -19.7500 N.am      2 SEC2        0.0000 
     22 N          49.1870   29.5630  -18.5970 N.am      8 SEL2        0.0000 
     23 N          47.9440   30.0130  -20.9030 N.am      5 SEP2        0.0000 
     24 N          47.9625   26.6135  -20.3795 N.am      2 SEC2        0.0000 
     25 N          49.0620   27.0220  -19.5330 N.am      8 SEL2        0.0000 
     26 N          46.8630   26.2050  -21.2260 N.am      5 SEP2        0.0000 
     27 N          48.5030   28.5175  -20.2180 N.am      2 SEC2        0.0000 
     28 CA         51.8455   25.5690  -18.1285 C.3       3 GLC5        0.0000 
     29 CA         50.4990   26.5570  -16.6700 C.3       9 GLL5        0.0000 
     30 CA         53.1920   24.5810  -19.5870 C.3       6 GLP5        0.0000 
     31 CA         48.1145   24.2080  -18.1285 C.3       3 GLC5        0.0000 
     32 CA         48.5260   24.9800  -16.3810 C.3       9 GLL5        0.0000 
     33 CA         47.7030   23.4360  -19.8760 C.3       6 GLP5        0.0000 
     34 N          49.4555   22.5945  -16.4695 N.am      2 SEC2        0.0000 
     35 N          48.5260   23.6140  -16.0130 N.am      8 SEL2        0.0000 
     36 N          50.3850   21.5750  -16.9260 N.am      5 SEP2        0.0000 
     37 CA         45.6330   26.0140  -16.0840 C.3       3 GLC5        0.0000 
     38 CA         47.3550   25.7070  -15.7190 C.3       9 GLL5        0.0000 
     39 CA         43.9110   26.3210  -16.4490 C.3       6 GLP5        0.0000 
     40 CA         46.9415   32.6990  -14.1775 C.3       3 GLC5        0.0000 
     41 CA         47.3960   31.0340  -14.8640 C.3       9 GLL5        0.0000 
     42 CA         46.4870   34.3640  -13.4910 C.3       6 GLP5        0.0000 
     43 N          45.9065   25.8970  -10.9050 N.am      2 SEC2        0.0000 
     44 N          46.5690   26.4110  -11.9950 N.am      8 SEL2        0.0000 
     45 N          45.2440   25.3830   -9.8150 N.am      5 SEP2        0.0000 
     46 O          46.0660   28.7265  -10.8895 O.2       1 ALC1        0.0000 
     47 O          46.3590   28.6140  -12.2420 O.2       7 ALL1        0.0000 
     48 O          45.7730   28.8390   -9.5370 O.2       4 ALP1        0.0000 
     49 CA         55.7763   31.1275  -17.9355 C.3       3 GLC5        0.0000 
     50 CA         54.7880   32.0140  -19.6710 C.3       9 GLL5        0.0000 
     51 CA         56.3190   29.7520  -16.5770 C.3       6 GLP5        0.0000 
     52 CA         51.1633   27.3895  -14.9750 C.3       3 GLC5        0.0000 
     53 CA         52.1940   28.6860  -13.7360 C.3       6 GLP5        0.0000 
     54 CA         51.9153   25.5600  -16.0895 C.3       3 GLC5        0.0000 
     55 CA         53.6980   25.0270  -15.9650 C.3       6 GLP5        0.0000 
     56 CA         49.3189   29.9270  -13.9170 C.3       3 GLC5        0.0000 
     57 CA         47.6590   28.4970  -14.5890 C.3       9 GLL5        0.0000 
     58 CA         51.2280   29.7840  -13.2210 C.3       6 GLP5        0.0000 
     59 CA         49.1379   24.6144  -14.1173 C.3       3 GLC5        0.0000 
     60 CA         47.9120   26.1070  -14.3640 C.3       9 GLL5        0.0000 
     61 CA         49.8860   23.6230  -12.6790 C.3       6 GLP5        0.0000 
@<TRIPOS>BOND
@<TRIPOS>SUBSTRUCTURE
     1 ALC1        1 GROUP        1 X    ALC  0     ROOT ALC X 1
     2 SEC2        7 GROUP        1 X    SEC  0     **** SEC X 2
     3 GLC5        4 GROUP        1 X    GLC  0     **** GLC X 6
     4 ALP1        3 GROUP        1 Y    ALP  0     ROOT ALP Y 8
     5 SEP2        9 GROUP        1 Y    SEP  0     **** SEP Y 9
     6 GLP5        6 GROUP        1 Y    GLP  0     **** GLP Y 13
     7 ALL1        2 GROUP        1 Z    ALL  0     ROOT ALL Z 15
     8 SEL2        8 GROUP        1 Z    SEL  0     **** SEL Z 16
     9 GLL5        5 GROUP        1 Z    GLL  0     **** GLL Z 20
@<TRIPOS>SET

