#    Name: 1g1l_DAU_12_ligand
#    Modification time : Tue Mar 25 02:20:03 2014

@<TRIPOS>MOLECULE
1g1l_DAU_12_ligand
   60    62     1     0     0
SMALL
NO_CHARGES


@<TRIPOS>ATOM
      1 O6         55.1240   34.3060  -18.8400 O.3       1 DAU3511     0.0000 
      2 C6         55.6790   32.9920  -18.9170 C.3       1 DAU3511     0.0000 
      3 C5         54.7880   32.0140  -19.6710 C.3       1 DAU3511     0.0000 
      4 O5         53.5130   31.9940  -19.0320 O.3       1 DAU3511     0.0000 
      5 C4         54.5570   32.4710  -21.1160 C.3       1 DAU3511     0.0000 
      6 O4         55.8020   32.5930  -21.8070 O.3       1 DAU3511     0.0000 
      7 C3         53.6180   31.4770  -21.7960 C.3       1 DAU3511     0.0000 
      8 O3         53.3720   31.8830  -23.1010 O.3       1 DAU3511     0.0000 
      9 C2         52.2610   31.4420  -21.0740 C.3       1 DAU3511     0.0000 
     10 O2         51.4480   30.4770  -21.7190 O.3       1 DAU3511     0.0000 
     11 C1         52.5770   31.1020  -19.6150 C.3       1 DAU3511     0.0000 
     12 O1         53.0470   29.7390  -19.4890 O.3       1 DAU3511     0.0000 
     13 P2         52.4890   28.7790  -18.2700 P.3       1 DAU3511     0.0000 
     14 O3P        53.7240   27.8040  -18.0960 O.co2     1 DAU3511     0.0000 
     15 O4P        52.0470   29.7330  -17.1330 O.co2     1 DAU3511     0.0000 
     16 OPP        51.3050   28.0590  -19.0660 O.3       1 DAU3511     0.0000 
     17 P          49.7230   28.0960  -18.5890 P.3       1 DAU3511     0.0000 
     18 O1P        49.1870   29.5630  -18.5970 O.co2     1 DAU3511     0.0000 
     19 O2P        49.0620   27.0220  -19.5330 O.co2     1 DAU3511     0.0000 
     20 O5'        49.6710   27.6250  -17.0610 O.3       1 DAU3511     0.0000 
     21 C5'        50.4990   26.5570  -16.6700 C.3       1 DAU3511     0.0000 
     22 C4'        49.7660   25.6290  -15.7580 C.3       1 DAU3511     0.0000 
     23 O4'        49.3080   26.2680  -14.5590 O.3       1 DAU3511     0.0000 
     24 C3'        48.5260   24.9800  -16.3810 C.3       1 DAU3511     0.0000 
     25 O3'        48.5260   23.6140  -16.0130 O.3       1 DAU3511     0.0000 
     26 C2'        47.3550   25.7070  -15.7190 C.3       1 DAU3511     0.0000 
     27 C1'        47.9120   26.1070  -14.3640 C.3       1 DAU3511     0.0000 
     28 N11        47.3840   27.3660  -13.9090 N.am      1 DAU3511     0.0000 
     29 C61        47.6590   28.4970  -14.5890 C.2       1 DAU3511     0.0000 
     30 C51        47.1880   29.7150  -14.1350 C.2       1 DAU3511     0.0000 
     31 C5A        47.3960   31.0340  -14.8640 C.3       1 DAU3511     0.0000 
     32 C21        46.7760   27.4530  -12.7140 C.2       1 DAU3511     0.0000 
     33 O21        46.5690   26.4110  -11.9950 O.2       1 DAU3511     0.0000 
     34 N31        46.3590   28.6140  -12.2420 N.am      1 DAU3511     0.0000 
     35 C41        46.5360   29.7260  -12.9240 C.2       1 DAU3511     0.0000 
     36 O41        46.1080   30.8310  -12.4270 O.2       1 DAU3511     0.0000 
     37 H          55.8577   32.5702  -17.9058 H         1 DAU3511     0.0000 
     38 H          56.6676   33.0011  -19.4218 H         1 DAU3511     0.0000 
     39 H          55.2378   31.0533  -19.6790 H         1 DAU3511     0.0000 
     40 H          54.0392   33.4295  -21.0664 H         1 DAU3511     0.0000 
     41 H          54.0462   30.4999  -21.7417 H         1 DAU3511     0.0000 
     42 H          51.8577   32.4305  -21.1162 H         1 DAU3511     0.0000 
     43 H          51.6096   31.1793  -19.0660 H         1 DAU3511     0.0000 
     44 H          51.4036   26.9141  -16.1433 H         1 DAU3511     0.0000 
     45 H          50.8527   25.9752  -17.5415 H         1 DAU3511     0.0000 
     46 H          50.4362   24.7963  -15.4772 H         1 DAU3511     0.0000 
     47 H          48.5236   25.1625  -17.4028 H         1 DAU3511     0.0000 
     48 H          46.5434   25.0373  -15.5956 H         1 DAU3511     0.0000 
     49 H          47.1083   26.5709  -16.2805 H         1 DAU3511     0.0000 
     50 H          47.7170   25.3210  -13.6713 H         1 DAU3511     0.0000 
     51 H          48.2256   28.4696  -15.4590 H         1 DAU3511     0.0000 
     52 H          45.8753   28.6488  -11.3007 H         1 DAU3511     0.0000 
     53 H          48.3665   31.2497  -14.9718 H         1 DAU3511     0.0000 
     54 H          46.9955   31.0191  -15.7802 H         1 DAU3511     0.0000 
     55 H          46.9783   31.7991  -14.3739 H         1 DAU3511     0.0000 
     56 H          54.1917   34.1737  -18.5032 H         1 DAU3511     0.0000 
     57 H          55.9997   31.6740  -22.1481 H         1 DAU3511     0.0000 
     58 H          53.8163   31.1945  -23.6742 H         1 DAU3511     0.0000 
     59 H          52.0567   30.0157  -22.3645 H         1 DAU3511     0.0000 
     60 H          47.6068   23.4414  -15.6591 H         1 DAU3511     0.0000 
@<TRIPOS>BOND
     1    2    1 1    
     2   56    1 1    
     3    3    2 1    
     4   37    2 1    
     5   38    2 1    
     6    4    3 1    
     7    5    3 1    
     8   39    3 1    
     9   11    4 1    
    10    6    5 1    
    11    7    5 1    
    12   40    5 1    
    13   57    6 1    
    14    8    7 1    
    15    9    7 1    
    16   41    7 1    
    17   58    8 1    
    18   10    9 1    
    19   11    9 1    
    20   42    9 1    
    21   59   10 1    
    22   12   11 1    
    23   43   11 1    
    24   13   12 1    
    25   14   13 ar   
    26   15   13 ar   
    27   16   13 1    
    28   17   16 1    
    29   18   17 ar   
    30   19   17 ar   
    31   20   17 1    
    32   21   20 1    
    33   22   21 1    
    34   44   21 1    
    35   45   21 1    
    36   23   22 1    
    37   24   22 1    
    38   46   22 1    
    39   27   23 1    
    40   25   24 1    
    41   26   24 1    
    42   47   24 1    
    43   60   25 1    
    44   27   26 1    
    45   48   26 1    
    46   49   26 1    
    47   28   27 1    
    48   50   27 1    
    49   29   28 1    
    50   32   28 1    
    51   30   29 2    
    52   51   29 1    
    53   31   30 1    
    54   35   30 1    
    55   53   31 1    
    56   54   31 1    
    57   55   31 1    
    58   33   32 2    
    59   34   32 1    
    60   35   34 1    
    61   52   34 1    
    62   36   35 2    
@<TRIPOS>SUBSTRUCTURE
     1 DAU3511     1 GROUP   
@<TRIPOS>SET

