#    Name: 3l03_4OH_1_INTS_M
#    Modification time : Mon Mar 24 20:42:38 2014

@<TRIPOS>MOLECULE
3l03_4OH_1_INTS_M
   64     0     9     0     0
SMALL
NO_CHARGES


@<TRIPOS>ATOM
      1 CA        -22.9985    5.8375   -7.2405 C.3       3 GLC5        0.0000 
      2 CA        -23.9070    4.1140   -6.8790 C.3       9 GLL5        0.0000 
      3 CA        -22.0900    7.5610   -7.6020 C.3       6 GLP5        0.0000 
      4 CA        -23.1800    4.3630   -2.7045 C.3       3 GLC5        0.0000 
      5 CA        -23.0650    4.8570   -4.7140 C.3       9 GLL5        0.0000 
      6 CA        -23.2950    3.8690   -0.6950 C.3       6 GLP5        0.0000 
      7 CA        -22.6285    6.4825   -3.3800 C.3       3 GLC5        0.0000 
      8 CA        -22.1920    8.1080   -2.0460 C.3       6 GLP5        0.0000 
      9 CA        -24.6600    4.0590   -2.1570 C.3       3 GLC5        0.0000 
     10 CA        -26.0250    4.2490   -3.6190 C.3       9 GLL5        0.0000 
     11 CA        -23.8990    1.6320   -8.7795 C.3       3 GLC5        0.0000 
     12 CA        -24.8820    3.2130   -7.6280 C.3       9 GLL5        0.0000 
     13 CA        -22.9160    0.0510   -9.9310 C.3       6 GLP5        0.0000 
     14 CA        -21.1800    3.8330   -3.1900 C.3       3 GLC5        0.0000 
     15 CA        -21.6640    4.2770   -4.8940 C.3       9 GLL5        0.0000 
     16 CA        -20.6960    3.3890   -1.4860 C.3       6 GLP5        0.0000 
     17 CA        -29.2260    3.8860   -6.8575 C.3       3 GLC5        0.0000 
     18 CA        -27.8390    3.9920   -5.2190 C.3       9 GLL5        0.0000 
     19 CA        -30.6130    3.7800   -8.4960 C.3       6 GLP5        0.0000 
     20 CA        -28.4765    3.6385   -7.8675 C.3       3 GLC5        0.0000 
     21 CA        -26.3400    3.4970   -7.2390 C.3       9 GLL5        0.0000 
     22 CA        -27.3150    2.4760   -8.8940 C.3       3 GLC5        0.0000 
     23 CA        -28.2900    1.4550  -10.5490 C.3       6 GLP5        0.0000 
     24 CA        -24.6915    1.2975   -4.3465 C.3       3 GLC5        0.0000 
     25 CA        -26.3790    1.9810   -5.2630 C.3       9 GLL5        0.0000 
     26 CA        -23.0040    0.6140   -3.4300 C.3       6 GLP5        0.0000 
     27 CA        -28.1370    0.9190   -4.9195 C.3       3 GLC5        0.0000 
     28 CA        -29.8950   -0.1430   -4.5760 C.3       6 GLP5        0.0000 
     29 CA        -29.5635    4.5875   -3.1860 C.3       3 GLC5        0.0000 
     30 CA        -27.5510    4.1700   -3.7320 C.3       9 GLL5        0.0000 
     31 CA        -31.5760    5.0050   -2.6400 C.3       6 GLP5        0.0000 
     32 O         -29.9180    4.1160   -4.6235 O.2       1 ALC1        0.0000 
     33 O         -28.9890    3.1520   -5.4390 O.2       7 ALL1        0.0000 
     34 O         -30.8470    5.0800   -3.8080 O.2       4 ALP1        0.0000 
     35 O         -29.4925    5.2340   -3.5270 O.2       1 ALC1        0.0000 
     36 O         -28.1380    5.3880   -3.2460 O.2       7 ALL1        0.0000 
     37 CA        -18.7655    5.2130   -5.9045 C.3       3 GLC5        0.0000 
     38 CA        -20.1050    3.8940   -6.7830 C.3       9 GLL5        0.0000 
     39 CA        -17.4260    6.5320   -5.0260 C.3       6 GLP5        0.0000 
     40 CA        -20.3970    4.3970  -10.7765 C.3       3 GLC5        0.0000 
     41 CA        -20.8070    3.5640   -9.0380 C.3       9 GLL5        0.0000 
     42 CA        -19.9870    5.2300  -12.5150 C.3       6 GLP5        0.0000 
     43 N         -17.4865    4.6060   -8.6515 N.am      2 SEC2        0.0000 
     44 N         -18.4630    3.5200   -8.4330 N.am      8 SEL2        0.0000 
     45 N         -16.5100    5.6920   -8.8700 N.am      5 SEP2        0.0000 
     46 O         -18.3355    2.8670   -9.4655 O.2       1 ALC1        0.0000 
     47 O         -18.4630    3.5200   -8.4330 O.2       7 ALL1        0.0000 
     48 O         -18.2080    2.2140  -10.4980 O.2       4 ALP1        0.0000 
     49 O         -17.2785    2.6665   -9.2400 O.2       1 ALC1        0.0000 
     50 O         -16.0940    1.8130  -10.0470 O.2       4 ALP1        0.0000 
     51 CA        -22.2273    6.0640   -6.2030 C.3       3 GLC5        0.0000 
     52 CA        -27.1330    3.4407   -1.9133 C.3       3 GLC5        0.0000 
     53 CA        -27.4780    2.6720   -0.1510 C.3       6 GLP5        0.0000 
     54 CA        -25.7505    4.4670   -9.0418 C.3       3 GLC5        0.0000 
     55 CA        -25.8900    5.5790  -10.6500 C.3       6 GLP5        0.0000 
     56 CA        -22.8135    2.4790   -4.2000 C.3       3 GLC5        0.0000 
     57 CA        -20.7884    5.9720   -5.2715 C.3       3 GLC5        0.0000 
     58 CA        -21.4170    4.0450   -6.3740 C.3       9 GLL5        0.0000 
     59 CA        -19.6860    7.6380   -4.9540 C.3       6 GLP5        0.0000 
     60 CA        -22.1983    1.8425   -9.3827 C.3       3 GLC5        0.0000 
     61 CA        -22.1540    3.7040   -8.6310 C.3       9 GLL5        0.0000 
     62 CA        -19.6778    2.1771   -6.4214 C.3       3 GLC5        0.0000 
     63 CA        -19.7800    3.6590   -8.1090 C.3       9 GLL5        0.0000 
     64 CA        -19.0850    0.5400   -5.4990 C.3       6 GLP5        0.0000 
@<TRIPOS>BOND
@<TRIPOS>SUBSTRUCTURE
     1 ALC1       32 GROUP        1 X    ALC  0     ROOT ALC X 1
     2 SEC2       43 GROUP        1 X    SEC  0     **** SEC X 2
     3 GLC5        1 GROUP        1 X    GLC  0     **** GLC X 6
     4 ALP1       34 GROUP        1 Y    ALP  0     ROOT ALP Y 8
     5 SEP2       45 GROUP        1 Y    SEP  0     **** SEP Y 9
     6 GLP5        3 GROUP        1 Y    GLP  0     **** GLP Y 13
     7 ALL1       33 GROUP        1 Z    ALL  0     ROOT ALL Z 15
     8 SEL2       44 GROUP        1 Z    SEL  0     **** SEL Z 16
     9 GLL5        2 GROUP        1 Z    GLL  0     **** GLL Z 20
@<TRIPOS>SET

