#    Name: 3l03_4OH_1_ligand
#    Modification time : Mon Mar 24 20:42:38 2014

@<TRIPOS>MOLECULE
3l03_4OH_1_ligand
   46    49     1     0     0
SMALL
NO_CHARGES


@<TRIPOS>ATOM
      1 CAA       -24.0990    3.9650   -5.3780 C.3       1 4OH551      0.0000 
      2 CAB       -25.5400    4.3330   -5.0550 C.3       1 4OH551      0.0000 
      3 CAC       -23.9070    4.1140   -6.8790 C.3       1 4OH551      0.0000 
      4 CAD       -23.0650    4.8570   -4.7140 C.3       1 4OH551      0.0000 
      5 CAE       -26.5340    3.4240   -5.7340 C.3       1 4OH551      0.0000 
      6 CAF       -26.0250    4.2490   -3.6190 C.3       1 4OH551      0.0000 
      7 CAG       -22.4720    3.9390   -7.2920 C.ar      1 4OH551      0.0000 
      8 CAH       -24.8820    3.2130   -7.6280 C.3       1 4OH551      0.0000 
      9 CAI       -21.6640    4.2770   -4.8940 C.3       1 4OH551      0.0000 
     10 CAJ       -27.8390    3.9920   -5.2190 C.3       1 4OH551      0.0000 
     11 CAK       -26.3400    3.4970   -7.2390 C.3       1 4OH551      0.0000 
     12 CAL       -26.3790    1.9810   -5.2630 C.3       1 4OH551      0.0000 
     13 CAM       -27.5510    4.1700   -3.7320 C.3       1 4OH551      0.0000 
     14 OAN       -25.6370    5.4240   -2.9170 O.3       1 4OH551      0.0000 
     15 CAO       -21.4170    4.0450   -6.3740 C.ar      1 4OH551      0.0000 
     16 CAP       -22.1540    3.7040   -8.6310 C.ar      1 4OH551      0.0000 
     17 OAQ       -28.9890    3.1520   -5.4390 O.3       1 4OH551      0.0000 
     18 OAR       -28.1380    5.3880   -3.2460 O.3       1 4OH551      0.0000 
     19 CAS       -20.1050    3.8940   -6.7830 C.ar      1 4OH551      0.0000 
     20 CAT       -20.8070    3.5640   -9.0380 C.ar      1 4OH551      0.0000 
     21 CAU       -19.7800    3.6590   -8.1090 C.ar      1 4OH551      0.0000 
     22 OAV       -18.4630    3.5200   -8.4330 O.3       1 4OH551      0.0000 
     23 H         -23.9156    2.9434   -5.1213 H         1 4OH551      0.0000 
     24 H         -25.7674    5.3437   -5.4149 H         1 4OH551      0.0000 
     25 H         -24.2013    5.1688   -7.1246 H         1 4OH551      0.0000 
     26 H         -23.2842    4.9385   -3.6510 H         1 4OH551      0.0000 
     27 H         -23.1009    5.8493   -5.1599 H         1 4OH551      0.0000 
     28 H         -25.6702    3.3555   -3.1896 H         1 4OH551      0.0000 
     29 H         -24.6532    2.1676   -7.4055 H         1 4OH551      0.0000 
     30 H         -24.7657    3.3684   -8.7037 H         1 4OH551      0.0000 
     31 H         -21.5943    3.3382   -4.3618 H         1 4OH551      0.0000 
     32 H         -20.9349    4.9764   -4.5085 H         1 4OH551      0.0000 
     33 H         -27.9548    4.9802   -5.6327 H         1 4OH551      0.0000 
     34 H         -26.6131    4.4916   -7.5943 H         1 4OH551      0.0000 
     35 H         -26.9847    2.7640   -7.7260 H         1 4OH551      0.0000 
     36 H         -27.8821    3.3102   -3.2126 H         1 4OH551      0.0000 
     37 H         -22.9006    3.6307   -9.3338 H         1 4OH551      0.0000 
     38 H         -19.3410    3.9583   -6.0775 H         1 4OH551      0.0000 
     39 H         -20.5993    3.3913  -10.0292 H         1 4OH551      0.0000 
     40 H         -25.4677    1.6210   -5.4627 H         1 4OH551      0.0000 
     41 H         -26.5183    1.8953   -4.2765 H         1 4OH551      0.0000 
     42 H         -27.0379    1.3730   -5.7059 H         1 4OH551      0.0000 
     43 H         -26.4619    5.9881   -2.8810 H         1 4OH551      0.0000 
     44 H         -29.7563    3.6543   -5.0403 H         1 4OH551      0.0000 
     45 H         -28.8614    5.6058   -3.9010 H         1 4OH551      0.0000 
     46 H         -18.3983    2.6251   -8.8743 H         1 4OH551      0.0000 
@<TRIPOS>BOND
     1    2    1 1    
     2    3    1 1    
     3    4    1 1    
     4   23    1 1    
     5    5    2 1    
     6    6    2 1    
     7   24    2 1    
     8    7    3 1    
     9    8    3 1    
    10   25    3 1    
    11    9    4 1    
    12   26    4 1    
    13   27    4 1    
    14   10    5 1    
    15   11    5 1    
    16   12    5 1    
    17   13    6 1    
    18   14    6 1    
    19   28    6 1    
    20   15    7 ar   
    21   16    7 ar   
    22   11    8 1    
    23   29    8 1    
    24   30    8 1    
    25   15    9 1    
    26   31    9 1    
    27   32    9 1    
    28   13   10 1    
    29   17   10 1    
    30   33   10 1    
    31   34   11 1    
    32   35   11 1    
    33   40   12 1    
    34   41   12 1    
    35   42   12 1    
    36   18   13 1    
    37   36   13 1    
    38   43   14 1    
    39   19   15 ar   
    40   20   16 ar   
    41   37   16 1    
    42   44   17 1    
    43   45   18 1    
    44   21   19 ar   
    45   38   19 1    
    46   21   20 ar   
    47   39   20 1    
    48   22   21 1    
    49   46   22 1    
@<TRIPOS>SUBSTRUCTURE
     1 4OH551      1 GROUP   
@<TRIPOS>SET

