#    Name: 2d3z_FIH_2_INTS_M
#    Modification time : Tue Mar 25 09:37:40 2014

@<TRIPOS>MOLECULE
2d3z_FIH_2_INTS_M
   62     0     6     0     0
SMALL
NO_CHARGES


@<TRIPOS>ATOM
      1 CA        -13.9970   32.8675  -27.5875 C.3       2 GLC5        0.0000 
      2 CA        -13.1090   31.2420  -28.0560 C.3       6 GLL5        0.0000 
      3 CA        -14.8850   34.4930  -27.1190 C.3       4 GLP5        0.0000 
      4 CA        -13.8705   31.6800  -29.9390 C.3       2 GLC5        0.0000 
      5 CA        -14.6320   32.1180  -31.8220 C.3       4 GLP5        0.0000 
      6 CA        -12.8475   28.1275  -25.5130 C.3       2 GLC5        0.0000 
      7 CA        -11.8490   29.5630  -26.7940 C.3       6 GLL5        0.0000 
      8 CA        -13.8460   26.6920  -24.2320 C.3       4 GLP5        0.0000 
      9 CA        -13.0605   33.2510  -28.7400 C.3       2 GLC5        0.0000 
     10 CA        -11.9220   31.6100  -28.7580 C.3       6 GLL5        0.0000 
     11 CA        -14.1990   34.8920  -28.7220 C.3       4 GLP5        0.0000 
     12 CA        -12.1510   31.7380  -30.7960 C.3       2 GLC5        0.0000 
     13 CA        -12.3800   31.8660  -32.8340 C.3       4 GLP5        0.0000 
     14 CA        -10.8005   31.8640  -31.6545 C.3       2 GLC5        0.0000 
     15 CA         -9.2210   31.8620  -30.4750 C.3       6 GLL5        0.0000 
     16 CA         -8.8105   31.9815  -26.9720 C.3       2 GLC5        0.0000 
     17 CA         -7.9030   31.1290  -28.4360 C.3       6 GLL5        0.0000 
     18 CA         -9.7180   32.8340  -25.5080 C.3       4 GLP5        0.0000 
     19 CA         -7.0090   29.7205  -27.5125 C.3       2 GLC5        0.0000 
     20 CA         -6.1150   28.3120  -26.5890 C.3       4 GLP5        0.0000 
     21 CA        -14.3745   28.8535  -24.9650 C.3       2 GLC5        0.0000 
     22 CA        -14.1700   29.8790  -26.4150 C.3       6 GLL5        0.0000 
     23 CA        -14.5790   27.8280  -23.5150 C.3       4 GLP5        0.0000 
     24 N          -3.9910   31.5270  -27.8750 N.am      1 SEC2        0.0000 
     25 N          -4.9030   31.2050  -28.8370 N.am      5 SEL2        0.0000 
     26 N          -3.0790   31.8490  -26.9130 N.am      3 SEP2        0.0000 
     27 N          -3.7215   32.7590  -30.0480 N.am      1 SEC2        0.0000 
     28 N          -4.9570   32.5540  -30.5790 N.am      5 SEL2        0.0000 
     29 N          -2.4860   32.9640  -29.5170 N.am      3 SEP2        0.0000 
     30 CA        -11.4980   34.8945  -31.7805 C.3       2 GLC5        0.0000 
     31 CA         -9.7260   35.6310  -31.1980 C.3       6 GLL5        0.0000 
     32 CA        -13.2700   34.1580  -32.3630 C.3       4 GLP5        0.0000 
     33 CA        -11.7385   37.0735  -29.1130 C.3       2 GLC5        0.0000 
     34 CA         -9.9730   36.6930  -30.2830 C.3       6 GLL5        0.0000 
     35 CA        -13.5040   37.4540  -27.9430 C.3       4 GLP5        0.0000 
     36 CA         -9.6055   39.8870  -27.8545 C.3       2 GLC5        0.0000 
     37 CA         -9.1620   38.6100  -28.8360 C.3       6 GLL5        0.0000 
     38 CA        -10.0490   41.1640  -26.8730 C.3       4 GLP5        0.0000 
     39 CA         -9.3655   39.6600  -30.3940 C.3       2 GLC5        0.0000 
     40 CA         -9.5690   40.7100  -31.9520 C.3       4 GLP5        0.0000 
     41 N         -10.0570   33.9730  -34.8290 N.am      1 SEC2        0.0000 
     42 N          -9.3260   33.5540  -33.3770 N.am      5 SEL2        0.0000 
     43 N         -10.7880   34.3920  -36.2810 N.am      3 SEP2        0.0000 
     44 CA        -10.4883   31.2898  -26.3257 C.3       2 GLC5        0.0000 
     45 CA        -10.0667   28.5322  -26.4277 C.3       2 GLC5        0.0000 
     46 CA        -10.6680   29.9280  -27.4930 C.3       6 GLL5        0.0000 
     47 CA         -8.8750   27.3190  -25.7120 C.3       4 GLP5        0.0000 
     48 CA        -10.5095   32.0585  -27.0650 C.3       2 GLC5        0.0000 
     49 CA        -10.6800   30.9560  -28.4860 C.3       6 GLL5        0.0000 
     50 CA         -9.4640   33.1243  -28.5335 C.3       2 GLC5        0.0000 
     51 CA         -9.4190   31.3310  -29.1990 C.3       6 GLL5        0.0000 
     52 CA         -9.6080   34.6520  -27.2300 C.3       4 GLP5        0.0000 
     53 CA        -13.2497   31.0126  -25.0177 C.3       2 GLC5        0.0000 
     54 CA        -13.0810   30.2160  -27.0660 C.3       6 GLL5        0.0000 
     55 CA        -13.1820   32.1410  -23.3630 C.3       4 GLP5        0.0000 
     56 CA        -15.2007   30.8530  -26.2780 C.3       2 GLC5        0.0000 
     57 CA        -16.7690   31.4020  -25.5680 C.3       4 GLP5        0.0000 
     58 CA         -9.7288   35.4070  -28.9853 C.3       2 GLC5        0.0000 
     59 CA         -8.2058   38.6598  -31.3826 C.3       2 GLC5        0.0000 
     60 CA         -8.8960   37.4920  -29.8060 C.3       6 GLL5        0.0000 
     61 CA         -8.2440   40.2240  -32.5110 C.3       4 GLP5        0.0000 
     62 CA         -9.1523   36.3185  -28.3305 C.3       2 GLC5        0.0000 
@<TRIPOS>BOND
@<TRIPOS>SUBSTRUCTURE
     1 SEC2       24 GROUP        1 X    SEC  0     ROOT SEC X 2
     2 GLC5        1 GROUP        1 X    GLC  0     **** GLC X 6
     3 SEP2       26 GROUP        1 Y    SEP  0     ROOT SEP Y 9
     4 GLP5        3 GROUP        1 Y    GLP  0     **** GLP Y 13
     5 SEL2       25 GROUP        1 Z    SEL  0     ROOT SEL Z 16
     6 GLL5        2 GROUP        1 Z    GLL  0     **** GLL Z 20
@<TRIPOS>SET

