#    Name: 2d3z_FIH_2_ligand
#    Modification time : Tue Mar 25 09:37:40 2014

@<TRIPOS>MOLECULE
2d3z_FIH_2_ligand
   39    41     1     0     0
SMALL
NO_CHARGES


@<TRIPOS>ATOM
      1 C1        -13.1090   31.2420  -28.0560 C.ar      1 FIH3001     0.0000 
      2 C2        -13.0810   30.2160  -27.0660 C.ar      1 FIH3001     0.0000 
      3 C3        -11.8490   29.5630  -26.7940 C.ar      1 FIH3001     0.0000 
      4 C4        -10.6680   29.9280  -27.4930 C.ar      1 FIH3001     0.0000 
      5 C5        -10.6800   30.9560  -28.4860 C.ar      1 FIH3001     0.0000 
      6 C6        -11.9220   31.6100  -28.7580 C.ar      1 FIH3001     0.0000 
      7 C7         -7.0030   31.7310  -29.7420 C.2       1 FIH3001     0.0000 
      8 C8         -7.8300   32.0960  -30.7970 C.2       1 FIH3001     0.0000 
      9 C9         -9.2210   31.8620  -30.4750 C.2       1 FIH3001     0.0000 
     10 C10        -9.4190   31.3310  -29.1990 C.2       1 FIH3001     0.0000 
     11 S11        -7.9030   31.1290  -28.4360 S.3       1 FIH3001     0.0000 
     12 F12       -14.1700   29.8790  -26.4150 F         1 FIH3001     0.0000 
     13 C14        -5.5190   31.8370  -29.7240 C.2       1 FIH3001     0.0000 
     14 O15        -4.9030   31.2050  -28.8370 O.co2     1 FIH3001     0.0000 
     15 O16        -4.9570   32.5540  -30.5790 O.co2     1 FIH3001     0.0000 
     16 N17        -7.3590   32.6440  -32.0730 N.pl3     1 FIH3001     0.0000 
     17 S18        -8.0710   34.0140  -32.7880 S.o2      1 FIH3001     0.0000 
     18 C19        -7.3120   36.1700  -31.1590 C.ar      1 FIH3001     0.0000 
     19 C20        -8.3930   35.3650  -31.6380 C.ar      1 FIH3001     0.0000 
     20 C21        -9.7260   35.6310  -31.1980 C.ar      1 FIH3001     0.0000 
     21 C22        -9.9730   36.6930  -30.2830 C.ar      1 FIH3001     0.0000 
     22 C23        -8.8960   37.4920  -29.8060 C.ar      1 FIH3001     0.0000 
     23 C24        -7.5660   37.2280  -30.2460 C.ar      1 FIH3001     0.0000 
     24 C25        -9.1620   38.6100  -28.8360 C.3       1 FIH3001     0.0000 
     25 O26        -9.3260   33.5540  -33.3770 O.2       1 FIH3001     0.0000 
     26 O27        -7.1290   34.4750  -33.8020 O.2       1 FIH3001     0.0000 
     27 H         -13.9875   31.7189  -28.2654 H         1 FIH3001     0.0000 
     28 H         -11.8125   28.8236  -26.0886 H         1 FIH3001     0.0000 
     29 H          -9.7861   29.4463  -27.2838 H         1 FIH3001     0.0000 
     30 H         -11.9591   32.3481  -29.4622 H         1 FIH3001     0.0000 
     31 H          -9.9335   32.0645  -31.1068 H         1 FIH3001     0.0000 
     32 H          -6.6150   32.2771  -32.6063 H         1 FIH3001     0.0000 
     33 H          -6.3644   35.9815  -31.4744 H         1 FIH3001     0.0000 
     34 H         -10.4950   35.0616  -31.5391 H         1 FIH3001     0.0000 
     35 H         -10.9235   36.8818  -29.9686 H         1 FIH3001     0.0000 
     36 H          -6.7966   37.8015  -29.9031 H         1 FIH3001     0.0000 
     37 H          -8.3215   39.0875  -28.5801 H         1 FIH3001     0.0000 
     38 H          -9.7828   39.2941  -29.2189 H         1 FIH3001     0.0000 
     39 H          -9.5788   38.2767  -27.9903 H         1 FIH3001     0.0000 
@<TRIPOS>BOND
     1    2    1 ar   
     2    6    1 ar   
     3   27    1 1    
     4    3    2 ar   
     5   12    2 1    
     6    4    3 ar   
     7   28    3 1    
     8    5    4 ar   
     9   29    4 1    
    10    6    5 ar   
    11   10    5 1    
    12   30    6 1    
    13    8    7 2    
    14   11    7 1    
    15   13    7 1    
    16    9    8 1    
    17   16    8 1    
    18   10    9 2    
    19   31    9 1    
    20   11   10 1    
    21   14   13 ar   
    22   15   13 ar   
    23   17   16 1    
    24   32   16 1    
    25   19   17 1    
    26   25   17 2    
    27   26   17 2    
    28   19   18 ar   
    29   23   18 ar   
    30   33   18 1    
    31   20   19 ar   
    32   21   20 ar   
    33   34   20 1    
    34   22   21 ar   
    35   35   21 1    
    36   23   22 ar   
    37   24   22 1    
    38   36   23 1    
    39   37   24 1    
    40   38   24 1    
    41   39   24 1    
@<TRIPOS>SUBSTRUCTURE
     1 FIH3001     1 GROUP   
@<TRIPOS>SET

