#    Name: 4bdc_ODH_1_INTS_M
#    Modification time : Tue Mar 25 07:33:31 2014

@<TRIPOS>MOLECULE
4bdc_ODH_1_INTS_M
   53     0     9     0     0
SMALL
NO_CHARGES


@<TRIPOS>ATOM
      1 N         -36.7875   35.4995    4.3630 N.am      2 SEC2        0.0000 
      2 N         -37.0330   35.1300    5.8150 N.am      8 SEL2        0.0000 
      3 N         -36.5420   35.8690    2.9110 N.am      5 SEP2        0.0000 
      4 CA        -38.2270   30.7065    4.3060 C.3       3 GLC5        0.0000 
      5 CA        -39.1900   32.1820    5.5390 C.3       9 GLL5        0.0000 
      6 CA        -37.2640   29.2310    3.0730 C.3       6 GLP5        0.0000 
      7 O         -38.6450   32.4535    2.7530 O.2       1 ALC1        0.0000 
      8 O         -39.7050   31.7190    3.2250 O.2       7 ALL1        0.0000 
      9 O         -37.5850   33.1880    2.2810 O.2       4 ALP1        0.0000 
     10 CA        -38.5095   35.9725    6.6460 C.3       3 GLC5        0.0000 
     11 CA        -37.7670   34.0320    6.1830 C.3       9 GLL5        0.0000 
     12 CA        -39.2520   37.9130    7.1090 C.3       6 GLP5        0.0000 
     13 CA        -34.3660   36.3945    6.7175 C.3       3 GLC5        0.0000 
     14 CA        -36.3470   35.7250    6.7780 C.3       9 GLL5        0.0000 
     15 CA        -32.3850   37.0640    6.6570 C.3       6 GLP5        0.0000 
     16 CA        -36.9275   36.8880    5.0065 C.3       3 GLC5        0.0000 
     17 CA        -37.5080   38.0510    3.2350 C.3       6 GLP5        0.0000 
     18 CA        -35.0990   35.3035    5.3185 C.3       3 GLC5        0.0000 
     19 CA        -33.8510   34.8820    3.8590 C.3       6 GLP5        0.0000 
     20 CA        -36.1930   36.7405    9.5065 C.3       3 GLC5        0.0000 
     21 CA        -36.3720   35.2900    8.0990 C.3       9 GLL5        0.0000 
     22 CA        -36.0140   38.1910   10.9140 C.3       6 GLP5        0.0000 
     23 CA        -36.5680   31.5765    7.2690 C.3       3 GLC5        0.0000 
     24 CA        -38.4890   32.3970    7.8300 C.3       9 GLL5        0.0000 
     25 CA        -34.6470   30.7560    6.7080 C.3       6 GLP5        0.0000 
     26 CA        -41.1430   32.2685    6.9440 C.3       3 GLC5        0.0000 
     27 CA        -39.1730   31.7210    6.8610 C.3       9 GLL5        0.0000 
     28 CA        -43.1130   32.8160    7.0270 C.3       6 GLP5        0.0000 
     29 CA        -38.8805   30.2045    2.6065 C.3       3 GLC5        0.0000 
     30 CA        -40.4970   31.1780    2.1400 C.3       9 GLL5        0.0000 
     31 CA        -43.2305   33.8620    3.0650 C.3       3 GLC5        0.0000 
     32 CA        -42.4430   34.0710    1.3270 C.3       9 GLL5        0.0000 
     33 CA        -44.0180   33.6530    4.8030 C.3       6 GLP5        0.0000 
     34 CA        -40.5920   33.8560    5.6960 C.3       3 GLC5        0.0000 
     35 CA        -38.4920   33.3220    5.1970 C.3       9 GLL5        0.0000 
     36 CA        -42.3430   34.9600    6.0240 C.3       6 GLP5        0.0000 
     37 CA        -39.2503   35.1570    4.6845 C.3       3 GLC5        0.0000 
     38 CA        -40.3710   36.6370    3.6790 C.3       6 GLP5        0.0000 
     39 CA        -36.5172   33.8500    4.4510 C.3       3 GLC5        0.0000 
     40 CA        -34.9050   34.0230    3.2120 C.3       6 GLP5        0.0000 
     41 CA        -35.7853   33.4095    6.9965 C.3       3 GLC5        0.0000 
     42 CA        -33.8000   33.0160    7.1440 C.3       6 GLP5        0.0000 
     43 CA        -37.8058   36.7103    7.2737 C.3       3 GLC5        0.0000 
     44 CA        -35.0797   34.2617    7.2912 C.3       3 GLC5        0.0000 
     45 CA        -39.7256   33.5516    8.3804 C.3       3 GLC5        0.0000 
     46 CA        -37.7740   33.5740    7.5150 C.3       9 GLL5        0.0000 
     47 CA        -40.7990   34.7500    9.4940 C.3       6 GLP5        0.0000 
     48 CA        -39.4678   32.6050    0.6455 C.3       3 GLC5        0.0000 
     49 CA        -38.0640   33.4990   -0.4940 C.3       6 GLP5        0.0000 
     50 CA        -41.6150   35.6547    1.0590 C.3       3 GLC5        0.0000 
     51 CA        -42.2470   33.6840    0.0770 C.3       9 GLL5        0.0000 
     52 CA        -40.8850   37.4320    1.4160 C.3       6 GLP5        0.0000 
     53 CA        -39.9625   33.2955   -0.1940 C.3       3 GLC5        0.0000 
@<TRIPOS>BOND
@<TRIPOS>SUBSTRUCTURE
     1 ALC1        7 GROUP        1 X    ALC  0     ROOT ALC X 1
     2 SEC2        1 GROUP        1 X    SEC  0     **** SEC X 2
     3 GLC5        4 GROUP        1 X    GLC  0     **** GLC X 6
     4 ALP1        9 GROUP        1 Y    ALP  0     ROOT ALP Y 8
     5 SEP2        3 GROUP        1 Y    SEP  0     **** SEP Y 9
     6 GLP5        6 GROUP        1 Y    GLP  0     **** GLP Y 13
     7 ALL1        8 GROUP        1 Z    ALL  0     ROOT ALL Z 15
     8 SEL2        2 GROUP        1 Z    SEL  0     **** SEL Z 16
     9 GLL5        5 GROUP        1 Z    GLL  0     **** GLL Z 20
@<TRIPOS>SET

