#    Name: 4bdc_ODH_1_ligand
#    Modification time : Tue Mar 25 07:33:31 2014

@<TRIPOS>MOLECULE
4bdc_ODH_1_ligand
   30    32     1     0     0
SMALL
NO_CHARGES


@<TRIPOS>ATOM
      1 C         -39.9990   31.4590    4.5050 C.2       1 ODH1513     0.0000 
      2 N         -37.0330   35.1300    5.8150 N.ar      1 ODH1513     0.0000 
      3 O         -41.8420   33.2030    2.1980 O.3       1 ODH1513     0.0000 
      4 C1        -39.1900   32.1820    5.5390 C.ar      1 ODH1513     0.0000 
      5 N1        -37.0670   34.2340    8.4890 N.ar      1 ODH1513     0.0000 
      6 O1        -40.8920   30.6750    4.8320 O.2       1 ODH1513     0.0000 
      7 C2        -38.4920   33.3220    5.1970 C.ar      1 ODH1513     0.0000 
      8 N2        -39.7050   31.7190    3.2250 N.am      1 ODH1513     0.0000 
      9 C3        -37.7670   34.0320    6.1830 C.ar      1 ODH1513     0.0000 
     10 C4        -36.3470   35.7250    6.7780 C.ar      1 ODH1513     0.0000 
     11 C5        -36.3720   35.2900    8.0990 C.ar      1 ODH1513     0.0000 
     12 C6        -37.7740   33.5740    7.5150 C.ar      1 ODH1513     0.0000 
     13 C7        -38.4890   32.3970    7.8300 C.ar      1 ODH1513     0.0000 
     14 C8        -39.1730   31.7210    6.8610 C.ar      1 ODH1513     0.0000 
     15 C9        -40.4970   31.1780    2.1400 C.3       1 ODH1513     0.0000 
     16 C10       -41.2460   32.2440    1.4300 C.2       1 ODH1513     0.0000 
     17 C11       -42.4430   34.0710    1.3270 C.2       1 ODH1513     0.0000 
     18 C12       -42.2470   33.6840    0.0770 C.2       1 ODH1513     0.0000 
     19 C13       -41.4750   32.5000    0.1350 C.2       1 ODH1513     0.0000 
     20 H         -38.4889   33.6681    4.2305 H         1 ODH1513     0.0000 
     21 H         -38.8992   32.3177    2.9549 H         1 ODH1513     0.0000 
     22 H         -35.7457   36.5694    6.5628 H         1 ODH1513     0.0000 
     23 H         -35.8034   35.8448    8.7976 H         1 ODH1513     0.0000 
     24 H         -38.4813   32.0624    8.8070 H         1 ODH1513     0.0000 
     25 H         -39.6917   30.8530    7.0917 H         1 ODH1513     0.0000 
     26 H         -41.2144   30.4295    2.5232 H         1 ODH1513     0.0000 
     27 H         -39.8490   30.6513    1.4158 H         1 ODH1513     0.0000 
     28 H         -42.9441   34.8634    1.6150 H         1 ODH1513     0.0000 
     29 H         -42.5412   34.0814   -0.7318 H         1 ODH1513     0.0000 
     30 H         -41.1946   32.0116   -0.6258 H         1 ODH1513     0.0000 
@<TRIPOS>BOND
     1    4    1 1    
     2    6    1 2    
     3    8    1 am   
     4    9    2 ar   
     5   10    2 ar   
     6   16    3 1    
     7   17    3 1    
     8    7    4 ar   
     9   14    4 ar   
    10   11    5 ar   
    11   12    5 ar   
    12    9    7 ar   
    13   20    7 1    
    14   15    8 1    
    15   21    8 1    
    16   12    9 ar   
    17   11   10 ar   
    18   22   10 1    
    19   23   11 1    
    20   13   12 ar   
    21   14   13 ar   
    22   24   13 1    
    23   25   14 1    
    24   16   15 1    
    25   26   15 1    
    26   27   15 1    
    27   19   16 2    
    28   18   17 2    
    29   28   17 1    
    30   19   18 1    
    31   29   18 1    
    32   30   19 1    
@<TRIPOS>SUBSTRUCTURE
     1 ODH1513     1 GROUP   
@<TRIPOS>SET

