#    Name: 3zj8_LR1_2_INTS_M
#    Modification time : Tue Mar 25 03:28:43 2014

@<TRIPOS>MOLECULE
3zj8_LR1_2_INTS_M
   46     0     9     0     0
SMALL
NO_CHARGES


@<TRIPOS>ATOM
      1 CA        -47.6805  -35.9860   28.3550 C.3       3 GLC5        0.0000 
      2 CA        -46.6930  -35.0620   26.8880 C.3       9 GLL5        0.0000 
      3 CA        -48.6680  -36.9100   29.8220 C.3       6 GLP5        0.0000 
      4 CA        -52.1020  -31.1340   30.0615 C.3       3 GLC5        0.0000 
      5 CA        -50.8720  -30.9270   28.7190 C.3       9 GLL5        0.0000 
      6 CA        -53.3320  -31.3410   31.4040 C.3       6 GLP5        0.0000 
      7 CA        -52.8450  -30.2130   29.8540 C.3       3 GLC5        0.0000 
      8 CA        -52.3580  -29.0850   28.3040 C.3       9 GLL5        0.0000 
      9 CA        -50.7760  -27.2595   26.4395 C.3       3 GLC5        0.0000 
     10 CA        -52.3550  -27.6250   27.7950 C.3       9 GLL5        0.0000 
     11 CA        -49.1970  -26.8940   25.0840 C.3       6 GLP5        0.0000 
     12 O         -53.7235  -26.4585   29.4445 O.2       1 ALC1        0.0000 
     13 O         -52.4340  -26.7030   28.8660 O.2       7 ALL1        0.0000 
     14 O         -55.0130  -26.2140   30.0230 O.2       4 ALP1        0.0000 
     15 CA        -55.3590  -26.7045   26.8900 C.3       3 GLC5        0.0000 
     16 CA        -53.6250  -27.4680   26.9890 C.3       9 GLL5        0.0000 
     17 CA        -57.0930  -25.9410   26.7910 C.3       6 GLP5        0.0000 
     18 N         -53.0005  -26.8010   24.6415 N.am      2 SEC2        0.0000 
     19 N         -53.4300  -26.4480   26.0130 N.am      8 SEL2        0.0000 
     20 N         -52.5710  -27.1540   23.2700 N.am      5 SEP2        0.0000 
     21 O         -54.5345  -25.6230   25.1610 O.2       1 ALC1        0.0000 
     22 O         -53.4300  -26.4480   26.0130 O.2       7 ALL1        0.0000 
     23 O         -55.6390  -24.7980   24.3090 O.2       4 ALP1        0.0000 
     24 CA        -55.5465  -27.9410   27.0305 C.3       3 GLC5        0.0000 
     25 CA        -53.7240  -28.8670   26.4040 C.3       9 GLL5        0.0000 
     26 CA        -57.3690  -27.0150   27.6570 C.3       6 GLP5        0.0000 
     27 CA        -52.9990  -28.5765   24.4690 C.3       3 GLC5        0.0000 
     28 CA        -52.2740  -28.2860   22.5340 C.3       6 GLP5        0.0000 
     29 N         -55.4610  -27.9685   24.6030 N.am      2 SEC2        0.0000 
     30 N         -54.9850  -29.1220   25.8160 N.am      8 SEL2        0.0000 
     31 N         -55.9370  -26.8150   23.3900 N.am      5 SEP2        0.0000 
     32 N         -56.1855  -28.7435   26.6120 N.am      2 SEC2        0.0000 
     33 N         -57.3860  -28.3650   27.4080 N.am      5 SEP2        0.0000 
     34 N         -55.4525  -29.6770   24.6880 N.am      2 SEC2        0.0000 
     35 N         -55.9200  -30.2320   23.5600 N.am      5 SEP2        0.0000 
     36 CA        -55.6880  -29.3180   28.1485 C.3       3 GLC5        0.0000 
     37 CA        -53.6610  -29.6230   27.7240 C.3       9 GLL5        0.0000 
     38 CA        -57.7150  -29.0130   28.5730 C.3       6 GLP5        0.0000 
     39 CA        -54.9680  -32.4510   27.1495 C.3       3 GLC5        0.0000 
     40 CA        -53.6320  -31.1460   27.5310 C.3       9 GLL5        0.0000 
     41 CA        -56.3040  -33.7560   26.7680 C.3       6 GLP5        0.0000 
     42 CA        -47.2765  -30.5592   27.0523 C.3       3 GLC5        0.0000 
     43 CA        -48.5700  -31.5720   28.3370 C.3       9 GLL5        0.0000 
     44 CA        -46.4580  -29.0790   25.9760 C.3       6 GLP5        0.0000 
     45 CA        -54.1607  -30.8432   29.4013 C.3       3 GLC5        0.0000 
     46 CA        -54.6750  -31.3020   31.1750 C.3       6 GLP5        0.0000 
@<TRIPOS>BOND
@<TRIPOS>SUBSTRUCTURE
     1 ALC1       12 GROUP        1 X    ALC  0     ROOT ALC X 1
     2 SEC2       18 GROUP        1 X    SEC  0     **** SEC X 2
     3 GLC5        1 GROUP        1 X    GLC  0     **** GLC X 6
     4 ALP1       14 GROUP        1 Y    ALP  0     ROOT ALP Y 8
     5 SEP2       20 GROUP        1 Y    SEP  0     **** SEP Y 9
     6 GLP5        3 GROUP        1 Y    GLP  0     **** GLP Y 13
     7 ALL1       13 GROUP        1 Z    ALL  0     ROOT ALL Z 15
     8 SEL2       19 GROUP        1 Z    SEL  0     **** SEL Z 16
     9 GLL5        2 GROUP        1 Z    GLL  0     **** GLL Z 20
@<TRIPOS>SET

