#    Name: 3zj8_LR1_2_ligand
#    Modification time : Tue Mar 25 03:28:43 2014

@<TRIPOS>MOLECULE
3zj8_LR1_2_ligand
   36    37     1     0     0
SMALL
NO_CHARGES


@<TRIPOS>ATOM
      1 CAH       -50.3660  -33.1340   27.8290 C.ar      1 LR11001     0.0000 
      2 CAF       -49.4070  -34.0640   27.4010 C.ar      1 LR11001     0.0000 
      3 CAM       -48.0350  -33.7550   27.4480 C.ar      1 LR11001     0.0000 
      4 BR        -46.6930  -35.0620   26.8880 Br        1 LR11001     0.0000 
      5 CAG       -47.6200  -32.5070   27.9200 C.ar      1 LR11001     0.0000 
      6 CAI       -48.5700  -31.5720   28.3370 C.ar      1 LR11001     0.0000 
      7 CAN       -49.9360  -31.8730   28.2790 C.ar      1 LR11001     0.0000 
      8 CAK       -50.8720  -30.9270   28.7190 C.3       1 LR11001     0.0000 
      9 NAL       -51.1850  -29.8240   27.7950 N.4       1 LR11001     0.0000 
     10 CAS       -52.3580  -29.0850   28.3040 C.3       1 LR11001     0.0000 
     11 CAQ       -52.3550  -27.6250   27.7950 C.3       1 LR11001     0.0000 
     12 OAD       -52.4340  -26.7030   28.8660 O.3       1 LR11001     0.0000 
     13 CAO       -53.6250  -27.4680   26.9890 C.3       1 LR11001     0.0000 
     14 OAB       -53.4300  -26.4480   26.0130 O.3       1 LR11001     0.0000 
     15 CAP       -53.7240  -28.8670   26.4040 C.3       1 LR11001     0.0000 
     16 OAC       -54.9850  -29.1220   25.8160 O.3       1 LR11001     0.0000 
     17 CAR       -53.6610  -29.6230   27.7240 C.3       1 LR11001     0.0000 
     18 CAJ       -53.6320  -31.1460   27.5310 C.3       1 LR11001     0.0000 
     19 OAA       -53.7470  -31.4680   26.1530 O.3       1 LR11001     0.0000 
     20 H         -51.3548  -33.3660   27.8147 H         1 LR11001     0.0000 
     21 H         -49.7080  -34.9823   27.0487 H         1 LR11001     0.0000 
     22 H         -46.6219  -32.2788   27.9599 H         1 LR11001     0.0000 
     23 H         -48.2651  -30.6545   28.6898 H         1 LR11001     0.0000 
     24 H         -50.5419  -30.4695   29.7038 H         1 LR11001     0.0000 
     25 H         -51.8492  -31.4337   28.9958 H         1 LR11001     0.0000 
     26 H         -52.4244  -29.0702   29.3501 H         1 LR11001     0.0000 
     27 H         -51.5286  -27.4807   27.1646 H         1 LR11001     0.0000 
     28 H         -54.4165  -27.3143   27.6520 H         1 LR11001     0.0000 
     29 H         -52.8900  -29.0822   25.8585 H         1 LR11001     0.0000 
     30 H         -54.4604  -29.3165   28.3350 H         1 LR11001     0.0000 
     31 H         -54.4555  -31.5677   28.1230 H         1 LR11001     0.0000 
     32 H         -52.6916  -31.5138   27.9632 H         1 LR11001     0.0000 
     33 H         -53.4121  -26.5992   29.0464 H         1 LR11001     0.0000 
     34 H         -54.3514  -26.1756   25.7358 H         1 LR11001     0.0000 
     35 H         -55.2028  -28.2928   25.3012 H         1 LR11001     0.0000 
     36 H         -54.2153  -30.6855   25.7427 H         1 LR11001     0.0000 
@<TRIPOS>BOND
     1    2    1 ar   
     2    7    1 ar   
     3   20    1 1    
     4    3    2 ar   
     5   21    2 1    
     6    4    3 1    
     7    5    3 ar   
     8    6    5 ar   
     9   22    5 1    
    10    7    6 ar   
    11   23    6 1    
    12    8    7 1    
    13    9    8 1    
    14   24    8 1    
    15   25    8 1    
    16   10    9 1    
    17   11   10 1    
    18   17   10 1    
    19   26   10 1    
    20   12   11 1    
    21   13   11 1    
    22   27   11 1    
    23   33   12 1    
    24   14   13 1    
    25   15   13 1    
    26   28   13 1    
    27   34   14 1    
    28   16   15 1    
    29   17   15 1    
    30   29   15 1    
    31   35   16 1    
    32   18   17 1    
    33   30   17 1    
    34   19   18 1    
    35   31   18 1    
    36   32   18 1    
    37   36   19 1    
@<TRIPOS>SUBSTRUCTURE
     1 LR11001     1 GROUP   
@<TRIPOS>SET

