#    Name: 2hk5_1BM_1_INTS_M
#    Modification time : Tue Mar 25 16:37:28 2014

@<TRIPOS>MOLECULE
2hk5_1BM_1_INTS_M
   83     0     9     0     0
SMALL
NO_CHARGES


@<TRIPOS>ATOM
      1 N          51.6530    7.6010    1.9245 N.am      2 SEC2        0.0000 
      2 N          50.8600    8.9450    2.0930 N.am      8 SEL2        0.0000 
      3 N          52.4460    6.2570    1.7560 N.am      5 SEP2        0.0000 
      4 O          50.7235    8.6110    3.3975 O.2       1 ALC1        0.0000 
      5 O          50.8600    8.9450    2.0930 O.2       7 ALL1        0.0000 
      6 O          50.5870    8.2770    4.7020 O.2       4 ALP1        0.0000 
      7 CA         47.4110    9.3885    2.8485 C.3       3 GLC5        0.0000 
      8 CA         49.1740   10.5830    2.5600 C.3       9 GLL5        0.0000 
      9 CA         45.6480    8.1940    3.1370 C.3       6 GLP5        0.0000 
     10 CA         50.7400   11.3970    3.3305 C.3       3 GLC5        0.0000 
     11 CA         52.3060   12.2110    4.1010 C.3       6 GLP5        0.0000 
     12 CA         46.6585   10.5115    2.7720 C.3       3 GLC5        0.0000 
     13 CA         48.2310   11.4750    2.0540 C.3       9 GLL5        0.0000 
     14 CA         45.0860    9.5480    3.4900 C.3       6 GLP5        0.0000 
     15 CA         45.2705   13.7315   -0.5940 C.3       3 GLC5        0.0000 
     16 CA         47.0630   12.5630    0.0980 C.3       9 GLL5        0.0000 
     17 CA         43.4780   14.9000   -1.2860 C.3       6 GLP5        0.0000 
     18 CA         51.3865   10.9175   -0.9390 C.3       3 GLC5        0.0000 
     19 CA         49.7910    9.9970    0.3110 C.3       9 GLL5        0.0000 
     20 CA         52.9820   11.8380   -2.1890 C.3       6 GLP5        0.0000 
     21 CA         51.2430    8.4575   -0.3360 C.3       3 GLC5        0.0000 
     22 CA         52.6950    6.9180   -0.9830 C.3       6 GLP5        0.0000 
     23 O          49.1205   12.4365   -1.8900 O.2       1 ALC1        0.0000 
     24 O          48.7100   10.9980   -1.5470 O.2       7 ALL1        0.0000 
     25 O          49.5310   13.8750   -2.2330 O.2       4 ALP1        0.0000 
     26 CA         47.3840   11.8830   -3.3475 C.3       3 GLC5        0.0000 
     27 CA         48.1220   10.0520   -2.3110 C.3       9 GLL5        0.0000 
     28 CA         46.6460   13.7140   -4.3840 C.3       6 GLP5        0.0000 
     29 CA         45.6665    9.4275   -2.5680 C.3       3 GLC5        0.0000 
     30 CA         47.6200    8.8480   -1.8150 C.3       9 GLL5        0.0000 
     31 CA         43.7130   10.0070   -3.3210 C.3       6 GLP5        0.0000 
     32 CA         45.1420    8.1130   -2.1100 C.3       3 GLC5        0.0000 
     33 CA         47.0360    7.9120   -2.6660 C.3       9 GLL5        0.0000 
     34 CA         43.2480    8.3140   -1.5540 C.3       6 GLP5        0.0000 
     35 CA         44.8805    7.2860   -1.2120 C.3       3 GLC5        0.0000 
     36 CA         46.5130    6.2580   -0.8700 C.3       9 GLL5        0.0000 
     37 CA         50.5390    6.1890   -3.7445 C.3       3 GLC5        0.0000 
     38 CA         49.8750    4.9660   -2.4050 C.3       9 GLL5        0.0000 
     39 CA         51.2030    7.4120   -5.0840 C.3       6 GLP5        0.0000 
     40 CA         51.2850    5.9420   -1.6940 C.3       3 GLC5        0.0000 
     41 CA         45.5690    9.6985   -3.8805 C.3       3 GLC5        0.0000 
     42 CA         47.4250    9.3900   -4.4400 C.3       9 GLL5        0.0000 
     43 CA         47.0355   11.5520   -4.4120 C.3       3 GLC5        0.0000 
     44 CA         49.1250    9.0250   -4.3730 C.3       3 GLC5        0.0000 
     45 CA         50.8250    8.6600   -4.3060 C.3       6 GLP5        0.0000 
     46 CA         48.9330   10.8030   -8.6210 C.3       3 GLC5        0.0000 
     47 CA         46.9940    9.9570   -7.9950 C.3       9 GLL5        0.0000 
     48 CA         50.8720   11.6490   -9.2470 C.3       6 GLP5        0.0000 
     49 N          48.8555   11.8210   -8.1450 N.am      2 SEC2        0.0000 
     50 N          47.7500   11.0340   -7.6980 N.am      8 SEL2        0.0000 
     51 N          49.9610   12.6080   -8.5920 N.am      5 SEP2        0.0000 
     52 CA         43.9340    9.2990   -9.3520 C.3       3 GLC5        0.0000 
     53 CA         45.7160    8.4790   -9.3500 C.3       9 GLL5        0.0000 
     54 CA         42.1520   10.1190   -9.3540 C.3       6 GLP5        0.0000 
     55 CA         43.6820    8.3685   -7.6695 C.3       3 GLC5        0.0000 
     56 CA         45.4430    7.6880   -8.2310 C.3       9 GLL5        0.0000 
     57 CA         41.9210    9.0490   -7.1080 C.3       6 GLP5        0.0000 
     58 CA         51.2605   11.3068    1.6720 C.3       3 GLC5        0.0000 
     59 CA         52.6470   12.6980    2.3480 C.3       6 GLP5        0.0000 
     60 CA         48.3642   12.8695    3.0980 C.3       3 GLC5        0.0000 
     61 CA         48.0260   14.7100    3.8890 C.3       6 GLP5        0.0000 
     62 CA         45.9188   11.7018    1.1410 C.3       3 GLC5        0.0000 
     63 CA         48.0640   11.6020    0.6760 C.3       9 GLL5        0.0000 
     64 CA         44.2740   11.3210    1.8950 C.3       6 GLP5        0.0000 
     65 CA         47.7948   13.3963    2.1380 C.3       3 GLC5        0.0000 
     66 CA         48.8866   13.0974    0.3612 C.3       3 GLC5        0.0000 
     67 CA         50.1680   14.1440   -0.0090 C.3       6 GLP5        0.0000 
     68 CA         49.7437   12.2897    0.0220 C.3       3 GLC5        0.0000 
     69 CA         48.8480   10.8740   -0.2050 C.3       9 GLL5        0.0000 
     70 CA         49.1393    8.6705   -3.3352 C.3       3 GLC5        0.0000 
     71 CA         50.7957    3.3675   -1.9598 C.3       3 GLC5        0.0000 
     72 CA         52.3840    2.1110   -1.6030 C.3       6 GLP5        0.0000 
     73 CA         44.8717    9.8155   -7.1410 C.3       3 GLC5        0.0000 
     74 CA         45.9370    8.0330   -6.9750 C.3       9 GLL5        0.0000 
     75 CA         43.4120   11.0270   -7.3520 C.3       6 GLP5        0.0000 
     76 CA         47.4472    7.4610   -8.3040 C.3       3 GLC5        0.0000 
     77 CA         46.7260    9.1750   -6.8850 C.3       9 GLL5        0.0000 
     78 CA         48.5630    6.3180   -9.6780 C.3       6 GLP5        0.0000 
     79 CA         48.1538    7.7585   -6.3675 C.3       3 GLC5        0.0000 
     80 CA         49.9760    6.9130   -5.8050 C.3       6 GLP5        0.0000 
     81 CA         45.0785   10.4100   -7.9868 C.3       3 GLC5        0.0000 
     82 CA         47.6540    8.0555   -9.1498 C.3       3 GLC5        0.0000 
     83 CA         47.0712    7.2007   -9.2342 C.3       3 GLC5        0.0000 
@<TRIPOS>BOND
@<TRIPOS>SUBSTRUCTURE
     1 ALC1        4 GROUP        1 X    ALC  0     ROOT ALC X 1
     2 SEC2        1 GROUP        1 X    SEC  0     **** SEC X 2
     3 GLC5        7 GROUP        1 X    GLC  0     **** GLC X 6
     4 ALP1        6 GROUP        1 Y    ALP  0     ROOT ALP Y 8
     5 SEP2        3 GROUP        1 Y    SEP  0     **** SEP Y 9
     6 GLP5        9 GROUP        1 Y    GLP  0     **** GLP Y 13
     7 ALL1        5 GROUP        1 Z    ALL  0     ROOT ALL Z 15
     8 SEL2        2 GROUP        1 Z    SEL  0     **** SEL Z 16
     9 GLL5        8 GROUP        1 Z    GLL  0     **** GLL Z 20
@<TRIPOS>SET

