#    Name: 2hk5_1BM_1_ligand
#    Modification time : Tue Mar 25 16:37:28 2014

@<TRIPOS>MOLECULE
2hk5_1BM_1_ligand
   62    65     1     0     0
SMALL
NO_CHARGES


@<TRIPOS>ATOM
      1 O21        50.8600    8.9450    2.0930 O.3       1 1BM499      0.0000 
      2 C17        49.9570    9.8340    1.6810 C.ar      1 1BM499      0.0000 
      3 C13        49.1740   10.5830    2.5600 C.ar      1 1BM499      0.0000 
      4 C16        48.2310   11.4750    2.0540 C.ar      1 1BM499      0.0000 
      5 C15        48.0640   11.6020    0.6760 C.ar      1 1BM499      0.0000 
      6 C19        47.0630   12.5630    0.0980 C.3       1 1BM499      0.0000 
      7 C14        49.7910    9.9970    0.3110 C.ar      1 1BM499      0.0000 
      8 C11        48.8480   10.8740   -0.2050 C.ar      1 1BM499      0.0000 
      9 N3         48.7100   10.9980   -1.5470 N.pl3     1 1BM499      0.0000 
     10 C2         48.1220   10.0520   -2.3110 C.ar      1 1BM499      0.0000 
     11 N1         48.0070   10.3040   -3.6290 N.ar      1 1BM499      0.0000 
     12 C9         47.6200    8.8480   -1.8150 C.ar      1 1BM499      0.0000 
     13 C8         47.0360    7.9120   -2.6660 C.ar      1 1BM499      0.0000 
     14 N10        46.5400    6.7210   -2.2460 N.pl3     1 1BM499      0.0000 
     15 C27        46.5130    6.2580   -0.8700 C.3       1 1BM499      0.0000 
     16 C30        47.8170    5.7050   -0.2950 C.3       1 1BM499      0.0000 
     17 N34        48.0730    4.3820   -0.8520 N.4       1 1BM499      0.0000 
     18 C36        47.8700    3.2180    0.0070 C.3       1 1BM499      0.0000 
     19 C42        47.7360    1.9020   -0.7310 C.3       1 1BM499      0.0000 
     20 C35        48.5400    4.2820   -2.2280 C.3       1 1BM499      0.0000 
     21 C38        49.8750    4.9660   -2.4050 C.3       1 1BM499      0.0000 
     22 N6         46.9420    8.2130   -3.9820 N.ar      1 1BM499      0.0000 
     23 C5         47.4250    9.3900   -4.4400 C.ar      1 1BM499      0.0000 
     24 N7         47.3700    9.7520   -5.7880 N.pl3     1 1BM499      0.0000 
     25 C49        46.7260    9.1750   -6.8850 C.ar      1 1BM499      0.0000 
     26 C54        45.9370    8.0330   -6.9750 C.ar      1 1BM499      0.0000 
     27 C53        46.9940    9.9570   -7.9950 C.ar      1 1BM499      0.0000 
     28 N51        47.7500   11.0340   -7.6980 N.2       1 1BM499      0.0000 
     29 C50        48.0310   10.9430   -6.2840 C.2       1 1BM499      0.0000 
     30 C55        46.4960    9.6290   -9.2480 C.ar      1 1BM499      0.0000 
     31 C56        45.7160    8.4790   -9.3500 C.ar      1 1BM499      0.0000 
     32 C58        45.4430    7.6880   -8.2310 C.ar      1 1BM499      0.0000 
     33 H          49.2926   10.4769    3.5722 H         1 1BM499      0.0000 
     34 H          47.6598   12.0381    2.6948 H         1 1BM499      0.0000 
     35 H          50.3871    9.4493   -0.3408 H         1 1BM499      0.0000 
     36 H          49.0792   11.8740   -2.0150 H         1 1BM499      0.0000 
     37 H          47.6827    8.6490   -0.8031 H         1 1BM499      0.0000 
     38 H          46.1284    6.0439   -2.9554 H         1 1BM499      0.0000 
     39 H          45.7283    5.4619   -0.7428 H         1 1BM499      0.0000 
     40 H          46.1720    7.0852   -0.1879 H         1 1BM499      0.0000 
     41 H          47.7203    5.6618    0.7912 H         1 1BM499      0.0000 
     42 H          48.6218    6.3986   -0.5446 H         1 1BM499      0.0000 
     43 H          46.7041    4.3097   -1.2949 H         1 1BM499      0.0000 
     44 H          46.9583    3.3569    0.6330 H         1 1BM499      0.0000 
     45 H          48.7121    3.1234    0.7310 H         1 1BM499      0.0000 
     46 H          47.8171    4.7442   -2.9176 H         1 1BM499      0.0000 
     47 H          48.6460    3.2277   -2.5260 H         1 1BM499      0.0000 
     48 H          45.7291    7.4732   -6.1594 H         1 1BM499      0.0000 
     49 H          48.5358   11.5307   -5.7874 H         1 1BM499      0.0000 
     50 H          46.6904   10.2014  -10.0584 H         1 1BM499      0.0000 
     51 H          45.3310    8.2041  -10.2707 H         1 1BM499      0.0000 
     52 H          44.8676    6.8373   -8.3384 H         1 1BM499      0.0000 
     53 H          47.2566   13.5068    0.3660 H         1 1BM499      0.0000 
     54 H          47.0579   12.5373   -0.9017 H         1 1BM499      0.0000 
     55 H          46.1326   12.3572    0.4013 H         1 1BM499      0.0000 
     56 H          48.5510    1.6950   -1.2722 H         1 1BM499      0.0000 
     57 H          47.5990    1.1361   -0.1027 H         1 1BM499      0.0000 
     58 H          46.9594    1.9069   -1.3609 H         1 1BM499      0.0000 
     59 H          50.5800    4.5608   -1.8229 H         1 1BM499      0.0000 
     60 H          50.2020    4.9038   -3.3480 H         1 1BM499      0.0000 
     61 H          49.8277    5.9380   -2.1747 H         1 1BM499      0.0000 
     62 H          50.6590    8.8022    3.0621 H         1 1BM499      0.0000 
@<TRIPOS>BOND
     1    2    1 1    
     2   62    1 1    
     3    3    2 ar   
     4    7    2 ar   
     5    4    3 ar   
     6   33    3 1    
     7    5    4 ar   
     8   34    4 1    
     9    6    5 1    
    10    8    5 ar   
    11   53    6 1    
    12   54    6 1    
    13   55    6 1    
    14    8    7 ar   
    15   35    7 1    
    16    9    8 1    
    17   10    9 1    
    18   36    9 1    
    19   11   10 ar   
    20   12   10 ar   
    21   23   11 ar   
    22   13   12 ar   
    23   37   12 1    
    24   14   13 1    
    25   22   13 ar   
    26   15   14 1    
    27   38   14 1    
    28   16   15 1    
    29   39   15 1    
    30   40   15 1    
    31   17   16 1    
    32   41   16 1    
    33   42   16 1    
    34   18   17 1    
    35   20   17 1    
    36   43   17 1    
    37   19   18 1    
    38   44   18 1    
    39   45   18 1    
    40   56   19 1    
    41   57   19 1    
    42   58   19 1    
    43   21   20 1    
    44   46   20 1    
    45   47   20 1    
    46   59   21 1    
    47   60   21 1    
    48   61   21 1    
    49   23   22 ar   
    50   24   23 1    
    51   25   24 1    
    52   29   24 1    
    53   26   25 ar   
    54   27   25 ar   
    55   32   26 ar   
    56   48   26 1    
    57   28   27 1    
    58   30   27 ar   
    59   29   28 2    
    60   49   29 1    
    61   31   30 ar   
    62   50   30 1    
    63   32   31 ar   
    64   51   31 1    
    65   52   32 1    
@<TRIPOS>SUBSTRUCTURE
     1 1BM499      1 GROUP   
@<TRIPOS>SET

