#    Name: 2nad_NAD_1_INTS_M
#    Modification time : Tue Mar 25 21:19:30 2014

@<TRIPOS>MOLECULE
2nad_NAD_1_INTS_M
  103     0    12     0     0
SMALL
NO_CHARGES


@<TRIPOS>ATOM
      1 N          51.2150   36.1520  -10.3935 N.am      2 SEC2        0.0000 
      2 N          51.4590   36.2390   -9.0540 N.am     10 SEL2        0.0000 
      3 N          50.9710   36.0650  -11.7330 N.am      6 SEP2        0.0000 
      4 NZ         53.3780   34.4920   -7.8425 N.4       3 LYC4        0.0000 
      5 NZ         52.0730   34.4130   -7.2850 N.4      11 LYL4        0.0000 
      6 NZ         55.7530   33.9740   -7.8820 N.4       7 LYP4        0.0000 
      7 N          51.6430   33.2935   -6.3300 N.am      2 SEC2        0.0000 
      8 N          52.0730   34.4130   -7.2850 N.am     10 SEL2        0.0000 
      9 N          51.2130   32.1740   -5.3750 N.am      6 SEP2        0.0000 
     10 N          53.3780   34.4920   -7.8425 N.am      2 SEC2        0.0000 
     11 N          54.6830   34.5710   -8.4000 N.am      6 SEP2        0.0000 
     12 CA         49.4925   36.3740  -10.3735 C.3       4 GLC5        0.0000 
     13 CA         48.6800   35.5050   -8.6020 C.3      12 GLL5        0.0000 
     14 CA         50.3050   37.2430  -12.1450 C.3       8 GLP5        0.0000 
     15 CA         46.1380   33.8385   -8.5260 C.3       4 GLC5        0.0000 
     16 CA         47.8910   34.3400   -9.1130 C.3      12 GLL5        0.0000 
     17 CA         44.3850   33.3370   -7.9390 C.3       8 GLP5        0.0000 
     18 O          47.1470   31.6785  -11.0930 O.2       1 ALC1        0.0000 
     19 O          48.3810   32.2250  -10.1140 O.2       9 ALL1        0.0000 
     20 O          45.9130   31.1320  -12.0720 O.2       5 ALP1        0.0000 
     21 O          47.2140   31.5650  -10.0350 O.2       1 ALC1        0.0000 
     22 O          46.0470   30.9050   -9.9560 O.2       5 ALP1        0.0000 
     23 CA         48.3250   32.9405  -13.3260 C.3       4 GLC5        0.0000 
     24 CA         47.7450   34.0830  -11.5840 C.3      12 GLL5        0.0000 
     25 CA         48.9050   31.7980  -15.0680 C.3       8 GLP5        0.0000 
     26 O          46.7475   32.1460  -12.3125 O.2       1 ALC1        0.0000 
     27 O          47.5820   33.1600  -12.5530 O.2       9 ALL1        0.0000 
     28 CA         45.3955   33.8145   -9.3865 C.3       4 GLC5        0.0000 
     29 CA         46.4060   34.2920  -10.8340 C.3      12 GLL5        0.0000 
     30 CA         46.2280   36.2720  -10.1675 C.3       4 GLC5        0.0000 
     31 CA         46.0500   38.2520   -9.5010 C.3       8 GLP5        0.0000 
     32 N          44.7840   38.1510  -13.4830 N.am      2 SEC2        0.0000 
     33 N          44.7170   36.6020  -13.1230 N.am     10 SEL2        0.0000 
     34 N          44.8510   39.7000  -13.8430 N.am      6 SEP2        0.0000 
     35 O          42.2455   37.2615  -15.4595 O.2       1 ALC1        0.0000 
     36 O          41.8550   36.7840  -14.1100 O.2       9 ALL1        0.0000 
     37 O          42.6360   37.7390  -16.8090 O.2       5 ALP1        0.0000 
     38 CA         40.8165   34.2210   -9.9795 C.3       4 GLC5        0.0000 
     39 CA         41.9280   34.0680  -11.6700 C.3      12 GLL5        0.0000 
     40 CA         39.7050   34.3740   -8.2890 C.3       8 GLP5        0.0000 
     41 CA         42.4865   32.1390  -11.6205 C.3       4 GLC5        0.0000 
     42 CA         43.0450   30.2100  -11.5710 C.3       8 GLP5        0.0000 
     43 CA         42.5920   35.5190  -10.1010 C.3       4 GLC5        0.0000 
     44 CA         43.2560   36.9700   -8.5320 C.3       8 GLP5        0.0000 
     45 CA         44.2515   34.1070   -9.8765 C.3       4 GLC5        0.0000 
     46 CA         44.1180   34.8770  -11.8140 C.3      12 GLL5        0.0000 
     47 N          50.1295   34.1750   -3.8960 N.am      2 SEC2        0.0000 
     48 N          50.0030   35.2150   -4.9610 N.am     10 SEL2        0.0000 
     49 N          50.2560   33.1350   -2.8310 N.am      6 SEP2        0.0000 
     50 N          52.9005   36.2035   -3.1665 N.am      2 SEC2        0.0000 
     51 N          52.1240   36.5100   -4.3130 N.am     10 SEL2        0.0000 
     52 N          53.6770   35.8970   -2.0200 N.am      6 SEP2        0.0000 
     53 CA         47.0060   39.8645   -6.9105 C.3       4 GLC5        0.0000 
     54 CA         48.0930   39.2410   -5.2110 C.3      12 GLL5        0.0000 
     55 CA         45.9190   40.4880   -8.6100 C.3       8 GLP5        0.0000 
     56 O          47.4190   42.8225   -6.5315 O.2       1 ALC1        0.0000 
     57 O          47.4100   42.1680   -5.1960 O.2       9 ALL1        0.0000 
     58 O          47.4280   43.4770   -7.8670 O.2       5 ALP1        0.0000 
     59 CA         48.6085   38.9425   -2.4205 C.3       4 GLC5        0.0000 
     60 CA         47.8650   40.7600   -3.3390 C.3      12 GLL5        0.0000 
     61 CA         49.3520   37.1250   -1.5020 C.3       8 GLP5        0.0000 
     62 CA         46.0400   40.7470   -2.8595 C.3       4 GLC5        0.0000 
     63 CA         44.2150   40.7340   -2.3800 C.3       8 GLP5        0.0000 
     64 CA         46.2020   41.1555   -1.6885 C.3       4 GLC5        0.0000 
     65 CA         48.1890   41.5770   -0.9970 C.3      12 GLL5        0.0000 
     66 N          48.7875   43.9640    1.8560 N.am      2 SEC2        0.0000 
     67 N          49.6040   42.6290    2.0470 N.am     10 SEL2        0.0000 
     68 N          47.9710   45.2990    1.6650 N.am      6 SEP2        0.0000 
     69 O          46.3010   41.4675    0.9555 O.2       1 ALC1        0.0000 
     70 O          47.2230   42.1960    1.7730 O.2       9 ALL1        0.0000 
     71 O          45.3790   40.7390    0.1380 O.2       5 ALP1        0.0000 
     72 O          45.9395   42.3580    2.6425 O.2       1 ALC1        0.0000 
     73 O          44.6560   42.5200    3.5120 O.2       5 ALP1        0.0000 
     74 O          46.8040   42.5970    3.2280 O.2       1 ALC1        0.0000 
     75 O          46.3850   42.9980    4.6830 O.2       5 ALP1        0.0000 
     76 CA         52.1720   41.0940   -2.3460 C.3       4 GLC5        0.0000 
     77 CA         50.8980   40.7540   -1.1380 C.3      12 GLL5        0.0000 
     78 CA         53.4460   41.4340   -3.5540 C.3       8 GLP5        0.0000 
     79 CA         51.3195   40.6385   -3.3940 C.3       4 GLC5        0.0000 
     80 CA         50.0430   40.5730   -2.2200 C.3      12 GLL5        0.0000 
     81 CA         52.5960   40.7040   -4.5680 C.3       8 GLP5        0.0000 
     82 CA         47.1677   36.5873   -9.1792 C.3       4 GLC5        0.0000 
     83 CA         48.9551   32.9201   -8.2756 C.3       4 GLC5        0.0000 
     84 CA         49.4820   31.5540   -6.9360 C.3       8 GLP5        0.0000 
     85 CA         49.2315   35.5547  -11.5617 C.3       4 GLC5        0.0000 
     86 CA         48.5710   33.6500  -10.3730 C.3      12 GLL5        0.0000 
     87 CA         43.5782   36.1685  -10.4032 C.3       4 GLC5        0.0000 
     88 CA         43.6830   35.8570  -12.7350 C.3      12 GLL5        0.0000 
     89 CA         42.0857   37.5373  -12.3677 C.3       4 GLC5        0.0000 
     90 CA         41.1850   39.1940  -11.7600 C.3       8 GLP5        0.0000 
     91 CA         44.1736   34.1044  -13.8349 C.3       4 GLC5        0.0000 
     92 CA         44.7950   32.8300  -15.2750 C.3       8 GLP5        0.0000 
     93 CA         48.8505   37.8427   -3.3960 C.3       4 GLC5        0.0000 
     94 CA         48.6050   37.8800   -5.3690 C.3      12 GLL5        0.0000 
     95 CA         50.6995   40.8535   -4.7617 C.3       4 GLC5        0.0000 
     96 CA         49.1330   40.4340   -5.3550 C.3      12 GLL5        0.0000 
     97 CA         49.8700   42.6105   -5.5418 C.3       4 GLC5        0.0000 
     98 CA         50.9370   44.2180   -6.1280 C.3       8 GLP5        0.0000 
     99 CA         49.2987   40.3512    0.8055 C.3       4 GLC5        0.0000 
    100 CA         49.9550   39.0460    2.1020 C.3       8 GLP5        0.0000 
    101 CA         50.3235   40.0530    0.7850 C.3       4 GLC5        0.0000 
    102 CA         50.4860   41.3660    0.0740 C.3      12 GLL5        0.0000 
    103 CA         49.9112   38.8942   -1.5905 C.3       4 GLC5        0.0000 
@<TRIPOS>BOND
@<TRIPOS>SUBSTRUCTURE
     1 ALC1       18 GROUP        1 X    ALC  0     ROOT ALC X 1
     2 SEC2        1 GROUP        1 X    SEC  0     **** SEC X 2
     3 LYC4        4 GROUP        1 X    LYC  0     **** LYC X 4
     4 GLC5       12 GROUP        1 X    GLC  0     **** GLC X 6
     5 ALP1       20 GROUP        1 Y    ALP  0     ROOT ALP Y 8
     6 SEP2        3 GROUP        1 Y    SEP  0     **** SEP Y 9
     7 LYP4        6 GROUP        1 Y    LYP  0     **** LYP Y 11
     8 GLP5       14 GROUP        1 Y    GLP  0     **** GLP Y 13
     9 ALL1       19 GROUP        1 Z    ALL  0     ROOT ALL Z 15
    10 SEL2        2 GROUP        1 Z    SEL  0     **** SEL Z 16
    11 LYL4        5 GROUP        1 Z    LYL  0     **** LYL Z 18
    12 GLL5       13 GROUP        1 Z    GLL  0     **** GLL Z 20
@<TRIPOS>SET

