#    Name: 2nad_NAD_1_ligand
#    Modification time : Tue Mar 25 21:19:30 2014

@<TRIPOS>MOLECULE
2nad_NAD_1_ligand
   70    74     1     0     0
SMALL
NO_CHARGES


@<TRIPOS>ATOM
      1 PA         51.1940   35.4700   -7.7570 P.3       1 NAD394      0.0000 
      2 O1A        51.4590   36.2390   -9.0540 O.co2     1 NAD394      0.0000 
      3 O2A        52.0730   34.4130   -7.2850 O.co2     1 NAD394      0.0000 
      4 O5B        49.7030   34.9660   -7.6840 O.3       1 NAD394      0.0000 
      5 C5B        48.6800   35.5050   -8.6020 C.3       1 NAD394      0.0000 
      6 C4B        47.8910   34.3400   -9.1130 C.3       1 NAD394      0.0000 
      7 O4B        46.6890   34.9800   -9.6870 O.3       1 NAD394      0.0000 
      8 C3B        48.5710   33.6500  -10.3730 C.3       1 NAD394      0.0000 
      9 O3B        48.3810   32.2250  -10.1140 O.3       1 NAD394      0.0000 
     10 C2B        47.7450   34.0830  -11.5840 C.3       1 NAD394      0.0000 
     11 O2B        47.5820   33.1600  -12.5530 O.3       1 NAD394      0.0000 
     12 C1B        46.4060   34.2920  -10.8340 C.3       1 NAD394      0.0000 
     13 N9A        45.5000   35.0380  -11.6520 N.pl3     1 NAD394      0.0000 
     14 C8A        45.7560   36.1050  -12.4840 C.2       1 NAD394      0.0000 
     15 N7A        44.7170   36.6020  -13.1230 N.2       1 NAD394      0.0000 
     16 C5A        43.6830   35.8570  -12.7350 C.ar      1 NAD394      0.0000 
     17 C6A        42.2900   35.9040  -13.2160 C.ar      1 NAD394      0.0000 
     18 N6A        41.8550   36.7840  -14.1100 N.pl3     1 NAD394      0.0000 
     19 N1A        41.5300   34.9590  -12.5860 N.ar      1 NAD394      0.0000 
     20 C2A        41.9280   34.0680  -11.6700 C.ar      1 NAD394      0.0000 
     21 N3A        43.2700   33.9280  -11.2600 N.ar      1 NAD394      0.0000 
     22 C4A        44.1180   34.8770  -11.8140 C.ar      1 NAD394      0.0000 
     23 O3         51.1220   36.5740   -6.6740 O.3       1 NAD394      0.0000 
     24 PN         50.8520   36.3880   -5.0370 P.3       1 NAD394      0.0000 
     25 O1N        50.0030   35.2150   -4.9610 O.co2     1 NAD394      0.0000 
     26 O2N        52.1240   36.5100   -4.3130 O.co2     1 NAD394      0.0000 
     27 O5D        49.9650   37.6980   -4.8070 O.3       1 NAD394      0.0000 
     28 C5D        48.6050   37.8800   -5.3690 C.3       1 NAD394      0.0000 
     29 C4D        48.0930   39.2410   -5.2110 C.3       1 NAD394      0.0000 
     30 O4D        47.7760   39.4090   -3.7340 O.3       1 NAD394      0.0000 
     31 C3D        49.1330   40.4340   -5.3550 C.3       1 NAD394      0.0000 
     32 O3D        49.0190   40.7360   -6.7540 O.3       1 NAD394      0.0000 
     33 C2D        48.4730   41.5720   -4.5560 C.3       1 NAD394      0.0000 
     34 O2D        47.4100   42.1680   -5.1960 O.3       1 NAD394      0.0000 
     35 C1D        47.8650   40.7600   -3.3390 C.3       1 NAD394      0.0000 
     36 N1N        48.7590   40.9440   -2.1150 N.pl3     1 NAD394      0.0000 
     37 C2N        48.1890   41.5770   -0.9970 C.ar      1 NAD394      0.0000 
     38 C3N        49.0960   41.7360    0.0150 C.ar      1 NAD394      0.0000 
     39 C7N        48.5490   42.3050    1.3970 C.2       1 NAD394      0.0000 
     40 O7N        49.6040   42.6290    2.0470 O.2       1 NAD394      0.0000 
     41 N7N        47.2230   42.1960    1.7730 N.am      1 NAD394      0.0000 
     42 C4N        50.4860   41.3660    0.0740 C.ar      1 NAD394      0.0000 
     43 C5N        50.8980   40.7540   -1.1380 C.ar      1 NAD394      0.0000 
     44 C6N        50.0430   40.5730   -2.2200 C.ar      1 NAD394      0.0000 
     45 H          49.1502   36.0161   -9.4323 H         1 NAD394      0.0000 
     46 H          48.0223   36.1851   -8.0761 H         1 NAD394      0.0000 
     47 H          47.6563   33.6547   -8.4085 H         1 NAD394      0.0000 
     48 H          49.5388   33.9462  -10.4258 H         1 NAD394      0.0000 
     49 H          48.0673   35.0507  -11.8624 H         1 NAD394      0.0000 
     50 H          46.0161   33.3045  -10.6316 H         1 NAD394      0.0000 
     51 H          46.7014   36.4661  -12.5791 H         1 NAD394      0.0000 
     52 H          42.2804   36.7399  -15.0139 H         1 NAD394      0.0000 
     53 H          41.1413   37.4114  -13.7986 H         1 NAD394      0.0000 
     54 H          41.2248   33.4242  -11.2142 H         1 NAD394      0.0000 
     55 H          47.9132   37.1589   -4.8829 H         1 NAD394      0.0000 
     56 H          48.6188   37.6058   -6.4458 H         1 NAD394      0.0000 
     57 H          47.2422   39.4728   -5.7502 H         1 NAD394      0.0000 
     58 H          50.0113   40.1603   -5.0154 H         1 NAD394      0.0000 
     59 H          49.2056   42.1898   -4.1569 H         1 NAD394      0.0000 
     60 H          46.9026   41.1946   -3.1407 H         1 NAD394      0.0000 
     61 H          47.2580   41.8608   -0.9660 H         1 NAD394      0.0000 
     62 H          46.6216   41.7193    1.1319 H         1 NAD394      0.0000 
     63 H          46.9804   42.6033    2.6535 H         1 NAD394      0.0000 
     64 H          51.0440   41.5165    0.8295 H         1 NAD394      0.0000 
     65 H          51.8875   40.4296   -1.2092 H         1 NAD394      0.0000 
     66 H          50.4164   40.1541   -3.0874 H         1 NAD394      0.0000 
     67 H          47.3909   32.0869  -10.1407 H         1 NAD394      0.0000 
     68 H          46.9640   32.4789  -12.1602 H         1 NAD394      0.0000 
     69 H          49.9590   40.8733   -7.0664 H         1 NAD394      0.0000 
     70 H          47.7910   42.5325   -6.0457 H         1 NAD394      0.0000 
@<TRIPOS>BOND
     1    2    1 ar   
     2    3    1 ar   
     3    4    1 1    
     4   23    1 1    
     5    5    4 1    
     6    6    5 1    
     7   45    5 1    
     8   46    5 1    
     9    7    6 1    
    10    8    6 1    
    11   47    6 1    
    12   12    7 1    
    13    9    8 1    
    14   10    8 1    
    15   48    8 1    
    16   67    9 1    
    17   11   10 1    
    18   12   10 1    
    19   49   10 1    
    20   68   11 1    
    21   13   12 1    
    22   50   12 1    
    23   14   13 1    
    24   22   13 1    
    25   15   14 2    
    26   51   14 1    
    27   16   15 1    
    28   17   16 ar   
    29   22   16 ar   
    30   18   17 1    
    31   19   17 ar   
    32   52   18 1    
    33   53   18 1    
    34   20   19 ar   
    35   21   20 ar   
    36   54   20 1    
    37   22   21 ar   
    38   24   23 1    
    39   25   24 ar   
    40   26   24 ar   
    41   27   24 1    
    42   28   27 1    
    43   29   28 1    
    44   55   28 1    
    45   56   28 1    
    46   30   29 1    
    47   31   29 1    
    48   57   29 1    
    49   35   30 1    
    50   32   31 1    
    51   33   31 1    
    52   58   31 1    
    53   69   32 1    
    54   34   33 1    
    55   35   33 1    
    56   59   33 1    
    57   70   34 1    
    58   36   35 1    
    59   60   35 1    
    60   37   36 ar   
    61   44   36 ar   
    62   38   37 ar   
    63   61   37 1    
    64   39   38 1    
    65   42   38 ar   
    66   40   39 2    
    67   41   39 am   
    68   62   41 1    
    69   63   41 1    
    70   43   42 ar   
    71   64   42 1    
    72   44   43 ar   
    73   65   43 1    
    74   66   44 1    
@<TRIPOS>SUBSTRUCTURE
     1 NAD394      1 GROUP   
@<TRIPOS>SET

