#    Name: 1w1y_TYP_1_INTS_M
#    Modification time : Tue Mar 25 08:29:56 2014

@<TRIPOS>MOLECULE
1w1y_TYP_1_INTS_M
   48     0     9     0     0
SMALL
NO_CHARGES


@<TRIPOS>ATOM
      1 CA         18.5105   42.7835  103.4580 C.3       3 GLC5        0.0000 
      2 CA         18.8720   42.5860  101.5650 C.3       9 GLL5        0.0000 
      3 CA         18.1490   42.9810  105.3510 C.3       6 GLP5        0.0000 
      4 N          21.5170   44.7110  102.8325 N.am      2 SEC2        0.0000 
      5 N          20.6540   43.8030  102.5850 N.am      8 SEL2        0.0000 
      6 N          22.3800   45.6190  103.0800 N.am      5 SEP2        0.0000 
      7 CA         21.7590   42.7475  101.5285 C.3       3 GLC5        0.0000 
      8 CA         19.9510   41.6650  100.9840 C.3       9 GLL5        0.0000 
      9 CA         23.5670   43.8300  102.0730 C.3       6 GLP5        0.0000 
     10 CA         21.5995   40.7505  101.9930 C.3       3 GLC5        0.0000 
     11 CA         23.2480   39.8360  103.0020 C.3       6 GLP5        0.0000 
     12 CA         19.8700   41.5560  103.1895 C.3       3 GLC5        0.0000 
     13 CA         19.7890   41.4470  105.3950 C.3       6 GLP5        0.0000 
     14 CA         17.2200   41.1215   98.1795 C.3       3 GLC5        0.0000 
     15 CA         18.6840   40.0680   99.4470 C.3       9 GLL5        0.0000 
     16 CA         15.7560   42.1750   96.9120 C.3       6 GLP5        0.0000 
     17 O          16.6650   36.4810   98.9310 O.2       1 ALC1        0.0000 
     18 O          17.5920   36.5780   99.9300 O.2       7 ALL1        0.0000 
     19 O          15.7380   36.3840   97.9320 O.2       4 ALP1        0.0000 
     20 CA         18.9055   45.1480  100.5565 C.3       3 GLC5        0.0000 
     21 CA         17.2770   44.8930  101.9930 C.3       9 GLL5        0.0000 
     22 CA         20.5340   45.4030   99.1200 C.3       6 GLP5        0.0000 
     23 N          15.4515   44.3075   98.7425 N.am      2 SEC2        0.0000 
     24 N          16.4730   44.5830   99.7290 N.am      8 SEL2        0.0000 
     25 N          14.4300   44.0320   97.7560 N.am      5 SEP2        0.0000 
     26 CA         15.7265   47.8880  100.7895 C.3       3 GLC5        0.0000 
     27 CA         16.8370   46.3580  101.9130 C.3       9 GLL5        0.0000 
     28 CA         14.6160   49.4180   99.6660 C.3       6 GLP5        0.0000 
     29 CA         18.2485   48.8080  100.9355 C.3       3 GLC5        0.0000 
     30 CA         18.1340   47.1680  101.9520 C.3       9 GLL5        0.0000 
     31 CA         18.3630   50.4480   99.9190 C.3       6 GLP5        0.0000 
     32 CA         18.7075   47.5365  104.0580 C.3       3 GLC5        0.0000 
     33 CA         19.1040   46.3240  102.7740 C.3       9 GLL5        0.0000 
     34 CA         18.3110   48.7490  105.3420 C.3       6 GLP5        0.0000 
     35 CA         20.6610   47.7310  103.0560 C.3       3 GLC5        0.0000 
     36 CA         22.2180   49.1380  103.3380 C.3       6 GLP5        0.0000 
     37 CA         18.2095   45.2145  104.0690 C.3       3 GLC5        0.0000 
     38 CA         17.3150   44.1050  105.3640 C.3       6 GLP5        0.0000 
     39 CA         19.9727   43.7643  100.1972 C.3       3 GLC5        0.0000 
     40 CA         19.8009   36.7310  101.1848 C.3       3 GLC5        0.0000 
     41 CA         19.4100   39.2790  101.6540 C.3       9 GLL5        0.0000 
     42 CA         20.9570   35.2410  101.5220 C.3       6 GLP5        0.0000 
     43 CA         15.3760   45.4337  102.2980 C.3       3 GLC5        0.0000 
     44 CA         13.6950   45.2420  102.6430 C.3       6 GLP5        0.0000 
     45 CA         17.1860   44.8652  103.6585 C.3       3 GLC5        0.0000 
     46 CA         17.2938   47.8225  103.3077 C.3       3 GLC5        0.0000 
     47 CA         17.1020   48.8820  104.6830 C.3       6 GLP5        0.0000 
     48 CA         19.5765   46.0745  100.7415 C.3       3 GLC5        0.0000 
@<TRIPOS>BOND
@<TRIPOS>SUBSTRUCTURE
     1 ALC1       17 GROUP        1 X    ALC  0     ROOT ALC X 1
     2 SEC2        4 GROUP        1 X    SEC  0     **** SEC X 2
     3 GLC5        1 GROUP        1 X    GLC  0     **** GLC X 6
     4 ALP1       19 GROUP        1 Y    ALP  0     ROOT ALP Y 8
     5 SEP2        6 GROUP        1 Y    SEP  0     **** SEP Y 9
     6 GLP5        3 GROUP        1 Y    GLP  0     **** GLP Y 13
     7 ALL1       18 GROUP        1 Z    ALL  0     ROOT ALL Z 15
     8 SEL2        5 GROUP        1 Z    SEL  0     **** SEL Z 16
     9 GLL5        2 GROUP        1 Z    GLL  0     **** GLL Z 20
@<TRIPOS>SET

