#    Name: 1w1y_TYP_1_ligand
#    Modification time : Tue Mar 25 08:29:56 2014

@<TRIPOS>MOLECULE
1w1y_TYP_1_ligand
   35    37     1     0     0
SMALL
NO_CHARGES


@<TRIPOS>ATOM
      1 N          17.9710   43.0160  100.4770 N.am      1 TYP1507     0.0000 
      2 CA         18.8720   42.5860  101.5650 C.3       1 TYP1507     0.0000 
      3 C          19.4970   43.8150  102.2060 C.2       1 TYP1507     0.0000 
      4 O          20.6540   43.8030  102.5850 O.2       1 TYP1507     0.0000 
      5 CB         19.9510   41.6650  100.9840 C.3       1 TYP1507     0.0000 
      6 CG         19.3380   40.3010  100.6820 C.ar      1 TYP1507     0.0000 
      7 CD1        18.6840   40.0680   99.4470 C.ar      1 TYP1507     0.0000 
      8 CE1        18.1010   38.8100   99.1950 C.ar      1 TYP1507     0.0000 
      9 CE2        18.8270   38.0250  101.3960 C.ar      1 TYP1507     0.0000 
     10 CD2        19.4100   39.2790  101.6540 C.ar      1 TYP1507     0.0000 
     11 CZ         18.1710   37.7900  100.1700 C.ar      1 TYP1507     0.0000 
     12 OH         17.5920   36.5780   99.9300 O.3       1 TYP1507     0.0000 
     13 NP         18.7050   44.9510  102.3990 N.am      1 TYP1507     0.0000 
     14 CAP        17.2770   44.8930  101.9930 C.3       1 TYP1507     0.0000 
     15 CP         17.1890   44.1680  100.6480 C.2       1 TYP1507     0.0000 
     16 OP         16.4730   44.5830   99.7290 O.2       1 TYP1507     0.0000 
     17 CBP        16.8370   46.3580  101.9130 C.3       1 TYP1507     0.0000 
     18 CGP        18.1340   47.1680  101.9520 C.3       1 TYP1507     0.0000 
     19 CDP        19.1040   46.3240  102.7740 C.3       1 TYP1507     0.0000 
     20 H          17.9420   42.4655   99.6338 H         1 TYP1507     0.0000 
     21 H          18.3197   42.0445  102.3070 H         1 TYP1507     0.0000 
     22 H          20.7492   41.5515  101.7052 H         1 TYP1507     0.0000 
     23 H          20.3365   42.0987  100.0711 H         1 TYP1507     0.0000 
     24 H          18.6373   40.8067   98.7484 H         1 TYP1507     0.0000 
     25 H          17.6270   38.6339   98.3071 H         1 TYP1507     0.0000 
     26 H          18.8781   37.2822  102.0971 H         1 TYP1507     0.0000 
     27 H          19.8846   39.4523  102.5411 H         1 TYP1507     0.0000 
     28 H          16.7143   44.3911  102.7280 H         1 TYP1507     0.0000 
     29 H          16.2370   46.5986  102.7593 H         1 TYP1507     0.0000 
     30 H          16.3325   46.5308  100.9912 H         1 TYP1507     0.0000 
     31 H          17.9610   48.0983  102.4411 H         1 TYP1507     0.0000 
     32 H          18.5103   47.2899  100.9630 H         1 TYP1507     0.0000 
     33 H          20.0952   46.5323  102.4647 H         1 TYP1507     0.0000 
     34 H          18.9353   46.5036  103.8040 H         1 TYP1507     0.0000 
     35 H          16.9301   36.7476   99.1999 H         1 TYP1507     0.0000 
@<TRIPOS>BOND
     1    2    1 1    
     2   15    1 am   
     3   20    1 1    
     4    3    2 1    
     5    5    2 1    
     6   21    2 1    
     7    4    3 2    
     8   13    3 am   
     9    6    5 1    
    10   22    5 1    
    11   23    5 1    
    12    7    6 ar   
    13   10    6 ar   
    14    8    7 ar   
    15   24    7 1    
    16   11    8 ar   
    17   25    8 1    
    18   10    9 ar   
    19   11    9 ar   
    20   26    9 1    
    21   27   10 1    
    22   12   11 1    
    23   35   12 1    
    24   14   13 1    
    25   19   13 1    
    26   15   14 1    
    27   17   14 1    
    28   28   14 1    
    29   16   15 2    
    30   18   17 1    
    31   29   17 1    
    32   30   17 1    
    33   19   18 1    
    34   31   18 1    
    35   32   18 1    
    36   33   19 1    
    37   34   19 1    
@<TRIPOS>SUBSTRUCTURE
     1 TYP1507     1 GROUP   
@<TRIPOS>SET

