#    Name: 3kxw_1ZZ_1_INTS_M
#    Modification time : Mon Mar 24 20:41:04 2014

@<TRIPOS>MOLECULE
3kxw_1ZZ_1_INTS_M
  107     0     9     0     0
SMALL
NO_CHARGES


@<TRIPOS>ATOM
      1 CA         -7.5140   45.4590   20.6790 C.3       3 GLC5        0.0000 
      2 CA         -8.2700   43.6440   20.9460 C.3       9 GLL5        0.0000 
      3 CA         -6.7580   47.2740   20.4120 C.3       6 GLP5        0.0000 
      4 CA         -9.4055   45.1145   20.8550 C.3       3 GLC5        0.0000 
      5 CA        -10.5410   46.5850   20.7640 C.3       6 GLP5        0.0000 
      6 CA         -9.9825   43.8915   22.2870 C.3       3 GLC5        0.0000 
      7 CA        -11.6950   44.1390   23.6280 C.3       6 GLP5        0.0000 
      8 CA        -10.0825   42.8980   19.9390 C.3       3 GLC5        0.0000 
      9 CA        -11.8950   42.1520   18.9320 C.3       6 GLP5        0.0000 
     10 CA         -7.3305   41.3065   21.9025 C.3       3 GLC5        0.0000 
     11 CA         -7.1640   42.7750   20.3330 C.3       9 GLL5        0.0000 
     12 CA         -7.4970   39.8380   23.4720 C.3       6 GLP5        0.0000 
     13 N           1.4815   38.3440   14.8375 N.am      2 SEC2        0.0000 
     14 N           2.5350   39.2210   14.0370 N.am      8 SEL2        0.0000 
     15 N           0.4280   37.4670   15.6380 N.am      5 SEP2        0.0000 
     16 CA         -6.4390   45.4440   19.9985 C.3       3 GLC5        0.0000 
     17 CA         -6.1200   43.6140   19.5850 C.3       9 GLL5        0.0000 
     18 N           6.3510   41.7080   21.0305 N.am      2 SEC2        0.0000 
     19 N           6.5860   40.2480   21.0040 N.am      8 SEL2        0.0000 
     20 N           6.1160   43.1680   21.0570 N.am      5 SEP2        0.0000 
     21 CA         -3.8055   41.1810   20.0390 C.3       3 GLC5        0.0000 
     22 CA         -4.8290   42.8110   19.3670 C.3       9 GLL5        0.0000 
     23 CA         -2.7820   39.5510   20.7110 C.3       6 GLP5        0.0000 
     24 CA         -5.5095   40.8210   19.0760 C.3       3 GLC5        0.0000 
     25 CA         -6.1900   38.8310   18.7850 C.3       6 GLP5        0.0000 
     26 N           4.2275   37.5430   21.8080 N.am      2 SEC2        0.0000 
     27 N           5.6020   37.9970   21.5780 N.am      8 SEL2        0.0000 
     28 N           2.8530   37.0890   22.0380 N.am      5 SEP2        0.0000 
     29 O           0.0555   39.8870   11.9720 O.2       1 ALC1        0.0000 
     30 O           1.0270   39.1290   11.2240 O.2       7 ALL1        0.0000 
     31 O          -0.9160   40.6450   12.7200 O.2       4 ALP1        0.0000 
     32 O           0.7820   39.9325    9.9855 O.2       1 ALC1        0.0000 
     33 O           0.5370   40.7360    8.7470 O.2       4 ALP1        0.0000 
     34 CA         -2.5650   40.5510   18.5120 C.3       3 GLC5        0.0000 
     35 CA         -2.7460   42.4560   18.0500 C.3       9 GLL5        0.0000 
     36 CA         -2.3840   38.6460   18.9740 C.3       6 GLP5        0.0000 
     37 CA         -1.1150   43.4315   18.8850 C.3       3 GLC5        0.0000 
     38 CA         -1.7200   42.6550   16.9070 C.3       9 GLL5        0.0000 
     39 CA         -0.5100   44.2080   20.8630 C.3       6 GLP5        0.0000 
     40 CA         -2.1685   44.3330   16.1500 C.3       3 GLC5        0.0000 
     41 CA         -2.6170   46.0110   15.3930 C.3       6 GLP5        0.0000 
     42 O           8.7300   38.7170   13.5790 O.2       1 ALC1        0.0000 
     43 O           7.8210   38.0360   14.3910 O.2       7 ALL1        0.0000 
     44 O           9.6390   39.3980   12.7670 O.2       4 ALP1        0.0000 
     45 CA         -1.5105   40.1155   17.8200 C.3       3 GLC5        0.0000 
     46 CA         -0.6370   41.5850   16.6660 C.3       9 GLL5        0.0000 
     47 CA         -1.1955   39.7545   15.6795 C.3       3 GLC5        0.0000 
     48 CA         -1.7540   37.9240   14.6930 C.3       6 GLP5        0.0000 
     49 CA          0.2165   42.0765   14.8115 C.3       3 GLC5        0.0000 
     50 CA          1.0700   42.5680   12.9570 C.3       6 GLP5        0.0000 
     51 O           8.8975   39.7420   14.2535 O.2       1 ALC1        0.0000 
     52 O           8.1560   40.0860   15.7400 O.2       7 ALL1        0.0000 
     53 O           8.4450   40.6920   14.5645 O.2       1 ALC1        0.0000 
     54 O           8.7340   41.2980   13.3890 O.2       4 ALP1        0.0000 
     55 CA         -0.5395   39.5940   18.5015 C.3       3 GLC5        0.0000 
     56 CA          1.3050   40.5420   18.0290 C.3       9 GLL5        0.0000 
     57 CA          1.3865   38.7605   17.2895 C.3       3 GLC5        0.0000 
     58 CA          1.4680   36.9790   16.5500 C.3       6 GLP5        0.0000 
     59 CA          3.8695   41.9630   18.9720 C.3       3 GLC5        0.0000 
     60 CA          2.2540   40.8920   19.2100 C.3       9 GLL5        0.0000 
     61 CA          5.4850   43.0340   18.7340 C.3       6 GLP5        0.0000 
     62 CA          2.2030   37.7430   14.6690 C.3       3 GLC5        0.0000 
     63 CA          2.9380   38.5070   12.7880 C.3       9 GLL5        0.0000 
     64 CA          2.0040   40.5375   12.8725 C.3       3 GLC5        0.0000 
     65 CA          3.4265   35.8220   12.3380 C.3       3 GLC5        0.0000 
     66 CA          4.1130   37.1250   10.7210 C.3       9 GLL5        0.0000 
     67 CA          2.7400   34.5190   13.9550 C.3       6 GLP5        0.0000 
     68 CA          3.3220   35.5495   10.4750 C.3       3 GLC5        0.0000 
     69 CA          2.5310   33.9740   10.2290 C.3       6 GLP5        0.0000 
     70 CA          5.1695   38.0720    9.7290 C.3       3 GLC5        0.0000 
     71 CA          6.2260   39.0190    8.7370 C.3       6 GLP5        0.0000 
     72 CA          0.4345   37.4890   10.8715 C.3       3 GLC5        0.0000 
     73 CA          2.2710   38.4310   11.4300 C.3       9 GLL5        0.0000 
     74 CA         -1.4020   36.5470   10.3130 C.3       6 GLP5        0.0000 
     75 CA          2.1040   40.6440   11.5790 C.3       3 GLC5        0.0000 
     76 CA          1.9370   42.8570   11.7280 C.3       6 GLP5        0.0000 
     77 CA          3.4060   39.6540   10.0095 C.3       3 GLC5        0.0000 
     78 CA          4.5410   40.8770    8.5890 C.3       6 GLP5        0.0000 
     79 CA         -8.1795   43.4378   18.6557 C.3       3 GLC5        0.0000 
     80 CA         -8.6420   43.6660   16.6720 C.3       6 GLP5        0.0000 
     81 CA         -6.4680   43.4883   22.0808 C.3       3 GLC5        0.0000 
     82 CA         -5.2190   43.7670   23.5220 C.3       6 GLP5        0.0000 
     83 CA         -8.0575   41.4392   19.9393 C.3       3 GLC5        0.0000 
     84 CA         -8.3980   39.6690   19.2390 C.3       6 GLP5        0.0000 
     85 CA         -5.3468   43.4898   21.4990 C.3       3 GLC5        0.0000 
     86 CA         -6.0141   43.6866   17.6620 C.3       3 GLC5        0.0000 
     87 CA         -3.9340   43.4040   18.2660 C.3       9 GLL5        0.0000 
     88 CA         -7.3240   44.0650   16.4530 C.3       6 GLP5        0.0000 
     89 CA         -3.6470   42.2560   16.3470 C.3       3 GLC5        0.0000 
     90 CA         -3.9540   41.5820   14.5360 C.3       6 GLP5        0.0000 
     91 CA         -2.9785   44.4705   16.7755 C.3       3 GLC5        0.0000 
     92 CA         -2.7339   43.4819   19.9566 C.3       3 GLC5        0.0000 
     93 CA         -1.9040   44.1820   21.4800 C.3       6 GLP5        0.0000 
     94 CA         -2.5663   41.8510   15.6612 C.3       3 GLC5        0.0000 
     95 CA          1.4468   42.7475   16.5830 C.3       3 GLC5        0.0000 
     96 CA          2.9470   43.7910   16.0140 C.3       6 GLP5        0.0000 
     97 CA          2.3632   42.2540   17.3167 C.3       3 GLC5        0.0000 
     98 CA          0.9309   41.9956   19.8754 C.3       3 GLC5        0.0000 
     99 CA          0.5300   41.8230   17.6380 C.3       9 GLL5        0.0000 
    100 CA          0.2760   42.9540   21.2290 C.3       6 GLP5        0.0000 
    101 CA          6.2797   40.5980   13.7643 C.3       3 GLC5        0.0000 
    102 CA          6.9680   39.5000   15.5580 C.3       9 GLL5        0.0000 
    103 CA          5.6200   42.1150   12.4800 C.3       6 GLP5        0.0000 
    104 CA          6.7707   41.0559   17.2843 C.3       3 GLC5        0.0000 
    105 CA          6.8660   42.8560   18.1100 C.3       6 GLP5        0.0000 
    106 CA          3.1325   36.3785   13.4100 C.3       3 GLC5        0.0000 
    107 CA          4.1120   37.9690   12.9420 C.3       9 GLL5        0.0000 
@<TRIPOS>BOND
@<TRIPOS>SUBSTRUCTURE
     1 ALC1       29 GROUP        1 X    ALC  0     ROOT ALC X 1
     2 SEC2       13 GROUP        1 X    SEC  0     **** SEC X 2
     3 GLC5        1 GROUP        1 X    GLC  0     **** GLC X 6
     4 ALP1       31 GROUP        1 Y    ALP  0     ROOT ALP Y 8
     5 SEP2       15 GROUP        1 Y    SEP  0     **** SEP Y 9
     6 GLP5        3 GROUP        1 Y    GLP  0     **** GLP Y 13
     7 ALL1       30 GROUP        1 Z    ALL  0     ROOT ALL Z 15
     8 SEL2       14 GROUP        1 Z    SEL  0     **** SEL Z 16
     9 GLL5        2 GROUP        1 Z    GLL  0     **** GLL Z 20
@<TRIPOS>SET

