#    Name: 3kxw_1ZZ_1_ligand
#    Modification time : Mon Mar 24 20:41:04 2014

@<TRIPOS>MOLECULE
3kxw_1ZZ_1_ligand
   71    73     1     0     0
SMALL
NO_CHARGES


@<TRIPOS>ATOM
      1 P           5.6710   39.2280   20.5360 P.3       1 1ZZ589      0.0000 
      2 C1         -8.2700   43.6440   20.9460 C.3       1 1ZZ589      0.0000 
      3 N1          4.5130   38.2110   14.2960 N.pl3     1 1ZZ589      0.0000 
      4 O1          2.9960   38.6980   18.7530 O.2       1 1ZZ589      0.0000 
      5 C2         -7.1640   42.7750   20.3330 C.3       1 1ZZ589      0.0000 
      6 N2          2.5350   39.2210   14.0370 N.2       1 1ZZ589      0.0000 
      7 O2          4.1470   39.8840   20.4180 O.3       1 1ZZ589      0.0000 
      8 C3         -6.1200   43.6140   19.5850 C.3       1 1ZZ589      0.0000 
      9 N3          4.7380   37.2490   11.8670 N.ar      1 1ZZ589      0.0000 
     10 O3          6.5860   40.2480   21.0040 O.co2     1 1ZZ589      0.0000 
     11 C4         -4.8290   42.8110   19.3670 C.3       1 1ZZ589      0.0000 
     12 N4          2.8170   37.8030   10.5210 N.ar      1 1ZZ589      0.0000 
     13 O4          5.6020   37.9970   21.5780 O.co2     1 1ZZ589      0.0000 
     14 C5         -3.9340   43.4040   18.2660 C.3       1 1ZZ589      0.0000 
     15 N5          1.0270   39.1290   11.2240 N.pl3     1 1ZZ589      0.0000 
     16 O5          6.1750   38.6040   19.0740 O.3       1 1ZZ589      0.0000 
     17 C6         -2.7460   42.4560   18.0500 C.3       1 1ZZ589      0.0000 
     18 O6          5.7380   37.7400   16.4020 O.3       1 1ZZ589      0.0000 
     19 C7         -1.7200   42.6550   16.9070 C.3       1 1ZZ589      0.0000 
     20 O7          7.8210   38.0360   14.3910 O.3       1 1ZZ589      0.0000 
     21 C8         -0.6370   41.5850   16.6660 C.3       1 1ZZ589      0.0000 
     22 O8          8.1560   40.0860   15.7400 O.3       1 1ZZ589      0.0000 
     23 C9          0.5300   41.8230   17.6380 C.3       1 1ZZ589      0.0000 
     24 C10         1.3050   40.5420   18.0290 C.3       1 1ZZ589      0.0000 
     25 C11         2.2540   40.8920   19.2100 C.3       1 1ZZ589      0.0000 
     26 C12         3.4650   39.9410   19.1660 C.2       1 1ZZ589      0.0000 
     27 C13         6.1680   39.3930   17.9040 C.3       1 1ZZ589      0.0000 
     28 C14         6.5980   38.6300   16.8140 C.3       1 1ZZ589      0.0000 
     29 C15         6.9680   39.5000   15.5580 C.3       1 1ZZ589      0.0000 
     30 C16         6.9110   38.6620   14.5390 C.3       1 1ZZ589      0.0000 
     31 C17         5.7310   37.8980   14.8970 C.3       1 1ZZ589      0.0000 
     32 C18         3.4580   39.0090   14.8980 C.2       1 1ZZ589      0.0000 
     33 C19         2.9380   38.5070   12.7880 C.ar      1 1ZZ589      0.0000 
     34 C20         4.1120   37.9690   12.9420 C.ar      1 1ZZ589      0.0000 
     35 C21         4.1130   37.1250   10.7210 C.ar      1 1ZZ589      0.0000 
     36 C22         2.2710   38.4310   11.4300 C.ar      1 1ZZ589      0.0000 
     37 H          -7.6139   42.0619   19.6381 H         1 1ZZ589      0.0000 
     38 H          -6.6681   42.2141   21.1288 H         1 1ZZ589      0.0000 
     39 H          -5.8928   44.5043   20.1659 H         1 1ZZ589      0.0000 
     40 H          -6.5232   43.9105   18.6200 H         1 1ZZ589      0.0000 
     41 H          -5.0901   41.7817   19.0970 H         1 1ZZ589      0.0000 
     42 H          -4.2648   42.7804   20.3058 H         1 1ZZ589      0.0000 
     43 H          -3.5719   44.3671   18.5806 H         1 1ZZ589      0.0000 
     44 H          -4.4980   43.4862   17.3533 H         1 1ZZ589      0.0000 
     45 H           0.8739   39.4937   10.3055 H         1 1ZZ589      0.0000 
     46 H           0.4205   39.1905   12.0167 H         1 1ZZ589      0.0000 
     47 H          -3.1562   41.3970   17.9578 H         1 1ZZ589      0.0000 
     48 H          -2.1608   42.4010   19.0261 H         1 1ZZ589      0.0000 
     49 H          -1.2083   43.6425   17.0694 H         1 1ZZ589      0.0000 
     50 H          -2.2916   42.7981   15.9499 H         1 1ZZ589      0.0000 
     51 H          -0.2798   41.6628   15.6510 H         1 1ZZ589      0.0000 
     52 H          -1.0574   40.6073   16.8430 H         1 1ZZ589      0.0000 
     53 H           0.1419   42.2918   18.5553 H         1 1ZZ589      0.0000 
     54 H           1.2357   42.5345   17.1825 H         1 1ZZ589      0.0000 
     55 H           1.8902   40.2097   17.1941 H         1 1ZZ589      0.0000 
     56 H           0.6117   39.7880   18.3464 H         1 1ZZ589      0.0000 
     57 H           1.7244   40.7586   20.1360 H         1 1ZZ589      0.0000 
     58 H           2.5891   41.9076   19.1007 H         1 1ZZ589      0.0000 
     59 H           6.8207   40.2836   18.0401 H         1 1ZZ589      0.0000 
     60 H           5.1472   39.7959   17.7213 H         1 1ZZ589      0.0000 
     61 H           7.5822   38.1381   17.0678 H         1 1ZZ589      0.0000 
     62 H           6.1395   40.2362   15.5193 H         1 1ZZ589      0.0000 
     63 H           6.5498   39.2687   13.6451 H         1 1ZZ589      0.0000 
     64 H           6.0127   36.7954   14.5506 H         1 1ZZ589      0.0000 
     65 H           3.5336   39.2911   15.8233 H         1 1ZZ589      0.0000 
     66 H           4.4596   36.5782    9.9239 H         1 1ZZ589      0.0000 
     67 H          -7.9035   44.3023   21.6035 H         1 1ZZ589      0.0000 
     68 H          -8.7601   44.1676   20.2491 H         1 1ZZ589      0.0000 
     69 H          -8.9495   43.0931   21.4305 H         1 1ZZ589      0.0000 
     70 H           8.4322   38.5962   13.8319 H         1 1ZZ589      0.0000 
     71 H           8.3600   40.5332   14.8691 H         1 1ZZ589      0.0000 
@<TRIPOS>BOND
     1    7    1 1    
     2   10    1 ar   
     3   13    1 ar   
     4   16    1 1    
     5    5    2 1    
     6   67    2 1    
     7   68    2 1    
     8   69    2 1    
     9   31    3 1    
    10   32    3 1    
    11   34    3 1    
    12   26    4 2    
    13    8    5 1    
    14   37    5 1    
    15   38    5 1    
    16   32    6 2    
    17   33    6 1    
    18   26    7 1    
    19   11    8 1    
    20   39    8 1    
    21   40    8 1    
    22   34    9 ar   
    23   35    9 ar   
    24   14   11 1    
    25   41   11 1    
    26   42   11 1    
    27   35   12 ar   
    28   36   12 ar   
    29   17   14 1    
    30   43   14 1    
    31   44   14 1    
    32   36   15 1    
    33   45   15 1    
    34   46   15 1    
    35   27   16 1    
    36   19   17 1    
    37   47   17 1    
    38   48   17 1    
    39   28   18 1    
    40   31   18 1    
    41   21   19 1    
    42   49   19 1    
    43   50   19 1    
    44   30   20 1    
    45   70   20 1    
    46   23   21 1    
    47   51   21 1    
    48   52   21 1    
    49   29   22 1    
    50   71   22 1    
    51   24   23 1    
    52   53   23 1    
    53   54   23 1    
    54   25   24 1    
    55   55   24 1    
    56   56   24 1    
    57   26   25 1    
    58   57   25 1    
    59   58   25 1    
    60   28   27 1    
    61   59   27 1    
    62   60   27 1    
    63   29   28 1    
    64   61   28 1    
    65   30   29 1    
    66   62   29 1    
    67   31   30 1    
    68   63   30 1    
    69   64   31 1    
    70   65   32 1    
    71   34   33 ar   
    72   36   33 ar   
    73   66   35 1    
@<TRIPOS>SUBSTRUCTURE
     1 1ZZ589      1 GROUP   
@<TRIPOS>SET

