#    Name: 1xvc_5BR_1_INTS_M
#    Modification time : Mon Apr  7 15:32:02 2014

@<TRIPOS>MOLECULE
1xvc_5BR_1_INTS_M
   28     0     3     0     0
SMALL
NO_CHARGES


@<TRIPOS>ATOM
      1 CA         78.5055   81.9705   86.5860 C.3       1 GLC5        0.0000 
      2 CA         79.4750   80.1880   86.1610 C.3       3 GLL5        0.0000 
      3 CA         77.5360   83.7530   87.0110 C.3       2 GLP5        0.0000 
      4 CA         79.6280   82.0015   85.0850 C.3       1 GLC5        0.0000 
      5 CA         79.7810   83.8150   84.0090 C.3       2 GLP5        0.0000 
      6 CA         82.2400   78.9330   87.8300 C.3       1 GLC5        0.0000 
      7 CA         81.2710   80.4780   86.7420 C.3       3 GLL5        0.0000 
      8 CA         83.2090   77.3880   88.9180 C.3       2 GLP5        0.0000 
      9 CA         80.7910   82.7785   85.0265 C.3       1 GLC5        0.0000 
     10 CA         81.8010   81.7420   86.0440 C.3       3 GLL5        0.0000 
     11 CA         84.2295   83.0905   83.1560 C.3       1 GLC5        0.0000 
     12 CA         84.0360   82.8030   85.3040 C.3       3 GLL5        0.0000 
     13 CA         84.4230   83.3780   81.0080 C.3       2 GLP5        0.0000 
     14 CA         84.0065   84.9765   85.2285 C.3       1 GLC5        0.0000 
     15 CA         85.2150   83.6940   85.7240 C.3       3 GLL5        0.0000 
     16 CA         82.7980   86.2590   84.7330 C.3       2 GLP5        0.0000 
     17 CA         81.1560   79.4805   84.7208 C.3       1 GLC5        0.0000 
     18 CA         81.9390   78.6280   82.9900 C.3       2 GLP5        0.0000 
     19 CA         83.3320   80.0740   86.3875 C.3       1 GLC5        0.0000 
     20 CA         85.1280   79.0380   86.3820 C.3       2 GLP5        0.0000 
     21 CA         84.3870   80.7422   86.1238 C.3       1 GLC5        0.0000 
     22 CA         83.2560   82.0900   86.4270 C.3       3 GLL5        0.0000 
     23 CA         82.1595   82.3130   88.1385 C.3       1 GLC5        0.0000 
     24 CA         81.9230   83.0260   89.8670 C.3       2 GLP5        0.0000 
     25 CA         82.6015   83.9017   85.3132 C.3       1 GLC5        0.0000 
     26 CA         81.5570   85.3570   84.7610 C.3       2 GLP5        0.0000 
     27 CA         82.5811   81.7177   84.0854 C.3       1 GLC5        0.0000 
     28 CA         81.8800   81.0760   82.4010 C.3       2 GLP5        0.0000 
@<TRIPOS>BOND
@<TRIPOS>SUBSTRUCTURE
     1 GLC5        1 GROUP        1 X    GLC  0     ROOT GLC X 6
     2 GLP5        3 GROUP        1 Y    GLP  0     ROOT GLP Y 13
     3 GLL5        2 GROUP        1 Z    GLL  0     ROOT GLL Z 20
@<TRIPOS>SET

