#    Name: 1xvc_5BR_1_ligand
#    Modification time : Mon Apr  7 15:32:02 2014

@<TRIPOS>MOLECULE
1xvc_5BR_1_ligand
   17    16     1     0     0
SMALL
NO_CHARGES


@<TRIPOS>ATOM
      1 BR1        79.4750   80.1880   86.1610 Br        1 5BR1628     0.0000 
      2 C1         81.2710   80.4780   86.7420 C.3       1 5BR1628     0.0000 
      3 C2         81.8010   81.7420   86.0440 C.3       1 5BR1628     0.0000 
      4 C3         83.2560   82.0900   86.4270 C.3       1 5BR1628     0.0000 
      5 C4         84.0360   82.8030   85.3040 C.3       1 5BR1628     0.0000 
      6 C5         85.2150   83.6940   85.7240 C.3       1 5BR1628     0.0000 
      7 H          81.7152   79.5829   86.4302 H         1 5BR1628     0.0000 
      8 H          81.1206   80.5739   87.7735 H         1 5BR1628     0.0000 
      9 H          81.1554   82.5904   86.3027 H         1 5BR1628     0.0000 
     10 H          81.7464   81.5998   84.9576 H         1 5BR1628     0.0000 
     11 H          83.7827   81.1649   86.6934 H         1 5BR1628     0.0000 
     12 H          83.2436   82.7341   87.3154 H         1 5BR1628     0.0000 
     13 H          83.3177   83.4198   84.7156 H         1 5BR1628     0.0000 
     14 H          84.4111   82.0307   84.5932 H         1 5BR1628     0.0000 
     15 H          85.9144   83.1765   86.2170 H         1 5BR1628     0.0000 
     16 H          85.6629   84.1138   84.9346 H         1 5BR1628     0.0000 
     17 H          84.9227   84.4379   86.3250 H         1 5BR1628     0.0000 
@<TRIPOS>BOND
     1    2    1 1    
     2    3    2 1    
     3    7    2 1    
     4    8    2 1    
     5    4    3 1    
     6    9    3 1    
     7   10    3 1    
     8    5    4 1    
     9   11    4 1    
    10   12    4 1    
    11    6    5 1    
    12   13    5 1    
    13   14    5 1    
    14   15    6 1    
    15   16    6 1    
    16   17    6 1    
@<TRIPOS>SUBSTRUCTURE
     1 5BR1628     1 GROUP   
@<TRIPOS>SET

