#    Name: 1esv_LAR_1_INTS_M
#    Modification time : Tue Mar 25 00:15:07 2014

@<TRIPOS>MOLECULE
1esv_LAR_1_INTS_M
   56     0     9     0     0
SMALL
NO_CHARGES


@<TRIPOS>ATOM
      1 CA         21.6990   11.2145   81.7550 C.3       3 GLC5        0.0000 
      2 CA         20.2460   10.1120   81.2040 C.3       9 GLL5        0.0000 
      3 CA         23.1520   12.3170   82.3060 C.3       6 GLP5        0.0000 
      4 CA         20.5925   11.9485   80.4500 C.3       3 GLC5        0.0000 
      5 CA         20.9390   13.7850   79.6960 C.3       6 GLP5        0.0000 
      6 O          20.8740    8.0675   78.0865 O.2       1 ALC1        0.0000 
      7 O          20.1590    8.6840   79.1080 O.2       7 ALL1        0.0000 
      8 O          21.5890    7.4510   77.0650 O.2       4 ALP1        0.0000 
      9 O          20.1930    7.2320   78.2665 O.2       1 ALC1        0.0000 
     10 O          20.2270    5.7800   77.4250 O.2       4 ALP1        0.0000 
     11 N          16.6120    7.2570   80.1010 N.am      2 SEC2        0.0000 
     12 N          16.5380    8.3510   79.1850 N.am      8 SEL2        0.0000 
     13 N          16.6860    6.1630   81.0170 N.am      5 SEP2        0.0000 
     14 N          22.9945   10.8465   79.7350 N.am      2 SEC2        0.0000 
     15 N          22.1160    9.8720   79.3550 N.am      8 SEL2        0.0000 
     16 N          23.8730   11.8210   80.1150 N.am      5 SEP2        0.0000 
     17 CA         15.9285   10.4680   73.8735 C.3       3 GLC5        0.0000 
     18 CA         16.8500   12.0060   74.8270 C.3       9 GLL5        0.0000 
     19 CA         15.0070    8.9300   72.9200 C.3       6 GLP5        0.0000 
     20 CA         18.3425   12.2940   76.2935 C.3       3 GLC5        0.0000 
     21 CA         19.8350   12.5820   77.7600 C.3       6 GLP5        0.0000 
     22 CA         15.2810    6.5655   80.6270 C.3       3 GLC5        0.0000 
     23 CA         14.0930    8.3060   80.4680 C.3       9 GLL5        0.0000 
     24 CA         16.4690    4.8250   80.7860 C.3       6 GLP5        0.0000 
     25 CA         15.2490    6.2355   79.2315 C.3       3 GLC5        0.0000 
     26 CA         14.1820    8.0830   78.9790 C.3       9 GLL5        0.0000 
     27 CA         16.3160    4.3880   79.4840 C.3       6 GLP5        0.0000 
     28 CA         17.6395    6.6050   80.2515 C.3       3 GLC5        0.0000 
     29 CA         18.8100    8.3850   79.7170 C.3       9 GLL5        0.0000 
     30 CA         11.8270   10.8175   82.4795 C.3       3 GLC5        0.0000 
     31 CA         13.8000    9.9830   82.4270 C.3       9 GLL5        0.0000 
     32 CA          9.8540   11.6520   82.5320 C.3       6 GLP5        0.0000 
     33 CA         19.6797    9.6220   82.9575 C.3       3 GLC5        0.0000 
     34 CA         18.8410    8.9200   81.1240 C.3       9 GLL5        0.0000 
     35 CA         19.8160    9.7280   84.7510 C.3       6 GLP5        0.0000 
     36 CA         12.1305    9.4505   77.4451 C.3       3 GLC5        0.0000 
     37 CA         13.0220   11.2140   78.4780 C.3       9 GLL5        0.0000 
     38 CA         11.8280    7.7860   76.2870 C.3       6 GLP5        0.0000 
     39 CA         11.1900    8.4652   79.8698 C.3       3 GLC5        0.0000 
     40 CA         11.9750   10.6640   79.2820 C.3       9 GLL5        0.0000 
     41 CA         10.2700    6.5960   79.8850 C.3       6 GLP5        0.0000 
     42 CA         10.6290   10.4832   80.7512 C.3       3 GLC5        0.0000 
     43 CA         12.2450   10.0050   80.4270 C.3       9 GLL5        0.0000 
     44 CA          9.1480   10.6320   81.6480 C.3       6 GLP5        0.0000 
     45 CA         13.3352    6.4962   79.4882 C.3       3 GLC5        0.0000 
     46 CA         12.5330    4.7980   79.2530 C.3       6 GLP5        0.0000 
     47 CA         15.6370    8.6457   74.7875 C.3       3 GLC5        0.0000 
     48 CA         16.9190    8.6240   76.3780 C.3       9 GLL5        0.0000 
     49 CA         13.5139    8.0126   77.0371 C.3       3 GLC5        0.0000 
     50 CA         15.6150    8.0990   76.9320 C.3       9 GLL5        0.0000 
     51 CA         17.3370    6.6689   76.0942 C.3       3 GLC5        0.0000 
     52 CA         17.4940    4.8750   75.2020 C.3       6 GLP5        0.0000 
     53 CA         18.8810   10.6603   77.9008 C.3       3 GLC5        0.0000 
     54 CA         18.0930    8.5640   77.3180 C.3       9 GLL5        0.0000 
     55 CA         20.6104    7.7427   80.8988 C.3       3 GLC5        0.0000 
     56 CA         22.0440    6.5350   81.3570 C.3       6 GLP5        0.0000 
@<TRIPOS>BOND
@<TRIPOS>SUBSTRUCTURE
     1 ALC1        6 GROUP        1 X    ALC  0     ROOT ALC X 1
     2 SEC2       11 GROUP        1 X    SEC  0     **** SEC X 2
     3 GLC5        1 GROUP        1 X    GLC  0     **** GLC X 6
     4 ALP1        8 GROUP        1 Y    ALP  0     ROOT ALP Y 8
     5 SEP2       13 GROUP        1 Y    SEP  0     **** SEP Y 9
     6 GLP5        3 GROUP        1 Y    GLP  0     **** GLP Y 13
     7 ALL1        7 GROUP        1 Z    ALL  0     ROOT ALL Z 15
     8 SEL2       12 GROUP        1 Z    SEL  0     **** SEL Z 16
     9 GLL5        2 GROUP        1 Z    GLL  0     **** GLL Z 20
@<TRIPOS>SET

