#    Name: 1esv_LAR_1_ligand
#    Modification time : Tue Mar 25 00:15:07 2014

@<TRIPOS>MOLECULE
1esv_LAR_1_ligand
   60    62     1     0     0
SMALL
NO_CHARGES


@<TRIPOS>ATOM
      1 S1         20.2460   10.1120   81.2040 S.3       1 LAR401      0.0000 
      2 N1         20.1590    8.6840   79.1080 N.am      1 LAR401      0.0000 
      3 O1         18.5560   10.3210   74.9080 O.2       1 LAR401      0.0000 
      4 O2         16.5860   10.0090   75.9840 O.3       1 LAR401      0.0000 
      5 O3         16.5380    8.3510   79.1850 O.3       1 LAR401      0.0000 
      6 O4         17.6900   10.3320   78.8570 O.3       1 LAR401      0.0000 
      7 O5         22.1160    9.8720   79.3550 O.2       1 LAR401      0.0000 
      8 C1         17.4320   10.7150   75.2100 C.2       1 LAR401      0.0000 
      9 C2         16.8500   12.0060   74.8270 C.2       1 LAR401      0.0000 
     10 C3         15.8550   12.7210   75.3660 C.2       1 LAR401      0.0000 
     11 C4         15.1060   12.3010   76.5940 C.3       1 LAR401      0.0000 
     12 C5         13.6540   12.5590   76.3680 C.3       1 LAR401      0.0000 
     13 C6         12.7600   11.9180   77.3710 C.2       1 LAR401      0.0000 
     14 C7         13.0220   11.2140   78.4780 C.2       1 LAR401      0.0000 
     15 C8         11.9750   10.6640   79.2820 C.2       1 LAR401      0.0000 
     16 C9         12.2450   10.0050   80.4270 C.2       1 LAR401      0.0000 
     17 C10        13.6490    9.6900   80.8570 C.3       1 LAR401      0.0000 
     18 C11        14.0930    8.3060   80.4680 C.3       1 LAR401      0.0000 
     19 C12        14.1820    8.0830   78.9790 C.3       1 LAR401      0.0000 
     20 C13        15.3870    8.6760   78.3060 C.3       1 LAR401      0.0000 
     21 C14        15.6150    8.0990   76.9320 C.3       1 LAR401      0.0000 
     22 C15        16.9190    8.6240   76.3780 C.3       1 LAR401      0.0000 
     23 C16        18.0930    8.5640   77.3180 C.3       1 LAR401      0.0000 
     24 C17        17.7610    8.9130   78.7650 C.3       1 LAR401      0.0000 
     25 C18        18.8100    8.3850   79.7170 C.3       1 LAR401      0.0000 
     26 C19        18.8410    8.9200   81.1240 C.3       1 LAR401      0.0000 
     27 C20        21.0060    9.5120   79.6910 C.2       1 LAR401      0.0000 
     28 C21        15.4570   14.0530   74.6810 C.3       1 LAR401      0.0000 
     29 C22        13.8000    9.9830   82.4270 C.3       1 LAR401      0.0000 
     30 H          20.3453    8.1918   78.2195 H         1 LAR401      0.0000 
     31 H          17.3494   12.4269   73.9327 H         1 LAR401      0.0000 
     32 H          15.4546   12.8735   77.4478 H         1 LAR401      0.0000 
     33 H          15.2694   11.2437   76.7774 H         1 LAR401      0.0000 
     34 H          13.3760   12.2064   75.3518 H         1 LAR401      0.0000 
     35 H          13.4755   13.6556   76.3666 H         1 LAR401      0.0000 
     36 H          11.6949   12.0815   77.1096 H         1 LAR401      0.0000 
     37 H          13.9997   11.0401   78.7958 H         1 LAR401      0.0000 
     38 H          11.0008   10.7933   78.9475 H         1 LAR401      0.0000 
     39 H          11.5063    9.6788   81.0741 H         1 LAR401      0.0000 
     40 H          14.3221   10.4276   80.3681 H         1 LAR401      0.0000 
     41 H          13.3932    7.5651   80.9020 H         1 LAR401      0.0000 
     42 H          15.0821    8.1011   80.9227 H         1 LAR401      0.0000 
     43 H          13.2620    8.4905   78.5001 H         1 LAR401      0.0000 
     44 H          14.1576    6.9871   78.7788 H         1 LAR401      0.0000 
     45 H          15.2751    9.7367   78.2496 H         1 LAR401      0.0000 
     46 H          14.7993    8.3882   76.2747 H         1 LAR401      0.0000 
     47 H          15.6577    7.0149   76.9939 H         1 LAR401      0.0000 
     48 H          17.1371    8.0649   75.4679 H         1 LAR401      0.0000 
     49 H          18.8835    9.2527   76.9619 H         1 LAR401      0.0000 
     50 H          18.5317    7.5477   77.2924 H         1 LAR401      0.0000 
     51 H          18.7353    7.2897   79.7548 H         1 LAR401      0.0000 
     52 H          18.0314    9.5362   81.3792 H         1 LAR401      0.0000 
     53 H          19.1198    8.2214   81.8552 H         1 LAR401      0.0000 
     54 H          16.2213   14.6971   74.6491 H         1 LAR401      0.0000 
     55 H          15.1546   13.9101   73.7386 H         1 LAR401      0.0000 
     56 H          14.7090   14.5094   75.1628 H         1 LAR401      0.0000 
     57 H          14.7231    9.7825   82.7551 H         1 LAR401      0.0000 
     58 H          13.6127   10.9406   82.6458 H         1 LAR401      0.0000 
     59 H          13.1690    9.4294   82.9705 H         1 LAR401      0.0000 
     60 H          17.1613   10.6169   78.0574 H         1 LAR401      0.0000 
@<TRIPOS>BOND
     1   26    1 1    
     2   27    1 1    
     3   25    2 1    
     4   27    2 am   
     5   30    2 1    
     6    8    3 2    
     7    8    4 1    
     8   22    4 1    
     9   20    5 1    
    10   24    5 1    
    11   24    6 1    
    12   60    6 1    
    13   27    7 2    
    14    9    8 1    
    15   10    9 2    
    16   31    9 1    
    17   11   10 1    
    18   28   10 1    
    19   12   11 1    
    20   32   11 1    
    21   33   11 1    
    22   13   12 1    
    23   34   12 1    
    24   35   12 1    
    25   14   13 2    
    26   36   13 1    
    27   15   14 1    
    28   37   14 1    
    29   16   15 2    
    30   38   15 1    
    31   17   16 1    
    32   39   16 1    
    33   18   17 1    
    34   29   17 1    
    35   40   17 1    
    36   19   18 1    
    37   41   18 1    
    38   42   18 1    
    39   20   19 1    
    40   43   19 1    
    41   44   19 1    
    42   21   20 1    
    43   45   20 1    
    44   22   21 1    
    45   46   21 1    
    46   47   21 1    
    47   23   22 1    
    48   48   22 1    
    49   24   23 1    
    50   49   23 1    
    51   50   23 1    
    52   25   24 1    
    53   26   25 1    
    54   51   25 1    
    55   52   26 1    
    56   53   26 1    
    57   54   28 1    
    58   55   28 1    
    59   56   28 1    
    60   57   29 1    
    61   58   29 1    
    62   59   29 1    
@<TRIPOS>SUBSTRUCTURE
     1 LAR401      1 GROUP   
@<TRIPOS>SET

