#    Name: 1s9j_BBM_1_INTS_M
#    Modification time : Tue Mar 25 02:08:25 2014

@<TRIPOS>MOLECULE
1s9j_BBM_1_INTS_M
   66     0     6     0     0
SMALL
NO_CHARGES


@<TRIPOS>ATOM
      1 N          30.4735   31.3875   40.4545 N.am      1 SEC2        0.0000 
      2 N          30.0090   31.0060   39.1500 N.am      5 SEL2        0.0000 
      3 N          30.9380   31.7690   41.7590 N.am      3 SEP2        0.0000 
      4 N          29.5760   31.9365   41.3295 N.am      1 SEC2        0.0000 
      5 N          28.2140   32.1040   40.9000 N.am      5 SEL2        0.0000 
      6 CA         29.2685   23.4935   35.6290 C.3       2 GLC5        0.0000 
      7 CA         29.5640   24.8390   36.6610 C.3       6 GLL5        0.0000 
      8 CA         28.9730   22.1480   34.5970 C.3       4 GLP5        0.0000 
      9 CA         32.8445   22.4055   39.5075 C.3       2 GLC5        0.0000 
     10 CA         31.1740   23.2360   38.7450 C.3       6 GLL5        0.0000 
     11 CA         34.5150   21.5750   40.2700 C.3       4 GLP5        0.0000 
     12 CA         30.6960   21.3255   39.4050 C.3       2 GLC5        0.0000 
     13 CA         30.2180   19.4150   40.0650 C.3       4 GLP5        0.0000 
     14 CA         33.9650   23.5755   42.5470 C.3       2 GLC5        0.0000 
     15 CA         32.3610   24.2630   41.2770 C.3       6 GLL5        0.0000 
     16 CA         35.5690   22.8880   43.8170 C.3       4 GLP5        0.0000 
     17 CA         32.1735   26.4845   43.3320 C.3       2 GLC5        0.0000 
     18 CA         33.5490   27.0540   42.0240 C.3       6 GLL5        0.0000 
     19 CA         30.7980   25.9150   44.6400 C.3       4 GLP5        0.0000 
     20 CA         31.7060   29.6565   43.8690 C.3       2 GLC5        0.0000 
     21 CA         33.2220   28.6210   43.8530 C.3       6 GLL5        0.0000 
     22 CA         30.1900   30.6920   43.8850 C.3       4 GLP5        0.0000 
     23 CA         35.0340   24.6035   42.5590 C.3       2 GLC5        0.0000 
     24 CA         34.4990   26.3190   41.3010 C.3       6 GLL5        0.0000 
     25 CA         36.9850   29.1620   41.8095 C.3       2 GLC5        0.0000 
     26 CA         36.3600   27.1900   42.6490 C.3       6 GLL5        0.0000 
     27 CA         37.6100   31.1340   40.9700 C.3       4 GLP5        0.0000 
     28 CA         39.6860   28.8060   43.1705 C.3       2 GLC5        0.0000 
     29 CA         38.4310   27.2560   43.0530 C.3       6 GLL5        0.0000 
     30 CA         40.9410   30.3560   43.2880 C.3       4 GLP5        0.0000 
     31 CA         38.2200   28.7560   41.4175 C.3       2 GLC5        0.0000 
     32 CA         38.0090   30.2560   39.7820 C.3       4 GLP5        0.0000 
     33 CA         38.8130   26.7520   41.0855 C.3       2 GLC5        0.0000 
     34 CA         39.1950   26.2480   39.1180 C.3       4 GLP5        0.0000 
     35 CA         35.8455   29.4730   44.4175 C.3       2 GLC5        0.0000 
     36 CA         35.4560   27.9410   43.3970 C.3       6 GLL5        0.0000 
     37 CA         36.2350   31.0050   45.4380 C.3       4 GLP5        0.0000 
     38 CA         32.8515   28.0215   39.5507 C.3       2 GLC5        0.0000 
     39 CA         31.5990   26.5190   40.6780 C.3       6 GLL5        0.0000 
     40 CA         34.4790   29.0900   38.9090 C.3       4 GLP5        0.0000 
     41 CA         28.6325   27.0225   38.7830 C.3       2 GLC5        0.0000 
     42 CA         30.8490   27.3870   39.7070 C.3       6 GLL5        0.0000 
     43 CA         26.7030   26.9300   38.4350 C.3       4 GLP5        0.0000 
     44 CA         31.6210   24.1550   36.5880 C.3       2 GLC5        0.0000 
     45 CA         30.3740   25.4870   38.2430 C.3       6 GLL5        0.0000 
     46 CA         33.2730   23.1470   35.7240 C.3       4 GLP5        0.0000 
     47 CA         28.3360   26.0465   37.9435 C.3       2 GLC5        0.0000 
     48 CA         32.2035   23.5165   37.3312 C.3       2 GLC5        0.0000 
     49 CA         31.0940   24.5360   39.1320 C.3       6 GLL5        0.0000 
     50 CA         29.6450   23.7944   40.1226 C.3       2 GLC5        0.0000 
     51 CA         28.3360   23.4650   41.5290 C.3       4 GLP5        0.0000 
     52 CA         32.1075   23.3735   42.1208 C.3       2 GLC5        0.0000 
     53 CA         31.7170   25.0610   40.3880 C.3       6 GLL5        0.0000 
     54 CA         32.1760   22.0850   43.4090 C.3       4 GLP5        0.0000 
     55 CA         33.2770   23.1185   40.5512 C.3       2 GLC5        0.0000 
     56 CA         30.1875   24.0635   41.1808 C.3       2 GLC5        0.0000 
     57 CA         31.3085   25.7527   42.6976 C.3       2 GLC5        0.0000 
     58 CA         34.1480   28.2828   40.7415 C.3       2 GLC5        0.0000 
     59 CA         34.0787   29.7540   44.6448 C.3       2 GLC5        0.0000 
     60 CA         34.5040   31.2490   45.8010 C.3       4 GLP5        0.0000 
     61 CA         34.8305   27.7230   40.1825 C.3       2 GLC5        0.0000 
     62 CA         36.7387   24.8368   42.1150 C.3       2 GLC5        0.0000 
     63 CA         35.8650   26.3930   41.6110 C.3       6 GLL5        0.0000 
     64 CA         37.3650   22.8820   42.1000 C.3       4 GLP5        0.0000 
     65 CA         34.0499   27.2500   44.8224 C.3       2 GLC5        0.0000 
     66 CA         33.5450   26.4000   46.2020 C.3       4 GLP5        0.0000 
@<TRIPOS>BOND
@<TRIPOS>SUBSTRUCTURE
     1 SEC2        1 GROUP        1 X    SEC  0     ROOT SEC X 2
     2 GLC5        6 GROUP        1 X    GLC  0     **** GLC X 6
     3 SEP2        3 GROUP        1 Y    SEP  0     ROOT SEP Y 9
     4 GLP5        8 GROUP        1 Y    GLP  0     **** GLP Y 13
     5 SEL2        2 GROUP        1 Z    SEL  0     ROOT SEL Z 16
     6 GLL5        7 GROUP        1 Z    GLL  0     **** GLL Z 20
@<TRIPOS>SET

