#    Name: 1s9j_BBM_1_ligand
#    Modification time : Tue Mar 25 02:08:25 2014

@<TRIPOS>MOLECULE
1s9j_BBM_1_ligand
   40    41     1     0     0
SMALL
NO_CHARGES


@<TRIPOS>ATOM
      1 O1         30.5520   29.2310   41.1140 O.2       1 BBM1001     0.0000 
      2 C7         30.6710   28.8580   39.9590 C.2       1 BBM1001     0.0000 
      3 N2         30.5990   29.7130   38.9400 N.am      1 BBM1001     0.0000 
      4 O4         30.0090   31.0060   39.1500 O.3       1 BBM1001     0.0000 
      5 C15        28.7110   31.3130   38.6420 C.3       1 BBM1001     0.0000 
      6 C16        27.6940   31.3760   39.7790 C.3       1 BBM1001     0.0000 
      7 C17        26.4280   32.0590   39.2780 C.3       1 BBM1001     0.0000 
      8 O3         26.6650   33.4660   39.1650 O.3       1 BBM1001     0.0000 
      9 O2         28.2140   32.1040   40.9000 O.3       1 BBM1001     0.0000 
     10 C8         30.8490   27.3870   39.7070 C.ar      1 BBM1001     0.0000 
     11 C9         30.2750   26.8430   38.5550 C.ar      1 BBM1001     0.0000 
     12 C10        30.3740   25.4870   38.2430 C.ar      1 BBM1001     0.0000 
     13 BR         29.5640   24.8390   36.6610 Br        1 BBM1001     0.0000 
     14 C11        31.0940   24.5360   39.1320 C.ar      1 BBM1001     0.0000 
     15 F1         31.1740   23.2360   38.7450 F         1 BBM1001     0.0000 
     16 C12        31.7170   25.0610   40.3880 C.ar      1 BBM1001     0.0000 
     17 F2         32.3610   24.2630   41.2770 F         1 BBM1001     0.0000 
     18 C13        31.5990   26.5190   40.6780 C.ar      1 BBM1001     0.0000 
     19 N          32.1820   27.0300   41.8040 N.pl3     1 BBM1001     0.0000 
     20 C3         33.5490   27.0540   42.0240 C.ar      1 BBM1001     0.0000 
     21 C26        34.0850   27.8970   43.1240 C.ar      1 BBM1001     0.0000 
     22 F3         33.2220   28.6210   43.8530 F         1 BBM1001     0.0000 
     23 C4         34.4990   26.3190   41.3010 C.ar      1 BBM1001     0.0000 
     24 C5         35.8650   26.3930   41.6110 C.ar      1 BBM1001     0.0000 
     25 C6         36.3600   27.1900   42.6490 C.ar      1 BBM1001     0.0000 
     26 I          38.4310   27.2560   43.0530 I         1 BBM1001     0.0000 
     27 C1         35.4560   27.9410   43.3970 C.ar      1 BBM1001     0.0000 
     28 H          30.9467   29.4963   37.9994 H         1 BBM1001     0.0000 
     29 H          28.3649   30.5542   37.9258 H         1 BBM1001     0.0000 
     30 H          28.6957   32.2835   38.1259 H         1 BBM1001     0.0000 
     31 H          27.4354   30.3637   40.0560 H         1 BBM1001     0.0000 
     32 H          25.6235   31.8402   39.9863 H         1 BBM1001     0.0000 
     33 H          26.1638   31.6148   38.3138 H         1 BBM1001     0.0000 
     34 H          29.7552   27.4729   37.9072 H         1 BBM1001     0.0000 
     35 H          31.5558   27.4341   42.5588 H         1 BBM1001     0.0000 
     36 H          34.1876   25.7116   40.5256 H         1 BBM1001     0.0000 
     37 H          36.5371   25.8312   41.0445 H         1 BBM1001     0.0000 
     38 H          35.8010   28.5399   44.1650 H         1 BBM1001     0.0000 
     39 H          25.7553   33.8788   39.1198 H         1 BBM1001     0.0000 
     40 H          27.7780   33.0025   40.8497 H         1 BBM1001     0.0000 
@<TRIPOS>BOND
     1    2    1 2    
     2    3    2 am   
     3   10    2 1    
     4    4    3 1    
     5   28    3 1    
     6    5    4 1    
     7    6    5 1    
     8   29    5 1    
     9   30    5 1    
    10    7    6 1    
    11    9    6 1    
    12   31    6 1    
    13    8    7 1    
    14   32    7 1    
    15   33    7 1    
    16   39    8 1    
    17   40    9 1    
    18   11   10 ar   
    19   18   10 ar   
    20   12   11 ar   
    21   34   11 1    
    22   13   12 1    
    23   14   12 ar   
    24   15   14 1    
    25   16   14 ar   
    26   17   16 1    
    27   18   16 ar   
    28   19   18 1    
    29   20   19 1    
    30   35   19 1    
    31   21   20 ar   
    32   23   20 ar   
    33   22   21 1    
    34   27   21 ar   
    35   24   23 ar   
    36   36   23 1    
    37   25   24 ar   
    38   37   24 1    
    39   26   25 1    
    40   27   25 ar   
    41   38   27 1    
@<TRIPOS>SUBSTRUCTURE
     1 BBM1001     1 GROUP   
@<TRIPOS>SET

