#    Name: 3fup_MI1_2_INTS_M
#    Modification time : Tue Mar 25 06:37:09 2014

@<TRIPOS>MOLECULE
3fup_MI1_2_INTS_M
   62     0     9     0     0
SMALL
NO_CHARGES


@<TRIPOS>ATOM
      1 CA        -21.1650   53.6200  -15.6880 C.3       3 GLC5        0.0000 
      2 CA        -22.4030   53.3850  -13.8510 C.3       9 GLL5        0.0000 
      3 CA        -19.9270   53.8550  -17.5250 C.3       6 GLP5        0.0000 
      4 CA        -25.9410   52.4645  -10.3615 C.3       3 GLC5        0.0000 
      5 CA        -24.7600   52.5080  -12.2690 C.3       9 GLL5        0.0000 
      6 CA        -27.1220   52.4210   -8.4540 C.3       6 GLP5        0.0000 
      7 CA        -23.6015   52.5020  -18.9315 C.3       3 GLC5        0.0000 
      8 CA        -25.0660   52.5810  -17.6310 C.3       9 GLL5        0.0000 
      9 CA        -22.1370   52.4230  -20.2320 C.3       6 GLP5        0.0000 
     10 CA        -25.1685   51.4405  -19.0915 C.3       3 GLC5        0.0000 
     11 CA        -25.2710   50.3000  -20.5520 C.3       6 GLP5        0.0000 
     12 CA        -26.9595   53.5600  -17.4850 C.3       3 GLC5        0.0000 
     13 CA        -28.8530   54.5390  -17.3390 C.3       6 GLP5        0.0000 
     14 CA        -20.8580   50.6385  -10.7040 C.3       3 GLC5        0.0000 
     15 CA        -22.6950   51.7180  -11.2160 C.3       9 GLL5        0.0000 
     16 CA        -19.0210   49.5590  -10.1920 C.3       6 GLP5        0.0000 
     17 CA        -23.7305   49.8250  -10.9385 C.3       3 GLC5        0.0000 
     18 CA        -24.7660   47.9320  -10.6610 C.3       6 GLP5        0.0000 
     19 CA        -22.3675   52.5575   -9.8825 C.3       3 GLC5        0.0000 
     20 CA        -22.0400   53.3970   -8.5490 C.3       6 GLP5        0.0000 
     21 CA        -19.7645   55.6085  -13.3315 C.3       3 GLC5        0.0000 
     22 CA        -20.2450   54.0310  -12.1760 C.3       9 GLL5        0.0000 
     23 CA        -19.2840   57.1860  -14.4870 C.3       6 GLP5        0.0000 
     24 CA        -21.1425   53.7140  -10.3625 C.3       3 GLC5        0.0000 
     25 CA        -20.9060   57.3815  -12.0005 C.3       3 GLC5        0.0000 
     26 CA        -21.6820   55.6640  -11.0470 C.3       9 GLL5        0.0000 
     27 CA        -20.1300   59.0990  -12.9540 C.3       6 GLP5        0.0000 
     28 CA        -21.8610   54.5305   -9.7980 C.3       3 GLC5        0.0000 
     29 CA        -25.9680   57.0025   -8.7010 C.3       3 GLC5        0.0000 
     30 CA        -24.9380   57.0380  -10.2810 C.3       9 GLL5        0.0000 
     31 CA        -26.9980   56.9670   -7.1210 C.3       6 GLP5        0.0000 
     32 O         -24.3580   59.0045   -8.7515 O.2       1 ALC1        0.0000 
     33 O         -24.0800   57.7980   -9.5370 O.2       7 ALL1        0.0000 
     34 O         -24.6360   60.2110   -7.9660 O.2       4 ALP1        0.0000 
     35 CA        -22.4310   59.2765   -8.7635 C.3       3 GLC5        0.0000 
     36 CA        -22.8240   57.3820   -9.7170 C.3       9 GLL5        0.0000 
     37 CA        -22.0380   61.1710   -7.8100 C.3       6 GLP5        0.0000 
     38 N         -21.3370   58.4730   -8.0400 N.am      2 SEC2        0.0000 
     39 N         -21.6420   57.7580   -9.2360 N.am      8 SEL2        0.0000 
     40 N         -21.0320   59.1880   -6.8440 N.am      5 SEP2        0.0000 
     41 CA        -20.3275   58.1230  -11.2975 C.3       3 GLC5        0.0000 
     42 CA        -20.5250   57.1470   -9.6410 C.3       9 GLL5        0.0000 
     43 CA        -20.4280   57.7770   -7.7360 C.3       3 GLC5        0.0000 
     44 CA        -20.3310   58.4070   -5.8310 C.3       6 GLP5        0.0000 
     45 CA        -21.2825   55.2720   -9.0950 C.3       3 GLC5        0.0000 
     46 CA        -23.7123   54.9567  -14.5560 C.3       3 GLC5        0.0000 
     47 CA        -22.8160   54.0240  -12.5550 C.3       9 GLL5        0.0000 
     48 CA        -24.8150   56.2090  -15.9090 C.3       6 GLP5        0.0000 
     49 CA        -22.5955   53.4495  -10.3165 C.3       3 GLC5        0.0000 
     50 CA        -26.2897   51.6445  -12.8382 C.3       3 GLC5        0.0000 
     51 CA        -27.9930   51.1280  -12.7480 C.3       6 GLP5        0.0000 
     52 CA        -24.8903   54.3068  -16.4622 C.3       3 GLC5        0.0000 
     53 CA        -24.8650   52.2280  -16.4000 C.3       9 GLL5        0.0000 
     54 CA        -23.5120   57.0613  -12.7880 C.3       3 GLC5        0.0000 
     55 CA        -24.2680   56.0660  -11.0160 C.3       9 GLL5        0.0000 
     56 CA        -23.4440   57.9520  -14.7310 C.3       6 GLP5        0.0000 
     57 CA        -26.0025   57.3960  -11.6427 C.3       3 GLC5        0.0000 
     58 CA        -27.4020   58.2400  -12.6370 C.3       6 GLP5        0.0000 
     59 CA        -23.5823   58.6536  -10.8980 C.3       3 GLC5        0.0000 
     60 CA        -23.6230   60.3140  -11.6560 C.3       6 GLP5        0.0000 
     61 CA        -23.8698   55.7366   -8.9765 C.3       3 GLC5        0.0000 
     62 CA        -24.1980   54.4800   -7.8130 C.3       6 GLP5        0.0000 
@<TRIPOS>BOND
@<TRIPOS>SUBSTRUCTURE
     1 ALC1       32 GROUP        1 X    ALC  0     ROOT ALC X 1
     2 SEC2       38 GROUP        1 X    SEC  0     **** SEC X 2
     3 GLC5        1 GROUP        1 X    GLC  0     **** GLC X 6
     4 ALP1       34 GROUP        1 Y    ALP  0     ROOT ALP Y 8
     5 SEP2       40 GROUP        1 Y    SEP  0     **** SEP Y 9
     6 GLP5        3 GROUP        1 Y    GLP  0     **** GLP Y 13
     7 ALL1       33 GROUP        1 Z    ALL  0     ROOT ALL Z 15
     8 SEL2       39 GROUP        1 Z    SEL  0     **** SEL Z 16
     9 GLL5        2 GROUP        1 Z    GLL  0     **** GLL Z 20
@<TRIPOS>SET

