#    Name: 3fup_MI1_2_ligand
#    Modification time : Tue Mar 25 06:37:09 2014

@<TRIPOS>MOLECULE
3fup_MI1_2_ligand
   43    45     1     0     0
SMALL
NO_CHARGES


@<TRIPOS>ATOM
      1 C1        -22.8160   54.0240  -12.5550 C.3       1 MI11        0.0000 
      2 C2        -22.4030   53.3850  -13.8510 C.3       1 MI11        0.0000 
      3 C4        -24.4130   51.8140  -13.5880 C.3       1 MI11        0.0000 
      4 C5        -24.7600   52.5080  -12.2690 C.3       1 MI11        0.0000 
      5 C6        -23.4860   52.9800  -11.6130 C.3       1 MI11        0.0000 
      6 N3        -23.5610   52.6810  -14.4010 N.am      1 MI11        0.0000 
      7 O21       -22.9470   53.5950  -16.2670 O.2       1 MI11        0.0000 
      8 C20       -23.7400   52.8640  -15.6890 C.2       1 MI11        0.0000 
      9 C22       -24.8650   52.2280  -16.4000 C.3       1 MI11        0.0000 
     10 C23       -25.0660   52.5810  -17.6310 C.1       1 MI11        0.0000 
     11 N24       -25.5520   53.2850  -18.4830 N.1       1 MI11        0.0000 
     12 C7        -22.6950   51.7180  -11.2160 C.3       1 MI11        0.0000 
     13 N8        -21.6060   54.5760  -11.9100 N.3       1 MI11        0.0000 
     14 C9        -20.2450   54.0310  -12.1760 C.3       1 MI11        0.0000 
     15 C10       -21.6820   55.6640  -11.0470 C.ar      1 MI11        0.0000 
     16 C15       -22.8920   56.2750  -10.6740 C.ar      1 MI11        0.0000 
     17 C16       -24.2680   56.0660  -11.0160 C.2       1 MI11        0.0000 
     18 C11       -24.9380   57.0380  -10.2810 C.2       1 MI11        0.0000 
     19 N12       -24.0800   57.7980   -9.5370 N.pl3     1 MI11        0.0000 
     20 C14       -22.8240   57.3820   -9.7170 C.ar      1 MI11        0.0000 
     21 N17       -21.6420   57.7580   -9.2360 N.ar      1 MI11        0.0000 
     22 C18       -20.5250   57.1470   -9.6410 C.ar      1 MI11        0.0000 
     23 N19       -20.5270   56.1340  -10.4920 N.ar      1 MI11        0.0000 
     24 H         -23.5205   54.8056  -12.7476 H         1 MI11        0.0000 
     25 H         -21.5859   52.6923  -13.6615 H         1 MI11        0.0000 
     26 H         -22.0618   54.1582  -14.5359 H         1 MI11        0.0000 
     27 H         -25.3457   51.5832  -14.1085 H         1 MI11        0.0000 
     28 H         -23.9064   50.8739  -13.3566 H         1 MI11        0.0000 
     29 H         -25.2697   51.8046  -11.6224 H         1 MI11        0.0000 
     30 H         -25.4055   53.3532  -12.4730 H         1 MI11        0.0000 
     31 H         -23.7893   53.4985  -10.6917 H         1 MI11        0.0000 
     32 H         -25.7887   52.3893  -15.7332 H         1 MI11        0.0000 
     33 H         -24.7105   51.0941  -16.2807 H         1 MI11        0.0000 
     34 H         -24.5987   55.4371  -11.5840 H         1 MI11        0.0000 
     35 H         -25.9086   57.1535  -10.3028 H         1 MI11        0.0000 
     36 H         -24.3620   58.5349   -8.9623 H         1 MI11        0.0000 
     37 H         -19.5909   57.4962   -9.2572 H         1 MI11        0.0000 
     38 H         -22.4407   51.1725  -12.0146 H         1 MI11        0.0000 
     39 H         -21.8483   51.9463  -10.7353 H         1 MI11        0.0000 
     40 H         -23.2242   51.1230  -10.6111 H         1 MI11        0.0000 
     41 H         -19.5415   54.5215  -11.6618 H         1 MI11        0.0000 
     42 H         -20.1750   53.0664  -11.9217 H         1 MI11        0.0000 
     43 H         -20.0009   54.0975  -13.1435 H         1 MI11        0.0000 
@<TRIPOS>BOND
     1    2    1 1    
     2    5    1 1    
     3   13    1 1    
     4   24    1 1    
     5    6    2 1    
     6   25    2 1    
     7   26    2 1    
     8    4    3 1    
     9    6    3 1    
    10   27    3 1    
    11   28    3 1    
    12    5    4 1    
    13   29    4 1    
    14   30    4 1    
    15   12    5 1    
    16   31    5 1    
    17    8    6 am   
    18    8    7 2    
    19    9    8 1    
    20   10    9 1    
    21   32    9 1    
    22   33    9 1    
    23   11   10 3    
    24   38   12 1    
    25   39   12 1    
    26   40   12 1    
    27   14   13 1    
    28   15   13 1    
    29   41   14 1    
    30   42   14 1    
    31   43   14 1    
    32   16   15 ar   
    33   23   15 ar   
    34   17   16 1    
    35   20   16 ar   
    36   18   17 2    
    37   34   17 1    
    38   19   18 1    
    39   35   18 1    
    40   20   19 1    
    41   36   19 1    
    42   21   20 ar   
    43   22   21 ar   
    44   23   22 ar   
    45   37   22 1    
@<TRIPOS>SUBSTRUCTURE
     1 MI11        1 GROUP   
@<TRIPOS>SET

