#    Name: 2IPG_2_CAVITY_N1_ALL.mol2
#    Modification time : Mon Mar 10 19:51:42 2014

@<TRIPOS>MOLECULE
2IPG_2_CAVITY_N1_ALL.mol2
   96     0     5     0     0
SMALL
NO_CHARGES


@<TRIPOS>ATOM
      1 CZ         12.6397    1.4125   84.0002 C.ar      3 PHE5        0.0000 
      2 CZ         13.3805    0.1579   84.3566 C.ar      3 PHE5        0.0000 
      3 O          14.1213   -1.0968   84.7130 O.2       2 ALA2        0.0000 
      4 N          11.3412    0.6645   84.0656 N.2       2 ALA2        0.0000 
      5 DU         12.0820   -0.5902   84.4220 H         5 CUB7        0.0000 
      6 DU         12.8228   -1.8449   84.7784 H         5 CUB7        0.0000 
      7 O          13.5635   -3.0996   85.1348 O.2       2 ALA2        0.0000 
      8 CZ         14.3043   -4.3543   85.4912 C.ar      3 PHE5        0.0000 
      9 N          10.0427   -0.0836   84.1311 N.2       2 ALA2        0.0000 
     10 DU         10.7835   -1.3383   84.4874 H         5 CUB7        0.0000 
     11 DU         11.5243   -2.5930   84.8438 H         5 CUB7        0.0000 
     12 CA         12.2651   -3.8477   85.2002 C.3       4 GLY6        0.0000 
     13 N           8.7442   -0.8317   84.1965 N.2       2 ALA2        0.0000 
     14 N           9.4850   -2.0864   84.5529 N.2       2 ALA2        0.0000 
     15 N          10.2258   -3.3410   84.9093 N.2       2 ALA2        0.0000 
     16 CA         10.9666   -4.5957   85.2656 C.3       4 GLY6        0.0000 
     17 CA         15.5428   -0.6896   83.1919 C.3       4 GLY6        0.0000 
     18 CZ         13.5035   -0.1830   82.9010 C.ar      3 PHE5        0.0000 
     19 O          14.2443   -1.4376   83.2574 O.2       2 ALA2        0.0000 
     20 CZ         14.9851   -2.6923   83.6138 C.ar      3 PHE5        0.0000 
     21 N          11.4642    0.3236   82.6100 N.2       2 ALA2        0.0000 
     22 DU         12.2050   -0.9310   82.9664 H         5 CUB7        0.0000 
     23 DU         12.9458   -2.1857   83.3228 H         5 CUB7        0.0000 
     24 DU         13.6866   -3.4404   83.6792 H         5 CUB7        0.0000 
     25 CZ         14.4273   -4.6951   84.0356 C.ar      3 PHE5        0.0000 
     26 N          10.1657   -0.4244   82.6755 N.2       2 ALA2        0.0000 
     27 CZ         10.9065   -1.6791   83.0319 C.ar      3 PHE5        0.0000 
     28 CZ         11.6473   -2.9338   83.3882 C.ar      3 PHE5        0.0000 
     29 CA         12.3881   -4.1885   83.7446 C.3       4 GLY6        0.0000 
     30 CA         13.1288   -5.4432   84.1010 C.3       4 GLY6        0.0000 
     31 N           8.8672   -1.1725   82.7409 N.2       2 ALA2        0.0000 
     32 CA          9.6080   -2.4272   83.0973 C.3       4 GLY6        0.0000 
     33 N          10.3488   -3.6819   83.4537 N.2       2 ALA2        0.0000 
     34 CZ         15.6658   -1.0304   81.7364 C.ar      3 PHE5        0.0000 
     35 CZ         16.4066   -2.2851   82.0927 C.ar      3 PHE5        0.0000 
     36 CZ         13.6265   -0.5238   81.4454 C.ar      3 PHE5        0.0000 
     37 DU         14.3673   -1.7785   81.8018 H         5 CUB7        0.0000 
     38 DU         15.1081   -3.0331   82.1582 H         5 CUB7        0.0000 
     39 CZ         15.8488   -4.2878   82.5146 C.ar      3 PHE5        0.0000 
     40 CA         11.5872   -0.0172   81.1545 C.3       4 GLY6        0.0000 
     41 CA         12.3280   -1.2719   81.5108 C.3       4 GLY6        0.0000 
     42 CZ         13.0688   -2.5265   81.8672 C.ar      3 PHE5        0.0000 
     43 DU         13.8096   -3.7812   82.2236 H         5 CUB7        0.0000 
     44 CZ         14.5503   -5.0359   82.5800 C.ar      3 PHE5        0.0000 
     45 CZ         15.2911   -6.2906   82.9364 C.ar      3 PHE5        0.0000 
     46 CA         10.2887   -0.7653   81.2199 C.3       4 GLY6        0.0000 
     47 CZ         11.0295   -2.0199   81.5763 C.ar      3 PHE5        0.0000 
     48 CZ         11.7703   -3.2746   81.9327 C.ar      3 PHE5        0.0000 
     49 CA         12.5111   -4.5293   82.2890 C.3       4 GLY6        0.0000 
     50 CA         13.2518   -5.7840   82.6454 C.3       4 GLY6        0.0000 
     51 CA         14.5560    1.2468   85.7467 C.3       4 GLY6        0.0000 
     52 O          12.5167    1.7534   85.4558 O.2       2 ALA2        0.0000 
     53 DU         13.2575    0.4987   85.8122 H         5 CUB7        0.0000 
     54 O          13.9983   -0.7560   86.1685 O.2       2 ALA2        0.0000 
     55 O          11.2182    1.0053   85.5212 O.2       2 ALA2        0.0000 
     56 DU         11.9590   -0.2494   85.8776 H         5 CUB7        0.0000 
     57 DU         12.6998   -1.5041   86.2340 H         5 CUB7        0.0000 
     58 O          13.4405   -2.7588   86.5903 O.2       2 ALA2        0.0000 
     59 CZ         14.1813   -4.0134   86.9467 C.ar      3 PHE5        0.0000 
     60 CA          9.9197    0.2572   85.5866 C.3       4 GLY6        0.0000 
     61 DU         10.6605   -0.9975   85.9430 H         5 CUB7        0.0000 
     62 DU         11.4013   -2.2522   86.2994 H         5 CUB7        0.0000 
     63 CZ         12.1420   -3.5068   86.6558 C.ar      3 PHE5        0.0000 
     64 DU          8.6212   -0.4909   85.6521 H         5 CUB7        0.0000 
     65 N           9.3620   -1.7455   86.0084 N.2       2 ALA2        0.0000 
     66 N          10.1028   -3.0002   86.3648 N.2       2 ALA2        0.0000 
     67 CZ         10.8435   -4.2549   86.7212 C.ar      3 PHE5        0.0000 
     68 O           8.0635   -2.4936   86.0739 O.2       2 ALA2        0.0000 
     69 O           8.8043   -3.7483   86.4303 O.2       2 ALA2        0.0000 
     70 N           9.5450   -5.0030   86.7866 N.2       2 ALA2        0.0000 
     71 CZ         15.7888   -1.3712   80.2808 C.ar      3 PHE5        0.0000 
     72 CZ         16.5296   -2.6259   80.6372 C.ar      3 PHE5        0.0000 
     73 CZ         13.7495   -0.8646   79.9898 C.ar      3 PHE5        0.0000 
     74 CZ         14.4903   -2.1193   80.3462 C.ar      3 PHE5        0.0000 
     75 CZ         15.2311   -3.3740   80.7026 C.ar      3 PHE5        0.0000 
     76 OG         15.9718   -4.6286   81.0590 O.2       1 SER1        0.0000 
     77 CA         12.4510   -1.6127   80.0553 C.3       4 GLY6        0.0000 
     78 CZ         13.1918   -2.8674   80.4117 C.ar      3 PHE5        0.0000 
     79 CZ         13.9326   -4.1220   80.7680 C.ar      3 PHE5        0.0000 
     80 N          14.6734   -5.3767   81.1244 N.2       2 ALA2        0.0000 
     81 CA         11.7130    0.4322   88.7887 C.3       4 GLY6        0.0000 
     82 N          14.4330    1.5876   87.2023 N.2       2 ALA2        0.0000 
     83 N          15.1737    0.3329   87.5587 N.2       2 ALA2        0.0000 
     84 CA         13.1345    0.8395   87.2677 C.3       4 GLY6        0.0000 
     85 O          13.8753   -0.4152   87.6241 O.2       2 ALA2        0.0000 
     86 O          14.6160   -1.6699   87.9805 O.2       2 ALA2        0.0000 
     87 CA         11.8360    0.0914   87.3332 C.3       4 GLY6        0.0000 
     88 DU         12.5768   -1.1633   87.6895 H         5 CUB7        0.0000 
     89 O          13.3175   -2.4179   88.0459 O.2       2 ALA2        0.0000 
     90 CA         10.5375   -0.6566   87.3986 C.3       4 GLY6        0.0000 
     91 DU         11.2783   -1.9113   87.7550 H         5 CUB7        0.0000 
     92 CZ         12.0190   -3.1660   88.1114 C.ar      3 PHE5        0.0000 
     93 CA          8.4982   -0.1500   87.1076 C.3       4 GLY6        0.0000 
     94 CA          9.2390   -1.4047   87.4640 C.3       4 GLY6        0.0000 
     95 DU          9.9798   -2.6594   87.8204 H         5 CUB7        0.0000 
     96 O           9.4220   -4.6622   88.2422 O.2       2 ALA2        0.0000 
@<TRIPOS>BOND
@<TRIPOS>SUBSTRUCTURE
     1 SER1       76 GROUP   
     2 ALA2        3 GROUP   
     3 PHE5        1 GROUP   
     4 GLY6       12 GROUP   
     5 CUB7        5 GROUP   
@<TRIPOS>SET

