#    Name: 2ipg_FFA_2_INTS_M
#    Modification time : Tue Mar 25 18:29:13 2014

@<TRIPOS>MOLECULE
2ipg_FFA_2_INTS_M
   65     0     9     0     0
SMALL
NO_CHARGES


@<TRIPOS>ATOM
      1 CA         12.6090    1.3755   82.7875 C.3       3 GLC5        0.0000 
      2 CA         11.1630    0.1260   83.7320 C.3       9 GLL5        0.0000 
      3 CA         14.0550    2.6250   81.8430 C.3       6 GLP5        0.0000 
      4 CA         10.1255    2.4535   85.6895 C.3       3 GLC5        0.0000 
      5 CA         10.1700    0.7380   84.7530 C.3       9 GLL5        0.0000 
      6 CA         10.0810    4.1690   86.6260 C.3       6 GLP5        0.0000 
      7 CA         10.1645    0.3480   87.4945 C.3       3 GLC5        0.0000 
      8 CA         10.6000   -1.4010   86.1560 C.3       9 GLL5        0.0000 
      9 CA          9.7290    2.0970   88.8330 C.3       6 GLP5        0.0000 
     10 CA         15.4700   -3.0390   84.5650 C.3       3 GLC5        0.0000 
     11 CA         13.6870   -2.9460   83.5620 C.3       9 GLL5        0.0000 
     12 CA         17.2530   -3.1320   85.5680 C.3       6 GLP5        0.0000 
     13 CA         11.8445   -5.4285   84.6095 C.3       3 GLC5        0.0000 
     14 CA         13.0010   -3.7770   84.6860 C.3       9 GLL5        0.0000 
     15 CA         10.6880   -7.0800   84.5330 C.3       6 GLP5        0.0000 
     16 CA         15.0040   -4.1410   85.1785 C.3       3 GLC5        0.0000 
     17 CA         17.0070   -4.5050   85.6710 C.3       6 GLP5        0.0000 
     18 CA         13.7165    0.8170   81.8600 C.3       3 GLC5        0.0000 
     19 CA         13.3780   -0.9910   81.8770 C.3       9 GLL5        0.0000 
     20 CA         12.3000   -3.0685   80.0385 C.3       3 GLC5        0.0000 
     21 CA         13.7600   -1.9820   80.7380 C.3       9 GLL5        0.0000 
     22 CA         10.8400   -4.1550   79.3390 C.3       6 GLP5        0.0000 
     23 CA         13.9860    0.0795   80.1155 C.3       3 GLC5        0.0000 
     24 CA         14.2120    2.1410   79.4930 C.3       6 GLP5        0.0000 
     25 CA         14.6795   -1.7775   78.9080 C.3       3 GLC5        0.0000 
     26 CA         15.5990   -1.5730   77.0780 C.3       6 GLP5        0.0000 
     27 CA         12.4725   -4.0010   80.8485 C.3       3 GLC5        0.0000 
     28 CA         14.1050   -3.8470   82.3580 C.3       9 GLL5        0.0000 
     29 CA         15.5560   -4.1760   84.0145 C.3       3 GLC5        0.0000 
     30 CA         14.9820   -6.9380   83.1640 C.3       3 GLC5        0.0000 
     31 CA         15.0620   -5.0350   82.5600 C.3       9 GLL5        0.0000 
     32 CA         14.9020   -8.8410   83.7680 C.3       6 GLP5        0.0000 
     33 CA         16.4095   -5.1890   83.7225 C.3       3 GLC5        0.0000 
     34 CA         17.7570   -5.3430   84.8850 C.3       6 GLP5        0.0000 
     35 CA         14.8320   -7.2765   81.8295 C.3       3 GLC5        0.0000 
     36 CA         15.4230   -5.4130   81.0990 C.3       9 GLL5        0.0000 
     37 CA         14.2410   -9.1400   82.5600 C.3       6 GLP5        0.0000 
     38 CA         14.9535   -6.9895   79.6970 C.3       3 GLC5        0.0000 
     39 CA         14.4840   -8.5660   78.2950 C.3       6 GLP5        0.0000 
     40 CA         17.0795   -5.1285   82.5530 C.3       3 GLC5        0.0000 
     41 CA         18.7360   -4.8440   84.0070 C.3       6 GLP5        0.0000 
     42 CA         13.0140   -4.1550   79.7820 C.3       3 GLC5        0.0000 
     43 CA         15.1880   -4.1550   80.2250 C.3       9 GLL5        0.0000 
     44 CA         17.1850   -2.4635   83.1500 C.3       3 GLC5        0.0000 
     45 CA         16.1420   -2.3260   81.6040 C.3       9 GLL5        0.0000 
     46 CA         18.2280   -2.6010   84.6960 C.3       6 GLP5        0.0000 
     47 CA         18.2400   -2.3840   80.9045 C.3       3 GLC5        0.0000 
     48 CA         20.3380   -2.4420   80.2050 C.3       6 GLP5        0.0000 
     49 CA         13.7625    1.3305   83.3360 C.3       3 GLC5        0.0000 
     50 CA         13.4700    0.0360   84.8290 C.3       9 GLL5        0.0000 
     51 CA         15.3585   -0.4365   85.3065 C.3       3 GLC5        0.0000 
     52 CA         17.2470   -0.9090   85.7840 C.3       6 GLP5        0.0000 
     53 N          12.9560   -4.3480   78.2135 N.am      2 SEC2        0.0000 
     54 N          14.1310   -4.4360   79.2870 N.am      8 SEL2        0.0000 
     55 N          11.7810   -4.2600   77.1400 N.am      5 SEP2        0.0000 
     56 O          14.0345   -5.8850   78.9250 O.2       1 ALC1        0.0000 
     57 O          14.1310   -4.4360   79.2870 O.2       7 ALL1        0.0000 
     58 O          13.9380   -7.3340   78.5630 O.2       4 ALP1        0.0000 
     59 CA         13.3775   -4.9475   86.1393 C.3       3 GLC5        0.0000 
     60 CA         13.9750   -6.5510   86.9950 C.3       6 GLP5        0.0000 
     61 CA         15.4765   -3.2765   78.8992 C.3       3 GLC5        0.0000 
     62 CA         14.7980   -3.0470   81.2280 C.3       9 GLL5        0.0000 
     63 CA         15.9600   -2.9520   77.0720 C.3       6 GLP5        0.0000 
     64 CA         16.3963   -6.7270   81.3462 C.3       3 GLC5        0.0000 
     65 CA         17.5500   -8.2300   80.8630 C.3       6 GLP5        0.0000 
@<TRIPOS>BOND
@<TRIPOS>SUBSTRUCTURE
     1 ALC1       56 GROUP        1 X    ALC  0     ROOT ALC X 1
     2 SEC2       53 GROUP        1 X    SEC  0     **** SEC X 2
     3 GLC5        1 GROUP        1 X    GLC  0     **** GLC X 6
     4 ALP1       58 GROUP        1 Y    ALP  0     ROOT ALP Y 8
     5 SEP2       55 GROUP        1 Y    SEP  0     **** SEP Y 9
     6 GLP5        3 GROUP        1 Y    GLP  0     **** GLP Y 13
     7 ALL1       57 GROUP        1 Z    ALL  0     ROOT ALL Z 15
     8 SEL2       54 GROUP        1 Z    SEL  0     **** SEL Z 16
     9 GLL5        2 GROUP        1 Z    GLL  0     **** GLL Z 20
@<TRIPOS>SET

