#    Name: 2ipg_FFA_2_ligand
#    Modification time : Tue Mar 25 18:29:13 2014

@<TRIPOS>MOLECULE
2ipg_FFA_2_ligand
   49    52     1     0     0
SMALL
NO_CHARGES


@<TRIPOS>ATOM
      1 C1         11.1630    0.1260   83.7320 C.3       1 FFA4        0.0000 
      2 C2         10.1700    0.7380   84.7530 C.3       1 FFA4        0.0000 
      3 C3          9.7390   -0.2200   85.8620 C.2       1 FFA4        0.0000 
      4 C4         10.6000   -1.4010   86.1560 C.2       1 FFA4        0.0000 
      5 C5         11.7400   -1.6810   85.4680 C.2       1 FFA4        0.0000 
      6 C6         12.2960   -0.8310   84.2810 C.3       1 FFA4        0.0000 
      7 C7         12.7310   -1.7870   83.0870 C.3       1 FFA4        0.0000 
      8 C8         13.6870   -2.9460   83.5620 C.3       1 FFA4        0.0000 
      9 C9         13.0010   -3.7770   84.6860 C.3       1 FFA4        0.0000 
     10 C10        12.5590   -2.9110   85.8810 C.3       1 FFA4        0.0000 
     11 C11        13.3780   -0.9910   81.8770 C.3       1 FFA4        0.0000 
     12 C12        13.7600   -1.9820   80.7380 C.3       1 FFA4        0.0000 
     13 C14        14.1050   -3.8470   82.3580 C.3       1 FFA4        0.0000 
     14 C13        14.7980   -3.0470   81.2280 C.3       1 FFA4        0.0000 
     15 C15        15.0620   -5.0350   82.5600 C.3       1 FFA4        0.0000 
     16 C16        15.4230   -5.4130   81.0990 C.3       1 FFA4        0.0000 
     17 C17        15.1880   -4.1550   80.2250 C.3       1 FFA4        0.0000 
     18 C18        16.1420   -2.3260   81.6040 C.3       1 FFA4        0.0000 
     19 C19        13.4700    0.0360   84.8290 C.3       1 FFA4        0.0000 
     20 O3          8.7180   -0.0140   86.5060 O.2       1 FFA4        0.0000 
     21 O17        14.1310   -4.4360   79.2870 O.3       1 FFA4        0.0000 
     22 H          11.6611    0.9524   83.1777 H         1 FFA4        0.0000 
     23 H          10.5863   -0.4407   82.9674 H         1 FFA4        0.0000 
     24 H           9.2790    1.0842   84.2057 H         1 FFA4        0.0000 
     25 H          10.6393    1.6270   85.2032 H         1 FFA4        0.0000 
     26 H          10.2677   -2.0076   86.9341 H         1 FFA4        0.0000 
     27 H          11.8169   -2.2610   82.7016 H         1 FFA4        0.0000 
     28 H          14.5767   -2.4881   83.9718 H         1 FFA4        0.0000 
     29 H          13.7029   -4.5385   85.0336 H         1 FFA4        0.0000 
     30 H          12.1280   -4.2798   84.2636 H         1 FFA4        0.0000 
     31 H          11.9599   -3.5279   86.5625 H         1 FFA4        0.0000 
     32 H          13.4512   -2.5803   86.4273 H         1 FFA4        0.0000 
     33 H          14.2616   -0.4927   82.2321 H         1 FFA4        0.0000 
     34 H          12.6564   -0.2833   81.5115 H         1 FFA4        0.0000 
     35 H          14.1934   -1.4258   79.9143 H         1 FFA4        0.0000 
     36 H          12.8668   -2.4954   80.4000 H         1 FFA4        0.0000 
     37 H          13.1865   -4.2567   81.8806 H         1 FFA4        0.0000 
     38 H          14.5519   -5.8336   83.0118 H         1 FFA4        0.0000 
     39 H          15.9271   -4.7172   83.0628 H         1 FFA4        0.0000 
     40 H          14.7801   -6.2006   80.7681 H         1 FFA4        0.0000 
     41 H          16.4540   -5.6920   81.0501 H         1 FFA4        0.0000 
     42 H          16.1038   -3.9000   79.7705 H         1 FFA4        0.0000 
     43 H          16.8332   -2.9731   81.9256 H         1 FFA4        0.0000 
     44 H          16.5350   -1.8418   80.8223 H         1 FFA4        0.0000 
     45 H          16.0110   -1.6517   82.3308 H         1 FFA4        0.0000 
     46 H          14.2126   -0.5290   85.1885 H         1 FFA4        0.0000 
     47 H          13.8634    0.6200   84.1189 H         1 FFA4        0.0000 
     48 H          13.1731    0.6367   85.5713 H         1 FFA4        0.0000 
     49 H          14.1935   -5.4188   79.1137 H         1 FFA4        0.0000 
@<TRIPOS>BOND
     1    2    1 1    
     2    6    1 1    
     3   22    1 1    
     4   23    1 1    
     5    3    2 1    
     6   24    2 1    
     7   25    2 1    
     8    4    3 1    
     9   20    3 2    
    10    5    4 2    
    11   26    4 1    
    12    6    5 1    
    13   10    5 1    
    14    7    6 1    
    15   19    6 1    
    16    8    7 1    
    17   11    7 1    
    18   27    7 1    
    19    9    8 1    
    20   13    8 1    
    21   28    8 1    
    22   10    9 1    
    23   29    9 1    
    24   30    9 1    
    25   31   10 1    
    26   32   10 1    
    27   12   11 1    
    28   33   11 1    
    29   34   11 1    
    30   14   12 1    
    31   35   12 1    
    32   36   12 1    
    33   14   13 1    
    34   15   13 1    
    35   37   13 1    
    36   17   14 1    
    37   18   14 1    
    38   16   15 1    
    39   38   15 1    
    40   39   15 1    
    41   17   16 1    
    42   40   16 1    
    43   41   16 1    
    44   21   17 1    
    45   42   17 1    
    46   43   18 1    
    47   44   18 1    
    48   45   18 1    
    49   46   19 1    
    50   47   19 1    
    51   48   19 1    
    52   49   21 1    
@<TRIPOS>SUBSTRUCTURE
     1 FFA4        1 GROUP   
@<TRIPOS>SET

