#    Name: 2bxe_1FL_2_INTS_M
#    Modification time : Mon Mar 24 21:51:52 2014

@<TRIPOS>MOLECULE
2bxe_1FL_2_INTS_M
   31     0     6     0     0
SMALL
NO_CHARGES


@<TRIPOS>ATOM
      1 CA          0.4895  -13.6630  -10.0210 C.3       2 GLC5        0.0000 
      2 CA          0.3450  -15.4750   -9.3210 C.3       6 GLL5        0.0000 
      3 CA          0.6340  -11.8510  -10.7210 C.3       4 GLP5        0.0000 
      4 CA         -1.4430  -18.0470  -12.2970 C.3       2 GLC5        0.0000 
      5 CA         -1.5760  -18.4950  -10.1920 C.3       6 GLL5        0.0000 
      6 CA         -1.3100  -17.5990  -14.4020 C.3       4 GLP5        0.0000 
      7 CA         -0.8680  -13.3750  -10.6645 C.3       2 GLC5        0.0000 
      8 CA         -2.3700  -14.8990  -10.6080 C.3       6 GLL5        0.0000 
      9 N          -1.5595  -11.0805  -11.8260 N.am      1 SEC2        0.0000 
     10 N          -2.0230  -12.4640  -11.8610 N.am      5 SEL2        0.0000 
     11 N          -1.0960   -9.6970  -11.7910 N.am      3 SEP2        0.0000 
     12 N          -4.0010  -10.6545  -11.7965 N.am      1 SEC2        0.0000 
     13 N          -4.1080  -11.8340  -11.4530 N.am      5 SEL2        0.0000 
     14 N          -3.8940   -9.4750  -12.1400 N.am      3 SEP2        0.0000 
     15 CA         -3.7580  -15.7435   -7.5105 C.3       2 GLC5        0.0000 
     16 CA         -3.7800  -16.4490   -9.4010 C.3       6 GLL5        0.0000 
     17 CA         -3.7360  -15.0380   -5.6200 C.3       4 GLP5        0.0000 
     18 CA          0.6190  -17.8610   -7.7950 C.3       2 GLC5        0.0000 
     19 CA          1.0140  -17.6760   -9.5780 C.3       6 GLL5        0.0000 
     20 CA          0.3660  -17.3900   -5.8720 C.3       4 GLP5        0.0000 
     21 CA          1.9169  -16.1811   -8.6060 C.3       2 GLC5        0.0000 
     22 CA          3.2470  -15.4700   -7.6910 C.3       4 GLP5        0.0000 
     23 CA          2.6420  -19.0808   -8.2635 C.3       2 GLC5        0.0000 
     24 CA          1.7480  -19.8750   -9.8280 C.3       6 GLL5        0.0000 
     25 CA          3.9740  -19.0580   -6.7540 C.3       4 GLP5        0.0000 
     26 CA          2.9440  -19.0853  -10.4180 C.3       2 GLC5        0.0000 
     27 CA          4.5780  -19.0670  -11.0630 C.3       4 GLP5        0.0000 
     28 CA         -0.1204  -17.0009   -7.7817 C.3       2 GLC5        0.0000 
     29 CA         -4.6405  -14.3840   -7.9605 C.3       2 GLC5        0.0000 
     30 CA         -4.8580  -15.5600   -9.4500 C.3       6 GLL5        0.0000 
     31 CA         -4.5060  -13.8350   -6.1490 C.3       4 GLP5        0.0000 
@<TRIPOS>BOND
@<TRIPOS>SUBSTRUCTURE
     1 SEC2        9 GROUP        1 X    SEC  0     ROOT SEC X 2
     2 GLC5        1 GROUP        1 X    GLC  0     **** GLC X 6
     3 SEP2       11 GROUP        1 Y    SEP  0     ROOT SEP Y 9
     4 GLP5        3 GROUP        1 Y    GLP  0     **** GLP Y 13
     5 SEL2       10 GROUP        1 Z    SEL  0     ROOT SEL Z 16
     6 GLL5        2 GROUP        1 Z    GLL  0     **** GLL Z 20
@<TRIPOS>SET

