#    Name: 2bxe_1FL_2_ligand
#    Modification time : Mon Mar 24 21:51:52 2014

@<TRIPOS>MOLECULE
2bxe_1FL_2_ligand
   25    26     1     0     0
SMALL
NO_CHARGES


@<TRIPOS>ATOM
      1 FAT         0.3450  -15.4750   -9.3210 F         1 1FL2002     0.0000 
      2 CAN        -0.0260  -16.7420   -9.6070 C.ar      1 1FL2002     0.0000 
      3 CAM         1.0140  -17.6760   -9.5780 C.ar      1 1FL2002     0.0000 
      4 CAF         0.7300  -18.9880   -9.8580 C.ar      1 1FL2002     0.0000 
      5 FAE         1.7480  -19.8750   -9.8280 F         1 1FL2002     0.0000 
      6 CAG        -0.5430  -19.4350  -10.1630 C.ar      1 1FL2002     0.0000 
      7 CAH        -1.5760  -18.4950  -10.1920 C.ar      1 1FL2002     0.0000 
      8 CAO        -1.3730  -17.1150   -9.9190 C.ar      1 1FL2002     0.0000 
      9 CAP        -2.5110  -16.1440   -9.9740 C.ar      1 1FL2002     0.0000 
     10 CAI        -2.3700  -14.8990  -10.6080 C.ar      1 1FL2002     0.0000 
     11 CAJ        -3.4310  -13.9680  -10.6810 C.ar      1 1FL2002     0.0000 
     12 CAC        -3.2140  -12.6720  -11.3620 C.2       1 1FL2002     0.0000 
     13 OAD        -2.0230  -12.4640  -11.8610 O.co2     1 1FL2002     0.0000 
     14 OAB        -4.1080  -11.8340  -11.4530 O.co2     1 1FL2002     0.0000 
     15 CAQ        -3.7800  -16.4490   -9.4010 C.ar      1 1FL2002     0.0000 
     16 CAR        -4.8580  -15.5600   -9.4500 C.ar      1 1FL2002     0.0000 
     17 CAK        -4.6920  -14.3060  -10.0940 C.ar      1 1FL2002     0.0000 
     18 OAL        -5.7780  -13.4920  -10.1020 O.3       1 1FL2002     0.0000 
     19 H           1.9633  -17.3744   -9.3511 H         1 1FL2002     0.0000 
     20 H          -0.7271  -20.4121  -10.3602 H         1 1FL2002     0.0000 
     21 H          -2.5432  -18.8099  -10.4233 H         1 1FL2002     0.0000 
     22 H          -1.4591  -14.6508  -11.0380 H         1 1FL2002     0.0000 
     23 H          -3.8967  -17.3685   -8.9323 H         1 1FL2002     0.0000 
     24 H          -5.7532  -15.7996   -9.0326 H         1 1FL2002     0.0000 
     25 H          -5.4849  -12.6745  -10.5977 H         1 1FL2002     0.0000 
@<TRIPOS>BOND
     1    2    1 1    
     2    3    2 ar   
     3    8    2 ar   
     4    4    3 ar   
     5   19    3 1    
     6    5    4 1    
     7    6    4 ar   
     8    7    6 ar   
     9   20    6 1    
    10    8    7 ar   
    11   21    7 1    
    12    9    8 1    
    13   10    9 ar   
    14   15    9 ar   
    15   11   10 ar   
    16   22   10 1    
    17   12   11 1    
    18   17   11 ar   
    19   13   12 ar   
    20   14   12 ar   
    21   16   15 ar   
    22   23   15 1    
    23   17   16 ar   
    24   24   16 1    
    25   18   17 1    
    26   25   18 1    
@<TRIPOS>SUBSTRUCTURE
     1 1FL2002     1 GROUP   
@<TRIPOS>SET

