#    Name: 2b55_D31_1_INTS_M
#    Modification time : Mon Mar 24 20:04:56 2014

@<TRIPOS>MOLECULE
2b55_D31_1_INTS_M
   70     0    12     0     0
SMALL
NO_CHARGES


@<TRIPOS>ATOM
      1 OD1        29.0515    7.6230    8.9040 O.co2     3 ASC3        0.0000 
      2 OD1        29.0940    7.5150   10.4310 O.co2    11 ASL3        0.0000 
      3 OD1        29.0090    7.7310    7.3770 O.co2     7 ASP3        0.0000 
      4 O          30.5000    8.4805   10.4320 O.2       1 ALC1        0.0000 
      5 O          29.0940    7.5150   10.4310 O.2       9 ALL1        0.0000 
      6 O          31.9060    9.4460   10.4330 O.2       5 ALP1        0.0000 
      7 CA         26.4700    7.7785   12.2540 C.3       4 GLC5        0.0000 
      8 CA         28.5320    7.1900   11.7590 C.3      12 GLL5        0.0000 
      9 CA         24.4080    8.3670   12.7490 C.3       8 GLP5        0.0000 
     10 CA         29.6385    6.7655   16.7055 C.3       4 GLC5        0.0000 
     11 CA         28.5540    7.3900   14.8760 C.3      12 GLL5        0.0000 
     12 CA         30.7230    6.1410   18.5350 C.3       8 GLP5        0.0000 
     13 CA         27.6410    8.3795   16.4235 C.3       4 GLC5        0.0000 
     14 CA         26.7280    9.3690   17.9710 C.3       8 GLP5        0.0000 
     15 CA         32.1420    7.1355   11.6690 C.3       4 GLC5        0.0000 
     16 CA         30.7340    7.4800   12.9320 C.3      12 GLL5        0.0000 
     17 CA         33.5500    6.7910   10.4060 C.3       8 GLP5        0.0000 
     18 CA         30.3580    7.5700   17.4130 C.3       4 GLC5        0.0000 
     19 CA         29.9930    8.9990   16.2910 C.3      12 GLL5        0.0000 
     20 CA         28.3605    9.1840   17.1310 C.3       4 GLC5        0.0000 
     21 CA         31.5400   10.4850   16.3870 C.3       4 GLC5        0.0000 
     22 CA         33.0870   11.9710   16.4830 C.3       8 GLP5        0.0000 
     23 O          24.2280   13.4850    9.3790 O.2       1 ALC1        0.0000 
     24 O          24.7720   13.0240   10.4910 O.2       9 ALL1        0.0000 
     25 O          23.6840   13.9460    8.2670 O.2       5 ALP1        0.0000 
     26 CA         23.2225   11.4695   10.3260 C.3       4 GLC5        0.0000 
     27 CA         25.2020   10.5260    9.9530 C.3      12 GLL5        0.0000 
     28 CA         21.2430   12.4130   10.6990 C.3       8 GLP5        0.0000 
     29 CA         22.4455   11.4910    9.1250 C.3       4 GLC5        0.0000 
     30 CA         24.1450   10.5800    8.8460 C.3      12 GLL5        0.0000 
     31 CA         20.7460   12.4020    9.4040 C.3       8 GLP5        0.0000 
     32 CA         25.7445   10.1760    6.3260 C.3       4 GLC5        0.0000 
     33 CA         25.2220    8.6290    7.6830 C.3      12 GLL5        0.0000 
     34 CA         26.2670   11.7230    4.9690 C.3       8 GLP5        0.0000 
     35 CA         27.8395   11.3820    9.6245 C.3       4 GLC5        0.0000 
     36 CA         26.4920    9.8370    9.5020 C.3      12 GLL5        0.0000 
     37 CA         29.1870   12.9270    9.7470 C.3       8 GLP5        0.0000 
     38 N          24.4910   15.1035   10.6250 N.am      2 SEC2        0.0000 
     39 N          25.1060   14.0640   11.5440 N.am     10 SEL2        0.0000 
     40 N          23.8760   16.1430    9.7060 N.am      6 SEP2        0.0000 
     41 CA         27.1182    5.5985   14.6342 C.3       4 GLC5        0.0000 
     42 CA         25.5020    4.4170   14.8160 C.3       8 GLP5        0.0000 
     43 CA         26.2660   11.1578   15.5657 C.3       4 GLC5        0.0000 
     44 CA         28.1710   12.1580   15.1560 C.3      12 GLL5        0.0000 
     45 CA         24.8190   10.1120   16.5510 C.3       8 GLP5        0.0000 
     46 CA         29.8765   14.5360   14.6325 C.3       4 GLC5        0.0000 
     47 CA         28.4790   13.3430   15.9850 C.3      12 GLL5        0.0000 
     48 CA         31.5830   15.0830   13.4510 C.3       8 GLP5        0.0000 
     49 CA         25.4453   14.4123   15.1420 C.3       4 GLC5        0.0000 
     50 CA         27.8610   14.6350   15.6430 C.3      12 GLL5        0.0000 
     51 CA         23.4890   14.1430   15.2160 C.3       8 GLP5        0.0000 
     52 CA         27.7102   16.4607   14.4645 C.3       4 GLC5        0.0000 
     53 CA         26.9420   14.7280   14.4930 C.3      12 GLL5        0.0000 
     54 CA         28.0190   18.2400   13.8610 C.3       8 GLP5        0.0000 
     55 CA         26.5828   15.9383   16.0190 C.3       4 GLC5        0.0000 
     56 CA         25.7640   17.1950   16.9700 C.3       8 GLP5        0.0000 
     57 CA         25.2192   13.5195   14.5293 C.3       4 GLC5        0.0000 
     58 CA         26.6440   13.5430   13.6800 C.3      12 GLL5        0.0000 
     59 CA         27.8705   14.0571   12.5949 C.3       4 GLC5        0.0000 
     60 CA         28.7170   14.9220   11.1440 C.3       8 GLP5        0.0000 
     61 CA         25.0563   10.1165   12.0895 C.3       4 GLC5        0.0000 
     62 CA         26.0540   11.9570   12.0580 C.3      12 GLL5        0.0000 
     63 CA         27.4458   12.3965   10.5885 C.3       4 GLC5        0.0000 
     64 CA         24.5407    9.4600   11.0742 C.3       4 GLC5        0.0000 
     65 CA         26.0500    7.1707    7.2568 C.3       4 GLC5        0.0000 
     66 CA         26.2400    8.4840    8.8260 C.3      12 GLL5        0.0000 
     67 CA         26.3690    5.7850    6.2590 C.3       8 GLP5        0.0000 
     68 CA         25.3870    8.7637   10.9565 C.3       4 GLC5        0.0000 
     69 CA         28.1900    9.5228    8.2095 C.3       4 GLC5        0.0000 
     70 CA         30.0140    9.8850    7.2550 C.3       8 GLP5        0.0000 
@<TRIPOS>BOND
@<TRIPOS>SUBSTRUCTURE
     1 ALC1        4 GROUP        1 X    ALC  0     ROOT ALC X 1
     2 SEC2       38 GROUP        1 X    SEC  0     **** SEC X 2
     3 ASC3        1 GROUP        1 X    ASC  0     **** ASC X 3
     4 GLC5        7 GROUP        1 X    GLC  0     **** GLC X 6
     5 ALP1        6 GROUP        1 Y    ALP  0     ROOT ALP Y 8
     6 SEP2       40 GROUP        1 Y    SEP  0     **** SEP Y 9
     7 ASP3        3 GROUP        1 Y    ASP  0     **** ASP Y 10
     8 GLP5        9 GROUP        1 Y    GLP  0     **** GLP Y 13
     9 ALL1        5 GROUP        1 Z    ALL  0     ROOT ALL Z 15
    10 SEL2       39 GROUP        1 Z    SEL  0     **** SEL Z 16
    11 ASL3        2 GROUP        1 Z    ASL  0     **** ASL Z 17
    12 GLL5        8 GROUP        1 Z    GLL  0     **** GLL Z 20
@<TRIPOS>SET

