#    Name: 2b55_D31_1_ligand
#    Modification time : Mon Mar 24 20:04:57 2014

@<TRIPOS>MOLECULE
2b55_D31_1_ligand
   64    68     1     0     0
SMALL
NO_CHARGES


@<TRIPOS>ATOM
      1 N1         29.0940    7.5150   10.4310 N.4       1 D31299      0.0000 
      2 C2         28.5320    7.1900   11.7590 C.3       1 D31299      0.0000 
      3 C3         29.5590    6.5260   12.6850 C.3       1 D31299      0.0000 
      4 C6         28.9150    6.1700   14.0290 C.3       1 D31299      0.0000 
      5 C7         28.5540    7.3900   14.8760 C.3       1 D31299      0.0000 
      6 N8         29.7120    8.2970   15.0290 N.4       1 D31299      0.0000 
      7 C9         30.3730    8.7020   13.7720 C.3       1 D31299      0.0000 
      8 C10        30.7340    7.4800   12.9320 C.3       1 D31299      0.0000 
      9 C20        29.9930    8.9990   16.2910 C.3       1 D31299      0.0000 
     10 C21        29.5990   10.4670   16.2590 C.2       1 D31299      0.0000 
     11 N24        28.7400   10.8700   15.3220 N.am      1 D31299      0.0000 
     12 C25        28.1710   12.1580   15.1560 C.ar      1 D31299      0.0000 
     13 C26        28.4790   13.3430   15.9850 C.ar      1 D31299      0.0000 
     14 C27        27.8610   14.6350   15.6430 C.ar      1 D31299      0.0000 
     15 C28        26.9420   14.7280   14.4930 C.ar      1 D31299      0.0000 
     16 C29        26.6440   13.5430   13.6800 C.ar      1 D31299      0.0000 
     17 C30        27.2550   12.2490   14.0050 C.ar      1 D31299      0.0000 
     18 C31        25.8850   13.3310   12.4660 C.2       1 D31299      0.0000 
     19 C32        26.0540   11.9570   12.0580 C.2       1 D31299      0.0000 
     20 C33        26.8850   11.2530   13.0140 C.2       1 D31299      0.0000 
     21 N34        24.7720   13.0240   10.4910 N.pl3     1 D31299      0.0000 
     22 C35        25.3550   11.7750   10.8020 C.2       1 D31299      0.0000 
     23 C36        25.2020   10.5260    9.9530 C.3       1 D31299      0.0000 
     24 C37        24.1450   10.5800    8.8460 C.3       1 D31299      0.0000 
     25 C38        23.9080    9.2260    8.1800 C.3       1 D31299      0.0000 
     26 C39        25.2220    8.6290    7.6830 C.3       1 D31299      0.0000 
     27 C40        26.2400    8.4840    8.8260 C.3       1 D31299      0.0000 
     28 C41        26.4920    9.8370    9.5020 C.3       1 D31299      0.0000 
     29 O53        30.0260   11.2660   17.0910 O.2       1 D31299      0.0000 
     30 O54        27.1960   10.0670   13.0090 O.2       1 D31299      0.0000 
     31 N55        25.1060   14.0640   11.5440 N.2       1 D31299      0.0000 
     32 H          27.6733    6.5087   11.6551 H         1 D31299      0.0000 
     33 H          28.1647    8.1027   12.2532 H         1 D31299      0.0000 
     34 H          29.9264    5.6339   12.2250 H         1 D31299      0.0000 
     35 H          29.6073    5.5312   14.5972 H         1 D31299      0.0000 
     36 H          28.0048    5.5810   13.8425 H         1 D31299      0.0000 
     37 H          28.2097    7.0413   15.8563 H         1 D31299      0.0000 
     38 H          27.7206    7.9126   14.3929 H         1 D31299      0.0000 
     39 H          30.5933    7.2777   15.2638 H         1 D31299      0.0000 
     40 H          31.2902    9.2602   13.9846 H         1 D31299      0.0000 
     41 H          29.7125    9.3455   13.1824 H         1 D31299      0.0000 
     42 H          31.1284    7.8158   11.9596 H         1 D31299      0.0000 
     43 H          31.5421    6.9244   13.4341 H         1 D31299      0.0000 
     44 H          31.0703    8.9344   16.5326 H         1 D31299      0.0000 
     45 H          29.4547    8.5137   17.1264 H         1 D31299      0.0000 
     46 H          28.4165   10.1423   14.5775 H         1 D31299      0.0000 
     47 H          29.0941   13.2658   16.7606 H         1 D31299      0.0000 
     48 H          28.0631   15.4480   16.1883 H         1 D31299      0.0000 
     49 H          26.5183   15.6109   14.2671 H         1 D31299      0.0000 
     50 H          24.2393   13.2384    9.7449 H         1 D31299      0.0000 
     51 H          24.7367    9.7281   10.7092 H         1 D31299      0.0000 
     52 H          24.4632   11.3040    8.0846 H         1 D31299      0.0000 
     53 H          23.2001   10.9406    9.2730 H         1 D31299      0.0000 
     54 H          23.2297    9.3539    7.3379 H         1 D31299      0.0000 
     55 H          23.4536    8.5467    8.8994 H         1 D31299      0.0000 
     56 H          25.6443    9.2744    6.9124 H         1 D31299      0.0000 
     57 H          25.0325    7.6462    7.2508 H         1 D31299      0.0000 
     58 H          27.1751    8.1038    8.4240 H         1 D31299      0.0000 
     59 H          25.8537    7.7823    9.5601 H         1 D31299      0.0000 
     60 H          27.1404    9.6847   10.3732 H         1 D31299      0.0000 
     61 H          27.0220   10.4925    8.8005 H         1 D31299      0.0000 
     62 H          29.8689    8.1434   10.4993 H         1 D31299      0.0000 
     63 H          29.4203    6.6979    9.9557 H         1 D31299      0.0000 
     64 H          28.4164    7.9487    9.8370 H         1 D31299      0.0000 
@<TRIPOS>BOND
     1    2    1 1    
     2   62    1 1    
     3   63    1 1    
     4   64    1 1    
     5    3    2 1    
     6   32    2 1    
     7   33    2 1    
     8    4    3 1    
     9    8    3 1    
    10   34    3 1    
    11    5    4 1    
    12   35    4 1    
    13   36    4 1    
    14    6    5 1    
    15   37    5 1    
    16   38    5 1    
    17    7    6 1    
    18    9    6 1    
    19   39    6 1    
    20    8    7 1    
    21   40    7 1    
    22   41    7 1    
    23   42    8 1    
    24   43    8 1    
    25   10    9 1    
    26   44    9 1    
    27   45    9 1    
    28   11   10 am   
    29   29   10 2    
    30   12   11 1    
    31   46   11 1    
    32   13   12 ar   
    33   17   12 ar   
    34   14   13 ar   
    35   47   13 1    
    36   15   14 ar   
    37   48   14 1    
    38   16   15 ar   
    39   49   15 1    
    40   17   16 ar   
    41   18   16 1    
    42   20   17 1    
    43   19   18 1    
    44   31   18 2    
    45   20   19 1    
    46   22   19 2    
    47   30   20 2    
    48   22   21 1    
    49   31   21 1    
    50   50   21 1    
    51   23   22 1    
    52   24   23 1    
    53   28   23 1    
    54   51   23 1    
    55   25   24 1    
    56   52   24 1    
    57   53   24 1    
    58   26   25 1    
    59   54   25 1    
    60   55   25 1    
    61   27   26 1    
    62   56   26 1    
    63   57   26 1    
    64   28   27 1    
    65   58   27 1    
    66   59   27 1    
    67   60   28 1    
    68   61   28 1    
@<TRIPOS>SUBSTRUCTURE
     1 D31299      1 GROUP   
@<TRIPOS>SET

