#    Name: 2npn_SAM_1_INTS_M
#    Modification time : Tue Mar 25 21:29:00 2014

@<TRIPOS>MOLECULE
2npn_SAM_1_INTS_M
   78     0     9     0     0
SMALL
NO_CHARGES


@<TRIPOS>ATOM
      1 O          59.3840   33.7435   31.2475 O.2       1 ALC1        0.0000 
      2 O          60.8410   34.0390   31.3940 O.2       7 ALL1        0.0000 
      3 O          57.9270   33.4480   31.1010 O.2       4 ALP1        0.0000 
      4 O          60.3165   35.4210   31.0910 O.2       1 ALC1        0.0000 
      5 O          59.7920   36.8030   30.7880 O.2       4 ALP1        0.0000 
      6 O          62.1125   34.4570   30.9730 O.2       1 ALC1        0.0000 
      7 O          63.3840   34.8750   30.5520 O.2       4 ALP1        0.0000 
      8 CA         59.0555   33.6555   33.1025 C.3       3 GLC5        0.0000 
      9 CA         60.9690   33.0570   32.5130 C.3       9 GLL5        0.0000 
     10 CA         57.1420   34.2540   33.6920 C.3       6 GLP5        0.0000 
     11 N          60.5085   33.1610   36.3245 N.am      2 SEC2        0.0000 
     12 N          60.8780   33.0260   34.9080 N.am      8 SEL2        0.0000 
     13 N          60.1390   33.2960   37.7410 N.am      5 SEP2        0.0000 
     14 N          59.3505   35.6435   33.4395 N.am      2 SEC2        0.0000 
     15 N          60.5710   34.9520   33.9130 N.am      8 SEL2        0.0000 
     16 N          58.1300   36.3350   32.9660 N.am      5 SEP2        0.0000 
     17 CA         63.4810   32.3480   33.9615 C.3       3 GLC5        0.0000 
     18 CA         62.3110   32.3080   32.4220 C.3       9 GLL5        0.0000 
     19 CA         64.6510   32.3880   35.5010 C.3       6 GLP5        0.0000 
     20 CA         62.3685   27.0595   32.4680 C.3       3 GLC5        0.0000 
     21 CA         63.6490   28.8310   32.0470 C.3       9 GLL5        0.0000 
     22 CA         61.0880   25.2880   32.8890 C.3       6 GLP5        0.0000 
     23 CA         64.4760   30.5925   34.4705 C.3       3 GLC5        0.0000 
     24 CA         64.3010   28.7970   33.4400 C.3       9 GLL5        0.0000 
     25 CA         62.7545   26.3485   33.4800 C.3       3 GLC5        0.0000 
     26 CA         64.4210   27.4090   34.0710 C.3       9 GLL5        0.0000 
     27 N          66.9760   27.3575   34.0270 N.am      2 SEC2        0.0000 
     28 N          65.5550   26.7100   33.6230 N.am      8 SEL2        0.0000 
     29 N          68.3970   28.0050   34.4310 N.am      5 SEP2        0.0000 
     30 CA         63.2875   25.9375   35.4490 C.3       3 GLC5        0.0000 
     31 CA         64.4630   27.6990   35.5470 C.3       9 GLL5        0.0000 
     32 CA         62.1120   24.1760   35.3510 C.3       6 GLP5        0.0000 
     33 N          67.0650   28.1145   35.1620 N.am      2 SEC2        0.0000 
     34 N          65.7330   28.2240   35.8930 N.am      8 SEL2        0.0000 
     35 O          65.8365   27.3090   36.9425 O.2       1 ALC1        0.0000 
     36 O          65.7330   28.2240   35.8930 O.2       7 ALL1        0.0000 
     37 O          65.9400   26.3940   37.9920 O.2       4 ALP1        0.0000 
     38 CA         62.3275   29.9550   36.7055 C.3       3 GLC5        0.0000 
     39 CA         63.4380   28.8130   35.5780 C.3       9 GLL5        0.0000 
     40 CA         61.2170   31.0970   37.8330 C.3       6 GLP5        0.0000 
     41 CA         64.0445   30.6005   35.5395 C.3       3 GLC5        0.0000 
     42 CA         58.8515   25.1670   38.8365 C.3       3 GLC5        0.0000 
     43 CA         59.5040   26.9390   37.8070 C.3       9 GLL5        0.0000 
     44 CA         58.1990   23.3950   39.8660 C.3       6 GLP5        0.0000 
     45 CA         59.0735   27.4145   39.7090 C.3       3 GLC5        0.0000 
     46 CA         58.6430   27.8900   41.6110 C.3       6 GLP5        0.0000 
     47 O          57.1250   27.0275   38.8600 O.2       1 ALC1        0.0000 
     48 O          58.1590   26.7660   37.7360 O.2       7 ALL1        0.0000 
     49 O          56.0910   27.2890   39.9840 O.2       4 ALP1        0.0000 
     50 N          59.1785   26.0510   39.8915 N.am      2 SEC2        0.0000 
     51 N          60.1820   26.4940   38.9360 N.am      8 SEL2        0.0000 
     52 N          58.1750   25.6080   40.8470 N.am      5 SEP2        0.0000 
     53 CA         61.5670   24.9805   40.3040 C.3       3 GLC5        0.0000 
     54 CA         61.5400   26.7180   39.0580 C.3       9 GLL5        0.0000 
     55 CA         61.5940   23.2430   41.5500 C.3       6 GLP5        0.0000 
     56 CA         61.2555   27.6975   40.4375 C.3       3 GLC5        0.0000 
     57 CA         60.9710   28.6770   41.8170 C.3       6 GLP5        0.0000 
     58 CA         63.1485   25.6715   39.1065 C.3       3 GLC5        0.0000 
     59 CA         64.7570   24.6250   39.1550 C.3       6 GLP5        0.0000 
     60 CA         63.2220   27.9815   39.5435 C.3       3 GLC5        0.0000 
     61 CA         64.9040   29.2450   40.0290 C.3       6 GLP5        0.0000 
     62 N          63.2760   28.2385   38.3905 N.am      2 SEC2        0.0000 
     63 N          62.2560   27.3120   38.0550 N.am      8 SEL2        0.0000 
     64 N          64.2960   29.1650   38.7260 N.am      5 SEP2        0.0000 
     65 CA         61.8645   25.9590   36.1450 C.3       3 GLC5        0.0000 
     66 CA         61.6170   27.7420   36.9390 C.3       9 GLL5        0.0000 
     67 CA         64.7668   32.0905   30.7617 C.3       3 GLC5        0.0000 
     68 CA         63.9470   30.3750   31.1170 C.3       9 GLL5        0.0000 
     69 CA         66.3460   33.3010   30.3610 C.3       6 GLP5        0.0000 
     70 CA         65.4885   29.0032   30.5295 C.3       3 GLC5        0.0000 
     71 CA         67.1990   27.9990   30.7550 C.3       6 GLP5        0.0000 
     72 CA         65.6985   28.0553   32.0811 C.3       3 GLC5        0.0000 
     73 CA         58.5560   28.6020   37.6075 C.3       3 GLC5        0.0000 
     74 CA         60.2260   27.5350   36.7830 C.3       9 GLL5        0.0000 
     75 CA         57.2470   29.9670   37.9200 C.3       6 GLP5        0.0000 
     76 CA         59.6285   26.1610   35.5555 C.3       3 GLC5        0.0000 
     77 CA         59.3920   25.0850   33.8160 C.3       6 GLP5        0.0000 
     78 CA         60.9790   29.2933   37.4750 C.3       3 GLC5        0.0000 
@<TRIPOS>BOND
@<TRIPOS>SUBSTRUCTURE
     1 ALC1        1 GROUP        1 X    ALC  0     ROOT ALC X 1
     2 SEC2       11 GROUP        1 X    SEC  0     **** SEC X 2
     3 GLC5        8 GROUP        1 X    GLC  0     **** GLC X 6
     4 ALP1        3 GROUP        1 Y    ALP  0     ROOT ALP Y 8
     5 SEP2       13 GROUP        1 Y    SEP  0     **** SEP Y 9
     6 GLP5       10 GROUP        1 Y    GLP  0     **** GLP Y 13
     7 ALL1        2 GROUP        1 Z    ALL  0     ROOT ALL Z 15
     8 SEL2       12 GROUP        1 Z    SEL  0     **** SEL Z 16
     9 GLL5        9 GROUP        1 Z    GLL  0     **** GLL Z 20
@<TRIPOS>SET

