#    Name: 2npn_SAM_1_ligand
#    Modification time : Tue Mar 25 21:29:00 2014

@<TRIPOS>MOLECULE
2npn_SAM_1_ligand
   50    52     1     0     0
SMALL
NO_CHARGES


@<TRIPOS>ATOM
      1 N          60.8410   34.0390   31.3940 N.4       1 SAM4633     0.0000 
      2 CA         60.9690   33.0570   32.5130 C.3       1 SAM4633     0.0000 
      3 C          60.8100   33.7290   33.8640 C.2       1 SAM4633     0.0000 
      4 O          60.8780   33.0260   34.9080 O.co2     1 SAM4633     0.0000 
      5 OXT        60.5710   34.9520   33.9130 O.co2     1 SAM4633     0.0000 
      6 CB         62.3110   32.3080   32.4220 C.3       1 SAM4633     0.0000 
      7 CG         62.4280   31.3850   31.2080 C.3       1 SAM4633     0.0000 
      8 SD         63.9470   30.3750   31.1170 S.3       1 SAM4633     0.0000 
      9 CE         63.6090   29.6400   29.4910 C.3       1 SAM4633     0.0000 
     10 C5'        63.6490   28.8310   32.0470 C.3       1 SAM4633     0.0000 
     11 C4'        64.3010   28.7970   33.4400 C.3       1 SAM4633     0.0000 
     12 O4'        63.5060   29.5080   34.3300 O.3       1 SAM4633     0.0000 
     13 C3'        64.4210   27.4090   34.0710 C.3       1 SAM4633     0.0000 
     14 O3'        65.5550   26.7100   33.6230 O.3       1 SAM4633     0.0000 
     15 C2'        64.4630   27.6990   35.5470 C.3       1 SAM4633     0.0000 
     16 O2'        65.7330   28.2240   35.8930 O.3       1 SAM4633     0.0000 
     17 C1'        63.4380   28.8130   35.5780 C.3       1 SAM4633     0.0000 
     18 N9         62.0630   28.3290   35.8330 N.pl3     1 SAM4633     0.0000 
     19 C8         60.9640   28.5800   35.0270 C.2       1 SAM4633     0.0000 
     20 N7         59.8590   28.0760   35.5830 N.2       1 SAM4633     0.0000 
     21 C5         60.2260   27.5350   36.7830 C.ar      1 SAM4633     0.0000 
     22 C6         59.5040   26.9390   37.8070 C.ar      1 SAM4633     0.0000 
     23 N6         58.1590   26.7660   37.7360 N.pl3     1 SAM4633     0.0000 
     24 N1         60.1820   26.4940   38.9360 N.ar      1 SAM4633     0.0000 
     25 C2         61.5400   26.7180   39.0580 C.ar      1 SAM4633     0.0000 
     26 N3         62.2560   27.3120   38.0550 N.ar      1 SAM4633     0.0000 
     27 C4         61.6170   27.7420   36.9390 C.ar      1 SAM4633     0.0000 
     28 H          60.1742   32.3070   32.4117 H         1 SAM4633     0.0000 
     29 H          62.4462   31.7143   33.3395 H         1 SAM4633     0.0000 
     30 H          63.1261   33.0478   32.3912 H         1 SAM4633     0.0000 
     31 H          62.4572   31.9189   30.2623 H         1 SAM4633     0.0000 
     32 H          61.6518   30.6260   31.1677 H         1 SAM4633     0.0000 
     33 H          64.0381   28.0838   31.3754 H         1 SAM4633     0.0000 
     34 H          62.5729   28.7900   32.0785 H         1 SAM4633     0.0000 
     35 H          65.2872   29.2248   33.3792 H         1 SAM4633     0.0000 
     36 H          63.4917   26.8944   33.8679 H         1 SAM4633     0.0000 
     37 H          64.1264   26.8990   36.0777 H         1 SAM4633     0.0000 
     38 H          63.7294   29.4978   36.3859 H         1 SAM4633     0.0000 
     39 H          61.0187   29.0580   34.1811 H         1 SAM4633     0.0000 
     40 H          57.7814   26.6232   36.8211 H         1 SAM4633     0.0000 
     41 H          57.6650   26.7968   38.6049 H         1 SAM4633     0.0000 
     42 H          62.0234   26.4262   39.9347 H         1 SAM4633     0.0000 
     43 H          60.6735   34.9657   31.7304 H         1 SAM4633     0.0000 
     44 H          61.6696   34.0753   30.8352 H         1 SAM4633     0.0000 
     45 H          60.0846   33.8082   30.7820 H         1 SAM4633     0.0000 
     46 H          63.6942   30.3115   28.7549 H         1 SAM4633     0.0000 
     47 H          64.2414   28.8941   29.2819 H         1 SAM4633     0.0000 
     48 H          62.6841   29.2635   29.4386 H         1 SAM4633     0.0000 
     49 H          66.2920   26.9919   34.2373 H         1 SAM4633     0.0000 
     50 H          66.0500   27.6553   36.6520 H         1 SAM4633     0.0000 
@<TRIPOS>BOND
     1    2    1 1    
     2   43    1 1    
     3   44    1 1    
     4   45    1 1    
     5    3    2 1    
     6    6    2 1    
     7   28    2 1    
     8    4    3 ar   
     9    5    3 ar   
    10    7    6 1    
    11   29    6 1    
    12   30    6 1    
    13    8    7 1    
    14   31    7 1    
    15   32    7 1    
    16    9    8 1    
    17   10    8 1    
    18   46    9 1    
    19   47    9 1    
    20   48    9 1    
    21   11   10 1    
    22   33   10 1    
    23   34   10 1    
    24   12   11 1    
    25   13   11 1    
    26   35   11 1    
    27   17   12 1    
    28   14   13 1    
    29   15   13 1    
    30   36   13 1    
    31   49   14 1    
    32   16   15 1    
    33   17   15 1    
    34   37   15 1    
    35   50   16 1    
    36   18   17 1    
    37   38   17 1    
    38   19   18 1    
    39   27   18 1    
    40   20   19 2    
    41   39   19 1    
    42   21   20 1    
    43   22   21 ar   
    44   27   21 ar   
    45   23   22 1    
    46   24   22 ar   
    47   40   23 1    
    48   41   23 1    
    49   25   24 ar   
    50   26   25 ar   
    51   42   25 1    
    52   27   26 ar   
@<TRIPOS>SUBSTRUCTURE
     1 SAM4633     1 GROUP   
@<TRIPOS>SET

