#    Name: 1eu1_MGD_2_INTS_M
#    Modification time : Tue Mar 25 00:16:47 2014

@<TRIPOS>MOLECULE
1eu1_MGD_2_INTS_M
  115     0    12     0     0
SMALL
NO_CHARGES


@<TRIPOS>ATOM
      1 NZ         24.6590   37.2505   30.1440 N.4       3 LYC4        0.0000 
      2 NZ         23.6090   36.5530   29.5660 N.4      11 LYL4        0.0000 
      3 NZ         25.7090   37.9480   30.7220 N.4       7 LYP4        0.0000 
      4 N          24.6590   37.2505   30.1440 N.am      2 SEC2        0.0000 
      5 N          23.6090   36.5530   29.5660 N.am     10 SEL2        0.0000 
      6 N          25.7090   37.9480   30.7220 N.am      6 SEP2        0.0000 
      7 N          23.9015   37.5990   28.4450 N.am      2 SEC2        0.0000 
      8 N          24.1940   38.6450   27.3240 N.am      6 SEP2        0.0000 
      9 N          20.9090   35.4140   26.6740 N.am      2 SEC2        0.0000 
     10 N          22.2980   35.5820   27.5520 N.am     10 SEL2        0.0000 
     11 N          19.5200   35.2460   25.7960 N.am      6 SEP2        0.0000 
     12 N          22.4715   35.0320   26.1655 N.am      2 SEC2        0.0000 
     13 N          22.6450   34.4820   24.7790 N.am      6 SEP2        0.0000 
     14 NZ         18.3450   34.9375   27.6765 N.4       3 LYC4        0.0000 
     15 NZ         19.2940   34.7920   28.7040 N.4      11 LYL4        0.0000 
     16 NZ         18.1950   35.1820   25.5920 N.4       7 LYP4        0.0000 
     17 N          19.4070   35.0190   27.2500 N.am      2 SEC2        0.0000 
     18 N          19.2940   34.7920   28.7040 N.am     10 SEL2        0.0000 
     19 N          18.3450   34.9375   27.6765 N.am      2 SEC2        0.0000 
     20 N          17.3960   35.0830   26.6490 N.am      6 SEP2        0.0000 
     21 N          19.0735   32.6045   30.7065 N.am      2 SEC2        0.0000 
     22 N          19.9000   33.7990   31.0500 N.am     10 SEL2        0.0000 
     23 N          18.2470   31.4100   30.3630 N.am      6 SEP2        0.0000 
     24 CA         22.6155   32.5770   28.8970 C.3       4 GLC5        0.0000 
     25 CA         23.2250   33.4730   30.6620 C.3      12 GLL5        0.0000 
     26 CA         22.0060   31.6810   27.1320 C.3       8 GLP5        0.0000 
     27 CA         23.9065   30.6630   31.3705 C.3       4 GLC5        0.0000 
     28 CA         24.5250   32.6410   30.8270 C.3      12 GLL5        0.0000 
     29 CA         23.2880   28.6850   31.9140 C.3       8 GLP5        0.0000 
     30 N          23.3770   31.0920   29.0135 N.am      2 SEC2        0.0000 
     31 N          24.4300   31.4860   29.9180 N.am     10 SEL2        0.0000 
     32 N          22.3240   30.6980   28.1090 N.am      6 SEP2        0.0000 
     33 N          27.0090   32.1635   32.3065 N.am      2 SEC2        0.0000 
     34 N          26.6670   33.4360   31.6710 N.am     10 SEL2        0.0000 
     35 N          27.3510   30.8910   32.9420 N.am      6 SEP2        0.0000 
     36 CA         27.4550   32.9255   27.5090 C.3       4 GLC5        0.0000 
     37 CA         26.4960   32.5110   29.3390 C.3      12 GLL5        0.0000 
     38 CA         28.4140   33.3400   25.6790 C.3       8 GLP5        0.0000 
     39 CA         26.1840   34.3420   28.1195 C.3       4 GLC5        0.0000 
     40 CA         25.8720   36.1730   26.9000 C.3       8 GLP5        0.0000 
     41 O          28.3405   31.4745   30.3225 O.2       1 ALC1        0.0000 
     42 O          27.9280   32.3810   29.3980 O.2       9 ALL1        0.0000 
     43 O          28.7530   30.5680   31.2470 O.2       5 ALP1        0.0000 
     44 CA         24.5390   29.9145   30.7150 C.3       4 GLC5        0.0000 
     45 CA         25.7900   31.1440   29.5160 C.3      12 GLL5        0.0000 
     46 CA         27.3180   29.7985   29.2690 C.3       4 GLC5        0.0000 
     47 CA         28.8460   28.4530   29.0220 C.3       8 GLP5        0.0000 
     48 N          25.8435   30.3845   24.8645 N.am      2 SEC2        0.0000 
     49 N          25.5240   29.7300   26.1120 N.am     10 SEL2        0.0000 
     50 N          26.1630   31.0390   23.6170 N.am      6 SEP2        0.0000 
     51 CA         24.4690   28.6260   25.1710 C.3       4 GLC5        0.0000 
     52 CA         25.5090   28.5700   26.9270 C.3      12 GLL5        0.0000 
     53 CA         23.4290   28.6820   23.4150 C.3       8 GLP5        0.0000 
     54 N          25.4940   25.6470   24.3785 N.am      2 SEC2        0.0000 
     55 N          25.2770   26.6680   25.4420 N.am     10 SEL2        0.0000 
     56 N          25.7110   24.6260   23.3150 N.am      6 SEP2        0.0000 
     57 O          24.8540   25.0900   27.4595 O.2       1 ALC1        0.0000 
     58 O          25.4110   26.3510   27.7320 O.2       9 ALL1        0.0000 
     59 O          24.2970   23.8290   27.1870 O.2       5 ALP1        0.0000 
     60 O          25.8450   26.1940   31.4790 O.2       1 ALC1        0.0000 
     61 O          25.5350   25.8550   30.0290 O.2       9 ALL1        0.0000 
     62 O          26.1550   26.5330   32.9290 O.2       5 ALP1        0.0000 
     63 O          24.9890   24.5840   29.6725 O.2       1 ALC1        0.0000 
     64 O          24.4430   23.3130   29.3160 O.2       5 ALP1        0.0000 
     65 CA         24.0440   28.5450   29.4860 C.3       4 GLC5        0.0000 
     66 CA         25.5890   28.9500   28.2500 C.3      12 GLL5        0.0000 
     67 CA         22.4990   28.1400   30.7220 C.3       8 GLP5        0.0000 
     68 CA         20.2660   38.4630   29.0675 C.3       4 GLC5        0.0000 
     69 CA         19.2360   37.4800   30.3040 C.3      12 GLL5        0.0000 
     70 CA         21.2960   39.4460   27.8310 C.3       8 GLP5        0.0000 
     71 CA         15.7245   38.9905   31.6265 C.3       4 GLC5        0.0000 
     72 CA         17.2240   39.0180   30.0720 C.3      12 GLL5        0.0000 
     73 CA         14.2250   38.9630   33.1810 C.3       8 GLP5        0.0000 
     74 CA         14.7585   37.4295   28.0830 C.3       4 GLC5        0.0000 
     75 CA         16.2450   37.8270   29.1220 C.3      12 GLL5        0.0000 
     76 CA         13.2720   37.0320   27.0440 C.3       8 GLP5        0.0000 
     77 CA         15.5130   36.4040   29.7650 C.3       4 GLC5        0.0000 
     78 CA         14.7810   34.9810   30.4080 C.3       8 GLP5        0.0000 
     79 CA         21.3125   41.1705   29.6620 C.3       4 GLC5        0.0000 
     80 CA         20.1180   42.4560   30.7190 C.3      12 GLL5        0.0000 
     81 CA         22.5070   39.8850   28.6050 C.3       8 GLP5        0.0000 
     82 CA         19.1350   44.1345   30.2420 C.3       4 GLC5        0.0000 
     83 CA         18.1520   45.8130   29.7650 C.3       8 GLP5        0.0000 
     84 N          21.1100   44.6810   27.9220 N.am      2 SEC2        0.0000 
     85 N          21.1070   43.5180   28.8200 N.am     10 SEL2        0.0000 
     86 N          21.1130   45.8440   27.0240 N.am      6 SEP2        0.0000 
     87 O          22.7460   45.0775   30.5945 O.2       1 ALC1        0.0000 
     88 O          22.1380   43.7580   30.8950 O.2       9 ALL1        0.0000 
     89 O          23.3540   46.3970   30.2940 O.2       5 ALP1        0.0000 
     90 O          23.6610   44.9305   34.3680 O.2       1 ALC1        0.0000 
     91 O          23.2520   44.0490   32.9240 O.2       9 ALL1        0.0000 
     92 O          24.0700   45.8120   35.8120 O.2       5 ALP1        0.0000 
     93 O          24.1575   43.7740   31.7710 O.2       1 ALC1        0.0000 
     94 O          25.0630   43.4990   30.6180 O.2       5 ALP1        0.0000 
     95 CA         20.8145   41.0470   33.6745 C.3       4 GLC5        0.0000 
     96 CA         20.2320   42.2150   32.0940 C.3      12 GLL5        0.0000 
     97 CA         21.3970   39.8790   35.2550 C.3       8 GLP5        0.0000 
     98 O          19.3015   41.2505   34.2365 O.2       1 ALC1        0.0000 
     99 O          19.2520   41.5290   32.7840 O.2       9 ALL1        0.0000 
    100 O          19.3510   40.9720   35.6890 O.2       5 ALP1        0.0000 
    101 CA         19.6200   39.6990   33.1890 C.3       4 GLC5        0.0000 
    102 CA         18.3110   40.6850   32.0320 C.3      12 GLL5        0.0000 
    103 CA         20.9290   38.7130   34.3460 C.3       8 GLP5        0.0000 
    104 CA         23.2570   32.3350   32.5243 C.3       4 GLC5        0.0000 
    105 CA         22.6390   31.6130   34.3040 C.3       8 GLP5        0.0000 
    106 CA         27.1975   28.6065   28.3053 C.3       4 GLC5        0.0000 
    107 CA         23.7970   27.7090   27.4782 C.3       4 GLC5        0.0000 
    108 CA         22.0450   26.6580   27.3680 C.3       8 GLP5        0.0000 
    109 CA         20.2895   38.2428   31.9120 C.3       4 GLC5        0.0000 
    110 CA         21.8430   38.5290   33.1360 C.3       8 GLP5        0.0000 
    111 CA         15.0290   41.9085   29.7272 C.3       4 GLC5        0.0000 
    112 CA         17.0590   40.3420   29.8900 C.3      12 GLL5        0.0000 
    113 CA         13.5970   43.1940   30.1560 C.3       8 GLP5        0.0000 
    114 CA         19.6915   43.8238   32.5403 C.3       4 GLC5        0.0000 
    115 CA         19.2080   45.3120   33.6740 C.3       8 GLP5        0.0000 
@<TRIPOS>BOND
@<TRIPOS>SUBSTRUCTURE
     1 ALC1       41 GROUP        1 X    ALC  0     ROOT ALC X 1
     2 SEC2        4 GROUP        1 X    SEC  0     **** SEC X 2
     3 LYC4        1 GROUP        1 X    LYC  0     **** LYC X 4
     4 GLC5       24 GROUP        1 X    GLC  0     **** GLC X 6
     5 ALP1       43 GROUP        1 Y    ALP  0     ROOT ALP Y 8
     6 SEP2        6 GROUP        1 Y    SEP  0     **** SEP Y 9
     7 LYP4        3 GROUP        1 Y    LYP  0     **** LYP Y 11
     8 GLP5       26 GROUP        1 Y    GLP  0     **** GLP Y 13
     9 ALL1       42 GROUP        1 Z    ALL  0     ROOT ALL Z 15
    10 SEL2        5 GROUP        1 Z    SEL  0     **** SEL Z 16
    11 LYL4        2 GROUP        1 Z    LYL  0     **** LYL Z 18
    12 GLL5       25 GROUP        1 Z    GLL  0     **** GLL Z 20
@<TRIPOS>SET

