#    Name: 1eu1_MGD_2_ligand
#    Modification time : Tue Mar 25 00:16:47 2014

@<TRIPOS>MOLECULE
1eu1_MGD_2_ligand
   69    74     1     0     0
SMALL
NO_CHARGES


@<TRIPOS>ATOM
      1 PB         22.6410   35.5400   29.0190 P.3       1 MGD1002     0.0000 
      2 O1B        23.6090   36.5530   29.5660 O.co2     1 MGD1002     0.0000 
      3 O2B        22.2980   35.5820   27.5520 O.co2     1 MGD1002     0.0000 
      4 O3B        21.3350   35.6260   30.0100 O.3       1 MGD1002     0.0000 
      5 O3A        19.1220   36.1790   30.9010 O.3       1 MGD1002     0.0000 
      6 PA         19.8590   34.9850   30.0980 P.3       1 MGD1002     0.0000 
      7 O1A        19.2940   34.7920   28.7040 O.co2     1 MGD1002     0.0000 
      8 O2A        19.9000   33.7990   31.0500 O.co2     1 MGD1002     0.0000 
      9 O5'        23.2160   34.0360   29.3150 O.3       1 MGD1002     0.0000 
     10 C5'        23.2250   33.4730   30.6620 C.3       1 MGD1002     0.0000 
     11 C4'        24.5250   32.6410   30.8270 C.3       1 MGD1002     0.0000 
     12 O4'        24.4300   31.4860   29.9180 O.3       1 MGD1002     0.0000 
     13 C3'        25.8330   33.4130   30.4710 C.3       1 MGD1002     0.0000 
     14 O3'        26.6670   33.4360   31.6710 O.3       1 MGD1002     0.0000 
     15 C2'        26.4960   32.5110   29.3390 C.3       1 MGD1002     0.0000 
     16 O2'        27.9280   32.3810   29.3980 O.3       1 MGD1002     0.0000 
     17 C1'        25.7900   31.1440   29.5160 C.3       1 MGD1002     0.0000 
     18 N9         25.6860   30.3400   28.2820 N.pl3     1 MGD1002     0.0000 
     19 C8         25.6170   30.7540   26.9350 C.2       1 MGD1002     0.0000 
     20 N7         25.5240   29.7300   26.1120 N.2       1 MGD1002     0.0000 
     21 C5         25.5090   28.5700   26.9270 C.2       1 MGD1002     0.0000 
     22 C6         25.3930   27.1690   26.5740 C.2       1 MGD1002     0.0000 
     23 O6         25.2770   26.6680   25.4420 O.2       1 MGD1002     0.0000 
     24 N1         25.4110   26.3510   27.7320 N.am      1 MGD1002     0.0000 
     25 C2         25.5150   26.8030   29.0190 C.2       1 MGD1002     0.0000 
     26 N2         25.5350   25.8550   30.0290 N.pl3     1 MGD1002     0.0000 
     27 N3         25.6210   28.1350   29.3730 N.2       1 MGD1002     0.0000 
     28 C4         25.5890   28.9500   28.2500 C.2       1 MGD1002     0.0000 
     29 C10        19.2360   37.4800   30.3040 C.3       1 MGD1002     0.0000 
     30 C11        18.2360   38.4330   31.0720 C.3       1 MGD1002     0.0000 
     31 O11        19.0640   39.4800   31.6720 O.3       1 MGD1002     0.0000 
     32 C12        17.2240   39.0180   30.0720 C.2       1 MGD1002     0.0000 
     33 S12        16.2450   37.8270   29.1220 S.3       1 MGD1002     0.0000 
     34 C13        17.0590   40.3420   29.8900 C.2       1 MGD1002     0.0000 
     35 S13        15.8630   40.9040   28.7070 S.3       1 MGD1002     0.0000 
     36 C14        17.8270   41.3660   30.7120 C.3       1 MGD1002     0.0000 
     37 N15        19.0130   41.8650   29.9290 N.pl3     1 MGD1002     0.0000 
     38 C16        20.1180   42.4560   30.7190 C.2       1 MGD1002     0.0000 
     39 C17        21.1020   43.2390   30.0750 C.2       1 MGD1002     0.0000 
     40 O17        21.1070   43.5180   28.8200 O.2       1 MGD1002     0.0000 
     41 N18        22.1380   43.7580   30.8950 N.am      1 MGD1002     0.0000 
     42 C19        22.1770   43.4760   32.2360 C.2       1 MGD1002     0.0000 
     43 N19        23.2520   44.0490   32.9240 N.pl3     1 MGD1002     0.0000 
     44 N20        21.2770   42.7320   32.8650 N.2       1 MGD1002     0.0000 
     45 C21        20.2320   42.2150   32.0940 C.2       1 MGD1002     0.0000 
     46 N22        19.2520   41.5290   32.7840 N.pl3     1 MGD1002     0.0000 
     47 C23        18.3110   40.6850   32.0320 C.3       1 MGD1002     0.0000 
     48 H          22.3843   32.8097   30.8217 H         1 MGD1002     0.0000 
     49 H          23.2296   34.2486   31.4175 H         1 MGD1002     0.0000 
     50 H          24.5927   32.2965   31.8390 H         1 MGD1002     0.0000 
     51 H          25.5953   34.3290   30.0817 H         1 MGD1002     0.0000 
     52 H          26.1408   32.9117   28.3955 H         1 MGD1002     0.0000 
     53 H          26.2687   30.6111   30.2978 H         1 MGD1002     0.0000 
     54 H          25.6395   31.7064   26.6916 H         1 MGD1002     0.0000 
     55 H          25.3364   25.3009   27.5656 H         1 MGD1002     0.0000 
     56 H          25.5116   24.8992   29.7359 H         1 MGD1002     0.0000 
     57 H          25.5711   26.2086   30.9637 H         1 MGD1002     0.0000 
     58 H          18.9408   37.4889   29.2657 H         1 MGD1002     0.0000 
     59 H          20.2218   37.9051   30.4172 H         1 MGD1002     0.0000 
     60 H          17.7416   37.8537   31.8014 H         1 MGD1002     0.0000 
     61 H          17.1837   42.1735   30.9685 H         1 MGD1002     0.0000 
     62 H          19.0403   41.7980   28.9657 H         1 MGD1002     0.0000 
     63 H          22.8594   44.3517   30.4568 H         1 MGD1002     0.0000 
     64 H          24.0905   44.1840   32.3961 H         1 MGD1002     0.0000 
     65 H          23.0897   44.2745   33.8846 H         1 MGD1002     0.0000 
     66 H          19.1493   41.5790   33.7871 H         1 MGD1002     0.0000 
     67 H          17.4682   40.4302   32.6175 H         1 MGD1002     0.0000 
     68 H          26.5939   34.3707   32.0190 H         1 MGD1002     0.0000 
     69 H          28.0976   31.7157   30.1251 H         1 MGD1002     0.0000 
@<TRIPOS>BOND
     1    2    1 ar   
     2    3    1 ar   
     3    4    1 1    
     4    9    1 1    
     5    6    4 1    
     6    6    5 1    
     7   29    5 1    
     8    7    6 ar   
     9    8    6 ar   
    10   10    9 1    
    11   11   10 1    
    12   48   10 1    
    13   49   10 1    
    14   12   11 1    
    15   13   11 1    
    16   50   11 1    
    17   17   12 1    
    18   14   13 1    
    19   15   13 1    
    20   51   13 1    
    21   68   14 1    
    22   16   15 1    
    23   17   15 1    
    24   52   15 1    
    25   69   16 1    
    26   18   17 1    
    27   53   17 1    
    28   19   18 1    
    29   28   18 1    
    30   20   19 2    
    31   54   19 1    
    32   21   20 1    
    33   22   21 1    
    34   28   21 2    
    35   23   22 2    
    36   24   22 am   
    37   25   24 1    
    38   55   24 1    
    39   26   25 1    
    40   27   25 2    
    41   56   26 1    
    42   57   26 1    
    43   28   27 1    
    44   30   29 1    
    45   58   29 1    
    46   59   29 1    
    47   31   30 1    
    48   32   30 1    
    49   60   30 1    
    50   47   31 1    
    51   33   32 1    
    52   34   32 2    
    53   35   34 1    
    54   36   34 1    
    55   37   36 1    
    56   47   36 1    
    57   61   36 1    
    58   38   37 1    
    59   62   37 1    
    60   39   38 1    
    61   45   38 2    
    62   40   39 2    
    63   41   39 am   
    64   42   41 1    
    65   63   41 1    
    66   43   42 1    
    67   44   42 2    
    68   64   43 1    
    69   65   43 1    
    70   45   44 1    
    71   46   45 1    
    72   47   46 1    
    73   66   46 1    
    74   67   47 1    
@<TRIPOS>SUBSTRUCTURE
     1 MGD1002     1 GROUP   
@<TRIPOS>SET

