#    Name: 1r00_SAH_1_INTS_M
#    Modification time : Tue Mar 25 00:13:13 2014

@<TRIPOS>MOLECULE
1r00_SAH_1_INTS_M
   66     0     9     0     0
SMALL
NO_CHARGES


@<TRIPOS>ATOM
      1 O          24.7770   29.5840   44.3710 O.2       1 ALC1        0.0000 
      2 O          25.2980   30.8770   44.3560 O.2       7 ALL1        0.0000 
      3 O          24.2560   28.2910   44.3860 O.2       4 ALP1        0.0000 
      4 O          24.5035   31.7280   45.0300 O.2       1 ALC1        0.0000 
      5 O          23.7090   32.5790   45.7040 O.2       4 ALP1        0.0000 
      6 CA         25.9605   29.6700   43.6455 C.3       3 GLC5        0.0000 
      7 CA         24.8950   31.2790   43.0200 C.3       9 GLL5        0.0000 
      8 CA         27.0260   28.0610   44.2710 C.3       6 GLP5        0.0000 
      9 CA         25.4455   29.6860   41.8155 C.3       3 GLC5        0.0000 
     10 CA         25.9960   28.0930   40.6110 C.3       6 GLP5        0.0000 
     11 CA         22.7140   30.4570   44.8250 C.3       3 GLC5        0.0000 
     12 CA         23.3930   31.0680   42.8980 C.3       9 GLL5        0.0000 
     13 CA         22.0350   29.8460   46.7520 C.3       6 GLP5        0.0000 
     14 CA         24.4570   29.3595   41.0725 C.3       3 GLC5        0.0000 
     15 CA         22.9180   30.6260   41.5340 C.3       9 GLL5        0.0000 
     16 CA         19.8315   30.4075   40.2370 C.3       3 GLC5        0.0000 
     17 CA         21.1150   30.7420   41.4740 C.3       9 GLL5        0.0000 
     18 CA         18.5480   30.0730   39.0000 C.3       6 GLP5        0.0000 
     19 N          26.4275   34.2485   42.4395 N.am      2 SEC2        0.0000 
     20 N          26.0140   33.3880   43.4520 N.am      8 SEL2        0.0000 
     21 N          26.8410   35.1090   41.4270 N.am      5 SEP2        0.0000 
     22 N          26.1015   33.8760   44.7225 N.am      2 SEC2        0.0000 
     23 N          26.1890   34.3640   45.9930 N.am      5 SEP2        0.0000 
     24 CA         19.1140   29.6585   41.2475 C.3       3 GLC5        0.0000 
     25 CA         20.6140   29.3260   42.4940 C.3       9 GLL5        0.0000 
     26 CA         17.6140   29.9910   40.0010 C.3       6 GLP5        0.0000 
     27 O          23.0380   25.7345   40.5530 O.2       1 ALC1        0.0000 
     28 O          22.4870   27.3140   40.2390 O.2       7 ALL1        0.0000 
     29 O          23.5890   24.1550   40.8670 O.2       4 ALP1        0.0000 
     30 O          23.2215   26.6510   41.1610 O.2       1 ALC1        0.0000 
     31 O          23.9560   25.9880   42.0830 O.2       4 ALP1        0.0000 
     32 CA         19.9625   23.9830   40.4525 C.3       3 GLC5        0.0000 
     33 CA         20.5720   26.0650   40.9430 C.3       9 GLL5        0.0000 
     34 CA         19.3530   21.9010   39.9620 C.3       6 GLP5        0.0000 
     35 O          22.3815   24.6315   40.4935 O.2       1 ALC1        0.0000 
     36 O          21.1740   25.1080   40.1200 O.2       7 ALL1        0.0000 
     37 CA         22.3580   25.9560   43.9445 C.3       3 GLC5        0.0000 
     38 CA         20.7430   25.7350   42.4150 C.3       9 GLL5        0.0000 
     39 CA         23.9730   26.1770   45.4740 C.3       6 GLP5        0.0000 
     40 CA         20.5465   25.3495   44.4715 C.3       3 GLC5        0.0000 
     41 CA         20.3500   24.9640   46.5280 C.3       6 GLP5        0.0000 
     42 CA         19.6605   20.7545   43.0010 C.3       3 GLC5        0.0000 
     43 CA         19.2170   21.6690   44.6910 C.3       9 GLL5        0.0000 
     44 CA         20.1040   19.8400   41.3110 C.3       6 GLP5        0.0000 
     45 CA         20.0395   19.8625   45.4830 C.3       3 GLC5        0.0000 
     46 CA         20.8620   18.0560   46.2750 C.3       6 GLP5        0.0000 
     47 O          18.1185   19.6840   45.7570 O.2       1 ALC1        0.0000 
     48 O          18.1920   20.8850   45.0430 O.2       7 ALL1        0.0000 
     49 O          18.0450   18.4830   46.4710 O.2       4 ALP1        0.0000 
     50 N          20.6220   20.6325   46.3920 N.am      2 SEC2        0.0000 
     51 N          20.4850   21.2550   45.0340 N.am      8 SEL2        0.0000 
     52 N          20.7590   20.0100   47.7500 N.am      5 SEP2        0.0000 
     53 CA         23.4390   21.3505   45.7870 C.3       3 GLC5        0.0000 
     54 CA         21.6000   22.0020   44.6850 C.3       9 GLL5        0.0000 
     55 CA         25.2780   20.6990   46.8890 C.3       6 GLP5        0.0000 
     56 CA         23.3930   22.0885   43.6630 C.3       3 GLC5        0.0000 
     57 CA         25.1860   22.1750   42.6410 C.3       6 GLP5        0.0000 
     58 CA         20.8520   20.9210   42.9980 C.3       3 GLC5        0.0000 
     59 CA         21.2310   20.0290   45.4800 C.3       3 GLC5        0.0000 
     60 CA         21.4505   22.0840   46.8075 C.3       3 GLC5        0.0000 
     61 CA         21.3010   22.1660   48.9300 C.3       6 GLP5        0.0000 
     62 CA         19.6487   27.1975   39.7322 C.3       3 GLC5        0.0000 
     63 CA         18.4070   27.6430   38.5890 C.3       6 GLP5        0.0000 
     64 CA         20.0792   22.2015   42.1905 C.3       3 GLC5        0.0000 
     65 CA         20.1970   23.6000   43.6190 C.3       9 GLL5        0.0000 
     66 CA         20.5250   21.1670   40.5900 C.3       6 GLP5        0.0000 
@<TRIPOS>BOND
@<TRIPOS>SUBSTRUCTURE
     1 ALC1        1 GROUP        1 X    ALC  0     ROOT ALC X 1
     2 SEC2       19 GROUP        1 X    SEC  0     **** SEC X 2
     3 GLC5        6 GROUP        1 X    GLC  0     **** GLC X 6
     4 ALP1        3 GROUP        1 Y    ALP  0     ROOT ALP Y 8
     5 SEP2       21 GROUP        1 Y    SEP  0     **** SEP Y 9
     6 GLP5        8 GROUP        1 Y    GLP  0     **** GLP Y 13
     7 ALL1        2 GROUP        1 Z    ALL  0     ROOT ALL Z 15
     8 SEL2       20 GROUP        1 Z    SEL  0     **** SEL Z 16
     9 GLL5        7 GROUP        1 Z    GLL  0     **** GLL Z 20
@<TRIPOS>SET

