#    Name: 1r00_SAH_1_ligand
#    Modification time : Tue Mar 25 00:13:13 2014

@<TRIPOS>MOLECULE
1r00_SAH_1_ligand
   46    48     1     0     0
SMALL
NO_CHARGES


@<TRIPOS>ATOM
      1 N          25.2980   30.8770   44.3560 N.4       1 SAH635      0.0000 
      2 CA         24.8950   31.2790   43.0200 C.3       1 SAH635      0.0000 
      3 CB         23.3930   31.0680   42.8980 C.3       1 SAH635      0.0000 
      4 CG         22.9180   30.6260   41.5340 C.3       1 SAH635      0.0000 
      5 SD         21.1150   30.7420   41.4740 S.3       1 SAH635      0.0000 
      6 C          25.1900   32.7620   42.7640 C.2       1 SAH635      0.0000 
      7 O          26.0140   33.3880   43.4520 O.co2     1 SAH635      0.0000 
      8 OXT        24.5700   33.3530   41.8810 O.co2     1 SAH635      0.0000 
      9 C5'        20.6140   29.3260   42.4940 C.3       1 SAH635      0.0000 
     10 C4'        21.2860   27.9720   42.2340 C.3       1 SAH635      0.0000 
     11 O4'        20.6400   27.0000   43.0410 O.3       1 SAH635      0.0000 
     12 C3'        21.2090   27.4390   40.8080 C.3       1 SAH635      0.0000 
     13 O3'        22.4870   27.3140   40.2390 O.3       1 SAH635      0.0000 
     14 C2'        20.5720   26.0650   40.9430 C.3       1 SAH635      0.0000 
     15 O2'        21.1740   25.1080   40.1200 O.3       1 SAH635      0.0000 
     16 C1'        20.7430   25.7350   42.4150 C.3       1 SAH635      0.0000 
     17 N9         19.7990   24.7150   42.9370 N.pl3     1 SAH635      0.0000 
     18 C8         18.4400   24.6770   42.8500 C.2       1 SAH635      0.0000 
     19 N7         18.0060   23.5550   43.4770 N.2       1 SAH635      0.0000 
     20 C5         19.0700   22.8720   43.9630 C.ar      1 SAH635      0.0000 
     21 C6         19.2170   21.6690   44.6910 C.ar      1 SAH635      0.0000 
     22 N6         18.1920   20.8850   45.0430 N.pl3     1 SAH635      0.0000 
     23 N1         20.4850   21.2550   45.0340 N.ar      1 SAH635      0.0000 
     24 C2         21.6000   22.0020   44.6850 C.ar      1 SAH635      0.0000 
     25 N3         21.4360   23.1750   43.9830 N.ar      1 SAH635      0.0000 
     26 C4         20.1970   23.6000   43.6190 C.ar      1 SAH635      0.0000 
     27 H          25.3792   30.6945   42.2699 H         1 SAH635      0.0000 
     28 H          22.8786   32.0121   43.1730 H         1 SAH635      0.0000 
     29 H          23.0776   30.3179   43.6526 H         1 SAH635      0.0000 
     30 H          23.0859   29.6000   41.3287 H         1 SAH635      0.0000 
     31 H          23.2126   31.2680   40.7440 H         1 SAH635      0.0000 
     32 H          19.5290   29.3004   42.3329 H         1 SAH635      0.0000 
     33 H          20.7918   29.7012   43.5096 H         1 SAH635      0.0000 
     34 H          22.3303   28.0406   42.5186 H         1 SAH635      0.0000 
     35 H          20.5469   28.0574   40.2533 H         1 SAH635      0.0000 
     36 H          19.5142   26.1848   40.7658 H         1 SAH635      0.0000 
     37 H          21.7798   25.3712   42.5223 H         1 SAH635      0.0000 
     38 H          17.8873   25.3333   42.4183 H         1 SAH635      0.0000 
     39 H          18.4225   20.0750   45.5822 H         1 SAH635      0.0000 
     40 H          17.2871   21.1792   44.7354 H         1 SAH635      0.0000 
     41 H          22.5385   21.6791   44.9501 H         1 SAH635      0.0000 
     42 H          24.8313   31.4109   45.0611 H         1 SAH635      0.0000 
     43 H          25.0915   29.9146   44.5324 H         1 SAH635      0.0000 
     44 H          26.2803   30.9971   44.4995 H         1 SAH635      0.0000 
     45 H          23.0212   26.8030   40.9125 H         1 SAH635      0.0000 
     46 H          22.0380   24.8852   40.5715 H         1 SAH635      0.0000 
@<TRIPOS>BOND
     1    2    1 1    
     2   42    1 1    
     3   43    1 1    
     4   44    1 1    
     5    3    2 1    
     6    6    2 1    
     7   27    2 1    
     8    4    3 1    
     9   28    3 1    
    10   29    3 1    
    11    5    4 1    
    12   30    4 1    
    13   31    4 1    
    14    9    5 1    
    15    7    6 ar   
    16    8    6 ar   
    17   10    9 1    
    18   32    9 1    
    19   33    9 1    
    20   11   10 1    
    21   12   10 1    
    22   34   10 1    
    23   16   11 1    
    24   13   12 1    
    25   14   12 1    
    26   35   12 1    
    27   45   13 1    
    28   15   14 1    
    29   16   14 1    
    30   36   14 1    
    31   46   15 1    
    32   17   16 1    
    33   37   16 1    
    34   18   17 1    
    35   26   17 1    
    36   19   18 2    
    37   38   18 1    
    38   20   19 1    
    39   21   20 ar   
    40   26   20 ar   
    41   22   21 1    
    42   23   21 ar   
    43   39   22 1    
    44   40   22 1    
    45   24   23 ar   
    46   25   24 ar   
    47   41   24 1    
    48   26   25 ar   
@<TRIPOS>SUBSTRUCTURE
     1 SAH635      1 GROUP   
@<TRIPOS>SET

