#    Name: 4fs4_H24_1_INTS_M
#    Modification time : Mon Mar 24 20:37:52 2014

@<TRIPOS>MOLECULE
4fs4_H24_1_INTS_M
   59     0     9     0     0
SMALL
NO_CHARGES


@<TRIPOS>ATOM
      1 CA         32.6840    8.6300   23.8615 C.3       3 GLC5        0.0000 
      2 CA         30.4660    8.5250   23.5620 C.3       9 GLL5        0.0000 
      3 CA         34.9020    8.7350   24.1610 C.3       6 GLP5        0.0000 
      4 CA         30.9335    7.8095   21.9705 C.3       3 GLC5        0.0000 
      5 CA         31.4010    7.0940   20.3790 C.3       6 GLP5        0.0000 
      6 CA         28.4195    8.0910   23.9130 C.3       3 GLC5        0.0000 
      7 CA         26.3730    7.6570   24.2640 C.3       6 GLP5        0.0000 
      8 CA         30.8340   10.0850   24.9555 C.3       3 GLC5        0.0000 
      9 CA         31.2020   11.6450   26.3490 C.3       6 GLP5        0.0000 
     10 CA         31.3415    7.9565   25.2420 C.3       3 GLC5        0.0000 
     11 CA         32.2170    7.3880   26.9220 C.3       6 GLP5        0.0000 
     12 CA         28.6235    7.7285   20.7640 C.3       3 GLC5        0.0000 
     13 CA         29.1060    9.5460   21.8620 C.3       9 GLL5        0.0000 
     14 CA         28.1410    5.9110   19.6660 C.3       6 GLP5        0.0000 
     15 CA         27.7150   11.9105   17.8590 C.3       3 GLC5        0.0000 
     16 CA         25.8810   11.3960   18.6720 C.3       9 GLL5        0.0000 
     17 CA         29.5490   12.4250   17.0460 C.3       6 GLP5        0.0000 
     18 CA         21.6595    9.8505   17.9770 C.3       3 GLC5        0.0000 
     19 CA         21.5730    9.2100   20.0970 C.3       9 GLL5        0.0000 
     20 CA         21.7460   10.4910   15.8570 C.3       6 GLP5        0.0000 
     21 CA         20.8580    8.1330   18.7900 C.3       3 GLC5        0.0000 
     22 CA         20.1430    7.0560   17.4830 C.3       6 GLP5        0.0000 
     23 CA         20.0085   11.5185   20.7545 C.3       3 GLC5        0.0000 
     24 CA         21.6120   11.3560   21.4480 C.3       9 GLL5        0.0000 
     25 CA         18.4050   11.6810   20.0610 C.3       6 GLP5        0.0000 
     26 CA         25.0720   11.4960   26.2015 C.3       3 GLC5        0.0000 
     27 CA         23.4300   11.8660   24.7870 C.3       9 GLL5        0.0000 
     28 CA         26.7140   11.1260   27.6160 C.3       6 GLP5        0.0000 
     29 OD1        22.6645    7.8445   23.2410 O.co2     2 ASC3        0.0000 
     30 OD1        22.8950    9.8030   23.3920 O.co2     8 ASL3        0.0000 
     31 OD1        23.3110    6.2730   23.9280 O.co2     5 ASP3        0.0000 
     32 OD1        22.4780    7.9790   22.1185 O.co2     2 ASC3        0.0000 
     33 OD1        22.2370    6.6980   22.0490 O.co2     5 ASP3        0.0000 
     34 OD1        23.3640    9.2200   25.8460 O.co2     2 ASC3        0.0000 
     35 OD1        23.6360    9.4490   27.2590 O.co2     5 ASP3        0.0000 
     36 O          23.2015    7.6320   24.1805 O.2       1 ALC1        0.0000 
     37 O          23.0920    8.9910   24.4330 O.2       7 ALL1        0.0000 
     38 O          23.3110    6.2730   23.9280 O.2       4 ALP1        0.0000 
     39 O          22.6645    7.8445   23.2410 O.2       1 ALC1        0.0000 
     40 O          22.2370    6.6980   22.0490 O.2       4 ALP1        0.0000 
     41 O          23.3640    9.2200   25.8460 O.2       1 ALC1        0.0000 
     42 O          23.6360    9.4490   27.2590 O.2       4 ALP1        0.0000 
     43 O          22.4780    7.9790   22.1185 O.2       1 ALC1        0.0000 
     44 O          22.7190    9.2600   22.1880 O.2       7 ALL1        0.0000 
     45 CA         27.4262    8.6135   22.9117 C.3       3 GLC5        0.0000 
     46 CA         31.4110   10.7030   20.1562 C.3       3 GLC5        0.0000 
     47 CA         30.0330   10.5620   21.6550 C.3       9 GLL5        0.0000 
     48 CA         32.9520   10.3180   19.0770 C.3       6 GLP5        0.0000 
     49 CA         26.7298    8.4467   20.2073 C.3       3 GLC5        0.0000 
     50 CA         27.4960   10.6850   20.4580 C.3       9 GLL5        0.0000 
     51 CA         25.7850    6.7540   19.5570 C.3       6 GLP5        0.0000 
     52 CA         28.9183   11.7955   18.7684 C.3       3 GLC5        0.0000 
     53 CA         30.0561    8.4590   20.9434 C.3       3 GLC5        0.0000 
     54 CA         27.8530    9.5940   21.2570 C.3       9 GLL5        0.0000 
     55 CA         25.2088    8.6737   19.9091 C.3       3 GLC5        0.0000 
     56 CA         26.1120   10.8140   19.9230 C.3       9 GLL5        0.0000 
     57 CA         20.4718   10.4905   19.6913 C.3       3 GLC5        0.0000 
     58 CA         22.4580   10.1240   20.9980 C.3       9 GLL5        0.0000 
     59 CA         18.9280   11.3140   18.8350 C.3       6 GLP5        0.0000 
@<TRIPOS>BOND
@<TRIPOS>SUBSTRUCTURE
     1 ALC1       36 GROUP        1 X    ALC  0     ROOT ALC X 1
     2 ASC3       29 GROUP        1 X    ASC  0     **** ASC X 3
     3 GLC5        1 GROUP        1 X    GLC  0     **** GLC X 6
     4 ALP1       38 GROUP        1 Y    ALP  0     ROOT ALP Y 8
     5 ASP3       31 GROUP        1 Y    ASP  0     **** ASP Y 10
     6 GLP5        3 GROUP        1 Y    GLP  0     **** GLP Y 13
     7 ALL1       37 GROUP        1 Z    ALL  0     ROOT ALL Z 15
     8 ASL3       30 GROUP        1 Z    ASL  0     **** ASL Z 17
     9 GLL5        2 GROUP        1 Z    GLL  0     **** GLL Z 20
@<TRIPOS>SET

