#    Name: 4fs4_H24_1_ligand
#    Modification time : Mon Mar 24 20:37:52 2014

@<TRIPOS>MOLECULE
4fs4_H24_1_ligand
   46    48     1     0     0
SMALL
NO_CHARGES


@<TRIPOS>ATOM
      1 C1         30.4660    8.5250   23.5620 C.3       1 H24501      0.0000 
      2 O2         29.3000    8.4980   22.7240 O.3       1 H24501      0.0000 
      3 C3         29.1060    9.5460   21.8620 C.ar      1 H24501      0.0000 
      4 C4         30.0330   10.5620   21.6550 C.ar      1 H24501      0.0000 
      5 C5         29.7070   11.6140   20.8160 C.ar      1 H24501      0.0000 
      6 C6         28.4510   11.6800   20.2310 C.ar      1 H24501      0.0000 
      7 C7         27.4960   10.6850   20.4580 C.ar      1 H24501      0.0000 
      8 C8         27.8530    9.5940   21.2570 C.ar      1 H24501      0.0000 
      9 C9         26.1120   10.8140   19.9230 C.ar      1 H24501      0.0000 
     10 C10        25.8810   11.3960   18.6720 C.ar      1 H24501      0.0000 
     11 C11        24.5930   11.5800   18.2030 C.ar      1 H24501      0.0000 
     12 C12        23.5120   11.1780   18.9710 C.ar      1 H24501      0.0000 
     13 C13        23.7040   10.5790   20.2150 C.ar      1 H24501      0.0000 
     14 C14        22.4580   10.1240   20.9980 C.3       1 H24501      0.0000 
     15 C15        21.5730    9.2100   20.0970 C.3       1 H24501      0.0000 
     16 C18        21.6120   11.3560   21.4480 C.3       1 H24501      0.0000 
     17 C19        22.2610   12.0320   22.6490 C.2       1 H24501      0.0000 
     18 O20        22.3120   13.2530   22.7210 O.2       1 H24501      0.0000 
     19 N21        22.8590   11.2290   23.5940 N.am      1 H24501      0.0000 
     20 C22        23.4300   11.8660   24.7870 C.3       1 H24501      0.0000 
     21 C23        22.8950    9.8030   23.3920 C.cat     1 H24501      0.0000 
     22 N24        23.0920    8.9910   24.4330 N.pl3     1 H24501      0.0000 
     23 N25        22.7190    9.2600   22.1880 N.pl3     1 H24501      0.0000 
     24 C26        25.0100   10.4020   20.6920 C.ar      1 H24501      0.0000 
     25 H          30.9451   10.5297   22.1190 H         1 H24501      0.0000 
     26 H          30.4011   12.3534   20.6241 H         1 H24501      0.0000 
     27 H          28.2125   12.4775   19.6154 H         1 H24501      0.0000 
     28 H          27.1843    8.8245   21.3966 H         1 H24501      0.0000 
     29 H          26.6879   11.6899   18.0961 H         1 H24501      0.0000 
     30 H          24.4360   12.0159   17.2827 H         1 H24501      0.0000 
     31 H          22.5500   11.3224   18.6204 H         1 H24501      0.0000 
     32 H          20.6183   11.0125   21.7095 H         1 H24501      0.0000 
     33 H          21.5522   12.0519   20.6198 H         1 H24501      0.0000 
     34 H          23.1275    8.0130   24.2276 H         1 H24501      0.0000 
     35 H          23.1864    9.4337   25.3247 H         1 H24501      0.0000 
     36 H          22.7496    8.2504   22.0037 H         1 H24501      0.0000 
     37 H          25.1647    9.9681   21.6103 H         1 H24501      0.0000 
     38 H          31.3089    8.5534   23.0247 H         1 H24501      0.0000 
     39 H          30.4737    9.3250   24.1619 H         1 H24501      0.0000 
     40 H          30.5199    7.7176   24.1495 H         1 H24501      0.0000 
     41 H          22.0664    8.3931   19.7984 H         1 H24501      0.0000 
     42 H          20.7527    8.8981   20.5765 H         1 H24501      0.0000 
     43 H          21.2673    9.6856   19.2722 H         1 H24501      0.0000 
     44 H          23.8354   11.1953   25.4081 H         1 H24501      0.0000 
     45 H          24.1494   12.5192   24.5509 H         1 H24501      0.0000 
     46 H          22.7385   12.3670   25.3074 H         1 H24501      0.0000 
@<TRIPOS>BOND
     1    2    1 1    
     2   38    1 1    
     3   39    1 1    
     4   40    1 1    
     5    3    2 1    
     6    4    3 ar   
     7    8    3 ar   
     8    5    4 ar   
     9   25    4 1    
    10    6    5 ar   
    11   26    5 1    
    12    7    6 ar   
    13   27    6 1    
    14    8    7 ar   
    15    9    7 1    
    16   28    8 1    
    17   10    9 ar   
    18   24    9 ar   
    19   11   10 ar   
    20   29   10 1    
    21   12   11 ar   
    22   30   11 1    
    23   13   12 ar   
    24   31   12 1    
    25   14   13 1    
    26   24   13 ar   
    27   15   14 1    
    28   16   14 1    
    29   23   14 1    
    30   41   15 1    
    31   42   15 1    
    32   43   15 1    
    33   17   16 1    
    34   32   16 1    
    35   33   16 1    
    36   18   17 2    
    37   19   17 am   
    38   20   19 1    
    39   21   19 ar   
    40   44   20 1    
    41   45   20 1    
    42   46   20 1    
    43   22   21 ar   
    44   23   21 ar   
    45   34   22 1    
    46   35   22 1    
    47   36   23 1    
    48   37   24 1    
@<TRIPOS>SUBSTRUCTURE
     1 H24501      1 GROUP   
@<TRIPOS>SET

