#    Name: 4ivc_1J6_1_INTS_M
#    Modification time : Tue Mar 25 04:42:29 2014

@<TRIPOS>MOLECULE
4ivc_1J6_1_INTS_M
   66     0     9     0     0
SMALL
NO_CHARGES


@<TRIPOS>ATOM
      1 CA         12.7560   57.0300   -1.3315 C.3       3 GLC5        0.0000 
      2 CA         10.8090   57.1620   -1.6820 C.3       9 GLL5        0.0000 
      3 CA         14.7030   56.8980   -0.9810 C.3       6 GLP5        0.0000 
      4 CA          8.1510   56.5210   -2.2635 C.3       3 GLC5        0.0000 
      5 CA          9.7620   56.5650   -0.7290 C.3       9 GLL5        0.0000 
      6 CA          6.5400   56.4770   -3.7980 C.3       6 GLP5        0.0000 
      7 N          11.0880   57.5345    1.3055 N.am      2 SEC2        0.0000 
      8 N          10.3290   56.2350    0.5450 N.am      8 SEL2        0.0000 
      9 N          11.8470   58.8340    2.0660 N.am      5 SEP2        0.0000 
     10 N          11.4580   56.1150    1.7810 N.am      2 SEC2        0.0000 
     11 N          12.5870   55.9950    3.0170 N.am      5 SEP2        0.0000 
     12 O          11.7315   56.4135    0.6645 O.2       1 ALC1        0.0000 
     13 O          10.3290   56.2350    0.5450 O.2       7 ALL1        0.0000 
     14 O          13.1340   56.5920    0.7840 O.2       4 ALP1        0.0000 
     15 CA          5.5270   62.2900   -0.9460 C.3       3 GLC5        0.0000 
     16 CA          6.9200   60.6330   -0.5090 C.3       9 GLL5        0.0000 
     17 CA          4.1340   63.9470   -1.3830 C.3       6 GLP5        0.0000 
     18 CA          7.1960   62.5700   -0.0745 C.3       3 GLC5        0.0000 
     19 CA          7.4720   64.5070    0.3600 C.3       6 GLP5        0.0000 
     20 N           5.9850   62.4285   -0.1090 N.am      2 SEC2        0.0000 
     21 N           5.7300   60.9430   -0.0470 N.am      8 SEL2        0.0000 
     22 N           6.2400   63.9140   -0.1710 N.am      5 SEP2        0.0000 
     23 CA          4.5540   61.9805   -0.4235 C.3       3 GLC5        0.0000 
     24 CA          4.9740   60.0140    0.5360 C.3       9 GLL5        0.0000 
     25 CA          3.5475   57.1135   -0.3820 C.3       3 GLC5        0.0000 
     26 CA          4.3380   57.9640    1.3580 C.3       9 GLL5        0.0000 
     27 CA          2.7570   56.2630   -2.1220 C.3       6 GLP5        0.0000 
     28 CA          2.8460   60.3590    3.0580 C.3       3 GLC5        0.0000 
     29 CA          3.3490   58.8410    1.5500 C.3       9 GLL5        0.0000 
     30 CA          2.3430   61.8770    4.5660 C.3       6 GLP5        0.0000 
     31 O           3.1685   61.4890    0.8880 O.2       1 ALC1        0.0000 
     32 O           3.7350   60.0730    1.0750 O.2       7 ALL1        0.0000 
     33 O           2.6020   62.9050    0.7010 O.2       4 ALP1        0.0000 
     34 CA          3.7290   54.0175    0.5525 C.3       3 GLC5        0.0000 
     35 CA          5.4220   53.7580    1.8720 C.3       9 GLL5        0.0000 
     36 CA          2.0360   54.2770   -0.7670 C.3       6 GLP5        0.0000 
     37 CA          6.2685   55.8420   -1.9625 C.3       3 GLC5        0.0000 
     38 CA          5.9970   55.2070   -0.1270 C.3       9 GLL5        0.0000 
     39 CA          4.6160   50.4265    0.1625 C.3       3 GLC5        0.0000 
     40 CA          4.1500   51.6550    1.7620 C.3       9 GLL5        0.0000 
     41 CA          5.0820   49.1980   -1.4370 C.3       6 GLP5        0.0000 
     42 CA          3.0930   52.9660    0.4975 C.3       3 GLC5        0.0000 
     43 CA         10.7877   58.6908   -0.3817 C.3       3 GLC5        0.0000 
     44 CA         11.2900   60.5180    0.4420 C.3       6 GLP5        0.0000 
     45 CA          9.2363   60.2523   -0.0068 C.3       3 GLC5        0.0000 
     46 CA          7.4450   59.3400   -0.4020 C.3       9 GLL5        0.0000 
     47 CA          6.2385   59.2651   -2.0700 C.3       3 GLC5        0.0000 
     48 CA          5.4830   58.7980   -3.8410 C.3       6 GLP5        0.0000 
     49 CA          7.5220   59.5171    1.4845 C.3       3 GLC5        0.0000 
     50 CA          8.0500   59.3020    3.2680 C.3       6 GLP5        0.0000 
     51 CA          1.8802   58.0667    1.3475 C.3       3 GLC5        0.0000 
     52 CA         -0.0830   57.7310    1.2410 C.3       6 GLP5        0.0000 
     53 CA          7.5220   57.5787    2.3400 C.3       3 GLC5        0.0000 
     54 CA          6.8280   55.8880    2.1630 C.3       9 GLL5        0.0000 
     55 CA          6.5377   53.2955   -1.2725 C.3       3 GLC5        0.0000 
     56 CA          5.7000   53.7810    0.3470 C.3       9 GLL5        0.0000 
     57 CA          7.2270   52.0970   -2.6550 C.3       6 GLP5        0.0000 
     58 CA          4.3317   54.6150   -0.9385 C.3       3 GLC5        0.0000 
     59 CA          2.8150   54.7360   -1.9870 C.3       6 GLP5        0.0000 
     60 CA          4.6035   53.6693    4.0641 C.3       3 GLC5        0.0000 
     61 CA          5.3250   52.3070    2.4090 C.3       9 GLL5        0.0000 
     62 CA          3.5620   54.1250    5.7850 C.3       6 GLP5        0.0000 
     63 CA          3.3386   59.4511   -0.3357 C.3       3 GLC5        0.0000 
     64 CA          2.1560   60.0260   -1.7070 C.3       6 GLP5        0.0000 
     65 CA          5.2206   59.6806    2.4623 C.3       3 GLC5        0.0000 
     66 CA          5.9200   60.4850    3.8890 C.3       6 GLP5        0.0000 
@<TRIPOS>BOND
@<TRIPOS>SUBSTRUCTURE
     1 ALC1       12 GROUP        1 X    ALC  0     ROOT ALC X 1
     2 SEC2        7 GROUP        1 X    SEC  0     **** SEC X 2
     3 GLC5        1 GROUP        1 X    GLC  0     **** GLC X 6
     4 ALP1       14 GROUP        1 Y    ALP  0     ROOT ALP Y 8
     5 SEP2        9 GROUP        1 Y    SEP  0     **** SEP Y 9
     6 GLP5        3 GROUP        1 Y    GLP  0     **** GLP Y 13
     7 ALL1       13 GROUP        1 Z    ALL  0     ROOT ALL Z 15
     8 SEL2        8 GROUP        1 Z    SEL  0     **** SEL Z 16
     9 GLL5        2 GROUP        1 Z    GLL  0     **** GLL Z 20
@<TRIPOS>SET

