#    Name: 4ivc_1J6_1_ligand
#    Modification time : Tue Mar 25 04:42:29 2014

@<TRIPOS>MOLECULE
4ivc_1J6_1_ligand
   45    48     1     0     0
SMALL
NO_CHARGES


@<TRIPOS>ATOM
      1 C1         10.8090   57.1620   -1.6820 C.3       1 1J61201     0.0000 
      2 C2          9.7620   56.5650   -0.7290 C.3       1 1J61201     0.0000 
      3 O4         10.3290   56.2350    0.5450 O.3       1 1J61201     0.0000 
      4 C5          8.6250   57.5160   -0.4670 C.2       1 1J61201     0.0000 
      5 N6          7.4640   57.1690    0.1600 N.pl3     1 1J61201     0.0000 
      6 C7          6.6910   58.3230    0.2240 C.ar      1 1J61201     0.0000 
      7 C8          7.4450   59.3400   -0.4020 C.ar      1 1J61201     0.0000 
      8 N9          8.6160   58.7790   -0.7880 N.2       1 1J61201     0.0000 
      9 C10         6.9200   60.6330   -0.5090 C.ar      1 1J61201     0.0000 
     10 N11         5.7300   60.9430   -0.0470 N.ar      1 1J61201     0.0000 
     11 C12         4.9740   60.0140    0.5360 C.ar      1 1J61201     0.0000 
     12 C13         5.4240   58.6860    0.6980 C.ar      1 1J61201     0.0000 
     13 C14         4.3380   57.9640    1.3580 C.2       1 1J61201     0.0000 
     14 C15         3.3490   58.8410    1.5500 C.2       1 1J61201     0.0000 
     15 N16         3.7350   60.0730    1.0750 N.pl3     1 1J61201     0.0000 
     16 C18         7.1600   55.8230    0.6610 C.3       1 1J61201     0.0000 
     17 C20         6.8280   55.8880    2.1630 C.3       1 1J61201     0.0000 
     18 C21         6.5080   54.4820    2.6830 C.3       1 1J61201     0.0000 
     19 C22         5.4220   53.7580    1.8720 C.3       1 1J61201     0.0000 
     20 C24         5.7000   53.7810    0.3470 C.3       1 1J61201     0.0000 
     21 C25         5.9970   55.2070   -0.1270 C.3       1 1J61201     0.0000 
     22 C26         5.3250   52.3070    2.4090 C.3       1 1J61201     0.0000 
     23 C27         4.1500   51.6550    1.7620 C.1       1 1J61201     0.0000 
     24 N28         3.2540   51.2550    1.1620 N.1       1 1J61201     0.0000 
     25 H           9.3491   55.6718   -1.1950 H         1 1J61201     0.0000 
     26 H           7.5271   61.3545   -0.9811 H         1 1J61201     0.0000 
     27 H           4.3968   57.0530    1.5755 H         1 1J61201     0.0000 
     28 H           2.4881   58.6607    1.9569 H         1 1J61201     0.0000 
     29 H           3.1802   60.8739    1.1261 H         1 1J61201     0.0000 
     30 H           8.0259   55.1803    0.5413 H         1 1J61201     0.0000 
     31 H           5.9694   56.5302    2.3096 H         1 1J61201     0.0000 
     32 H           7.6807   56.2846    2.6985 H         1 1J61201     0.0000 
     33 H           6.1804   54.5538    3.7299 H         1 1J61201     0.0000 
     34 H           7.4258   53.8771    2.6664 H         1 1J61201     0.0000 
     35 H           4.4738   54.2421    2.0648 H         1 1J61201     0.0000 
     36 H           4.8273   53.3999   -0.1734 H         1 1J61201     0.0000 
     37 H           6.5530   53.1437    0.1373 H         1 1J61201     0.0000 
     38 H           6.2536   55.1870   -1.1854 H         1 1J61201     0.0000 
     39 H           5.1084   55.8223    0.0082 H         1 1J61201     0.0000 
     40 H           5.1984   52.3479    3.4794 H         1 1J61201     0.0000 
     41 H           6.2368   51.7890    2.1568 H         1 1J61201     0.0000 
     42 H          11.2104   58.0009   -1.3143 H         1 1J61201     0.0000 
     43 H          11.5622   56.5264   -1.8514 H         1 1J61201     0.0000 
     44 H          10.4136   57.3916   -2.5714 H         1 1J61201     0.0000 
     45 H          11.3177   56.3090    0.4151 H         1 1J61201     0.0000 
@<TRIPOS>BOND
     1    2    1 1    
     2   42    1 1    
     3   43    1 1    
     4   44    1 1    
     5    3    2 1    
     6    4    2 1    
     7   25    2 1    
     8   45    3 1    
     9    5    4 1    
    10    8    4 2    
    11    6    5 1    
    12   16    5 1    
    13    7    6 ar   
    14   12    6 ar   
    15    8    7 1    
    16    9    7 ar   
    17   10    9 ar   
    18   26    9 1    
    19   11   10 ar   
    20   12   11 ar   
    21   15   11 1    
    22   13   12 1    
    23   14   13 2    
    24   27   13 1    
    25   15   14 1    
    26   28   14 1    
    27   29   15 1    
    28   17   16 1    
    29   21   16 1    
    30   30   16 1    
    31   18   17 1    
    32   31   17 1    
    33   32   17 1    
    34   19   18 1    
    35   33   18 1    
    36   34   18 1    
    37   20   19 1    
    38   22   19 1    
    39   35   19 1    
    40   21   20 1    
    41   36   20 1    
    42   37   20 1    
    43   38   21 1    
    44   39   21 1    
    45   23   22 1    
    46   40   22 1    
    47   41   22 1    
    48   24   23 3    
@<TRIPOS>SUBSTRUCTURE
     1 1J61201     1 GROUP   
@<TRIPOS>SET

