#    Name: 2y2f_YI1_1_INTS_M
#    Modification time : Tue Mar 25 07:26:36 2014

@<TRIPOS>MOLECULE
2y2f_YI1_1_INTS_M
   72     0    15     0     0
SMALL
NO_CHARGES


@<TRIPOS>ATOM
      1 CA         -3.1520    8.9575  -27.9400 C.3       5 GLC5        0.0000 
      2 CA         -4.6920    9.8100  -26.8070 C.3      15 GLL5        0.0000 
      3 CA         -1.6120    8.1050  -29.0730 C.3      10 GLP5        0.0000 
      4 CA         -5.8345   11.5375  -26.2635 C.3       5 GLC5        0.0000 
      5 CA         -6.9770   13.2650  -25.7200 C.3      10 GLP5        0.0000 
      6 CA         -6.6910    9.7215  -27.2840 C.3       5 GLC5        0.0000 
      7 CA         -8.6900    9.6330  -27.7610 C.3      10 GLP5        0.0000 
      8 CA         -4.9335   11.0805  -28.1730 C.3       5 GLC5        0.0000 
      9 CA         -5.1750   12.3510  -29.5390 C.3      10 GLP5        0.0000 
     10 CA         -2.7725    6.5175  -25.9145 C.3       5 GLC5        0.0000 
     11 CA         -3.8490    7.9860  -25.8780 C.3      15 GLL5        0.0000 
     12 CA         -1.6960    5.0490  -25.9510 C.3      10 GLP5        0.0000 
     13 CA         -2.7305    8.0455  -27.4755 C.3       5 GLC5        0.0000 
     14 NZ         -5.0740    6.8665  -23.4630 N.4       4 LYC4        0.0000 
     15 NZ         -5.4970    8.2190  -23.4340 N.4      14 LYL4        0.0000 
     16 NZ         -5.3040    4.5690  -24.1840 N.4       9 LYP4        0.0000 
     17 N          -5.8845    7.8040  -22.0740 N.am      2 SEC2        0.0000 
     18 N          -5.4970    8.2190  -23.4340 N.am     12 SEL2        0.0000 
     19 N          -6.2720    7.3890  -20.7140 N.am      7 SEP2        0.0000 
     20 N          -5.4705    9.1750  -22.2405 N.am      2 SEC2        0.0000 
     21 N          -5.4440   10.1310  -21.0470 N.am      7 SEP2        0.0000 
     22 N          -5.0740    6.8665  -23.4630 N.am      2 SEC2        0.0000 
     23 N          -4.6510    5.5140  -23.4920 N.am      7 SEP2        0.0000 
     24 N          -7.9425   10.9535  -24.2955 N.am      2 SEC2        0.0000 
     25 N          -6.7690   10.1210  -24.5620 N.am     12 SEL2        0.0000 
     26 N          -9.1160   11.7860  -24.0290 N.am      7 SEP2        0.0000 
     27 N          -7.7465   10.3045  -25.5725 N.am      2 SEC2        0.0000 
     28 N          -8.7240   10.4880  -26.5830 N.am      7 SEP2        0.0000 
     29 NZ         -6.4425    6.3510  -25.3390 N.4       4 LYC4        0.0000 
     30 NZ         -6.5980    7.7880  -25.6660 N.4      14 LYL4        0.0000 
     31 N          -7.9360    7.6130  -26.2895 N.am      2 SEC2        0.0000 
     32 N          -6.5980    7.7880  -25.6660 N.am     12 SEL2        0.0000 
     33 N          -9.2740    7.4380  -26.9130 N.am      7 SEP2        0.0000 
     34 N          -6.4425    6.3510  -25.3390 N.am      2 SEC2        0.0000 
     35 N          -6.2870    4.9140  -25.0120 N.am      7 SEP2        0.0000 
     36 CA         -3.1930    8.5880  -22.2955 C.3       5 GLC5        0.0000 
     37 CA         -2.5710    9.5500  -23.9380 C.3      15 GLL5        0.0000 
     38 CA         -3.8150    7.6260  -20.6530 C.3      10 GLP5        0.0000 
     39 CA         -1.4460    9.0090  -21.8905 C.3       5 GLC5        0.0000 
     40 CA         -1.6270   10.3800  -23.3360 C.3      15 GLL5        0.0000 
     41 CA         -1.2650    7.6380  -20.4450 C.3      10 GLP5        0.0000 
     42 CA         -5.0590   12.3085  -25.5815 C.3       5 GLC5        0.0000 
     43 CA         -3.1410   11.3520  -25.4430 C.3      15 GLL5        0.0000 
     44 CA         -4.8345   13.6260  -26.0765 C.3       5 GLC5        0.0000 
     45 CA         -2.6920   13.9870  -26.4330 C.3      15 GLL5        0.0000 
     46 CA         -3.9335   13.1690  -27.9860 C.3       5 GLC5        0.0000 
     47 CA         -1.1715   15.1710  -22.6415 C.3       5 GLC5        0.0000 
     48 CA         -1.0590   14.4050  -24.7450 C.3      15 GLL5        0.0000 
     49 CA         -1.2840   15.9370  -20.5380 C.3      10 GLP5        0.0000 
     50 CA         -1.3760   18.8660  -25.5570 C.3       5 GLC5        0.0000 
     51 CA         -1.5380   17.5360  -26.9370 C.3      15 GLL5        0.0000 
     52 CA         -1.2140   20.1960  -24.1770 C.3      10 GLP5        0.0000 
     53 OD1         0.9050   19.1730  -25.0245 O.co2     3 ASC3        0.0000 
     54 OD1         0.6170   18.1030  -25.8420 O.co2    13 ASL3        0.0000 
     55 OD1         1.1930   20.2430  -24.2070 O.co2     8 ASP3        0.0000 
     56 O           0.9050   19.1730  -25.0245 O.2       1 ALC1        0.0000 
     57 O           0.6170   18.1030  -25.8420 O.2      11 ALL1        0.0000 
     58 O           1.1930   20.2430  -24.2070 O.2       6 ALP1        0.0000 
     59 CA         -3.6020   11.0375  -23.0415 C.3       5 GLC5        0.0000 
     60 CA         -5.1050   12.1100  -22.4460 C.3      10 GLP5        0.0000 
     61 CA         -4.3071   11.2946  -23.9144 C.3       5 GLC5        0.0000 
     62 CA         -3.5237   15.1115  -25.1800 C.3       5 GLC5        0.0000 
     63 CA         -1.9790   13.5150  -25.3270 C.3      15 GLL5        0.0000 
     64 CA         -4.7120   16.4720  -24.4800 C.3      10 GLP5        0.0000 
     65 CA         -3.4989   12.4195  -23.6348 C.3       5 GLC5        0.0000 
     66 CA         -4.3875   15.1857  -27.5070 C.3       5 GLC5        0.0000 
     67 CA         -6.1580   15.7400  -28.3370 C.3      10 GLP5        0.0000 
     68 CA         -2.5445   15.7005  -24.0468 C.3       5 GLC5        0.0000 
     69 CA         -0.8970   15.6990  -25.2500 C.3      15 GLL5        0.0000 
     70 CA         -4.1110   16.3490  -23.0960 C.3      10 GLP5        0.0000 
     71 CA         -3.2625   16.5474  -25.6329 C.3       5 GLC5        0.0000 
     72 CA         -2.5420   15.2760  -26.9210 C.3      15 GLL5        0.0000 
@<TRIPOS>BOND
@<TRIPOS>SUBSTRUCTURE
     1 ALC1       56 GROUP        1 X    ALC  0     ROOT ALC X 1
     2 SEC2       17 GROUP        1 X    SEC  0     **** SEC X 2
     3 ASC3       53 GROUP        1 X    ASC  0     **** ASC X 3
     4 LYC4       14 GROUP        1 X    LYC  0     **** LYC X 4
     5 GLC5        1 GROUP        1 X    GLC  0     **** GLC X 6
     6 ALP1       58 GROUP        1 Y    ALP  0     ROOT ALP Y 8
     7 SEP2       19 GROUP        1 Y    SEP  0     **** SEP Y 9
     8 ASP3       55 GROUP        1 Y    ASP  0     **** ASP Y 10
     9 LYP4       16 GROUP        1 Y    LYP  0     **** LYP Y 11
    10 GLP5        3 GROUP        1 Y    GLP  0     **** GLP Y 13
    11 ALL1       57 GROUP        1 Z    ALL  0     ROOT ALL Z 15
    12 SEL2       18 GROUP        1 Z    SEL  0     **** SEL Z 16
    13 ASL3       54 GROUP        1 Z    ASL  0     **** ASL Z 17
    14 LYL4       15 GROUP        1 Z    LYL  0     **** LYL Z 18
    15 GLL5        2 GROUP        1 Z    GLL  0     **** GLL Z 20
@<TRIPOS>SET

