#    Name: 2y2f_YI1_1_ligand
#    Modification time : Tue Mar 25 07:26:36 2014

@<TRIPOS>MOLECULE
2y2f_YI1_1_ligand
   35    36     1     0     0
SMALL
NO_CHARGES


@<TRIPOS>ATOM
      1 FAG        -4.6920    9.8100  -26.8070 F         1 YI11469     0.0000 
      2 CAE        -4.3990    9.1700  -25.6680 C.3       1 YI11469     0.0000 
      3 FAF        -3.8490    7.9860  -25.8780 F         1 YI11469     0.0000 
      4 PAB        -5.9700    8.8060  -24.7300 P.3       1 YI11469     0.0000 
      5 OAC        -5.4970    8.2190  -23.4340 O.co2     1 YI11469     0.0000 
      6 OAA        -6.7690   10.1210  -24.5620 O.co2     1 YI11469     0.0000 
      7 OAD        -6.5980    7.7880  -25.6660 O.co2     1 YI11469     0.0000 
      8 CAH        -3.3560   10.0430  -24.9770 C.ar      1 YI11469     0.0000 
      9 CAJ        -2.5710    9.5500  -23.9380 C.ar      1 YI11469     0.0000 
     10 CAK        -1.6270   10.3800  -23.3360 C.ar      1 YI11469     0.0000 
     11 CAL        -1.4360   11.6910  -23.7880 C.ar      1 YI11469     0.0000 
     12 CAM        -2.1770   12.1950  -24.8520 C.ar      1 YI11469     0.0000 
     13 CAI        -3.1410   11.3520  -25.4430 C.ar      1 YI11469     0.0000 
     14 CAN        -1.9790   13.5150  -25.3270 C.ar      1 YI11469     0.0000 
     15 CAQ        -2.6920   13.9870  -26.4330 C.ar      1 YI11469     0.0000 
     16 CAR        -2.5420   15.2760  -26.9210 C.ar      1 YI11469     0.0000 
     17 CAS        -1.6340   16.1430  -26.3480 C.ar      1 YI11469     0.0000 
     18 CAP        -0.8970   15.6990  -25.2500 C.ar      1 YI11469     0.0000 
     19 CAO        -1.0590   14.4050  -24.7450 C.ar      1 YI11469     0.0000 
     20 CAT        -1.5380   17.5360  -26.9370 C.3       1 YI11469     0.0000 
     21 OAU        -0.1890   17.9560  -27.0350 O.3       1 YI11469     0.0000 
     22 NAV         0.6170   18.1030  -25.8420 N.4       1 YI11469     0.0000 
     23 H          -2.6861    8.5838  -23.6178 H         1 YI11469     0.0000 
     24 H          -1.0618   10.0271  -22.5490 H         1 YI11469     0.0000 
     25 H          -0.7343   12.2894  -23.3226 H         1 YI11469     0.0000 
     26 H          -3.7006   11.7059  -26.2358 H         1 YI11469     0.0000 
     27 H          -3.3625   13.3398  -26.9066 H         1 YI11469     0.0000 
     28 H          -3.1176   15.5882  -27.7225 H         1 YI11469     0.0000 
     29 H          -0.2182   16.3371  -24.8003 H         1 YI11469     0.0000 
     30 H          -0.4992   14.0970  -23.9371 H         1 YI11469     0.0000 
     31 H          -2.1310   18.2131  -26.2970 H         1 YI11469     0.0000 
     32 H          -2.0329   17.5184  -27.9242 H         1 YI11469     0.0000 
     33 H           0.3342   17.4690  -25.1222 H         1 YI11469     0.0000 
     34 H           1.5846   17.9275  -26.0236 H         1 YI11469     0.0000 
     35 H           0.5528   19.0257  -25.4618 H         1 YI11469     0.0000 
@<TRIPOS>BOND
     1    2    1 1    
     2    3    2 1    
     3    4    2 1    
     4    8    2 1    
     5    5    4 ar   
     6    6    4 ar   
     7    7    4 ar   
     8    9    8 ar   
     9   13    8 ar   
    10   10    9 ar   
    11   23    9 1    
    12   11   10 ar   
    13   24   10 1    
    14   12   11 ar   
    15   25   11 1    
    16   13   12 ar   
    17   14   12 1    
    18   26   13 1    
    19   15   14 ar   
    20   19   14 ar   
    21   16   15 ar   
    22   27   15 1    
    23   17   16 ar   
    24   28   16 1    
    25   18   17 ar   
    26   20   17 1    
    27   19   18 ar   
    28   29   18 1    
    29   30   19 1    
    30   21   20 1    
    31   31   20 1    
    32   32   20 1    
    33   22   21 1    
    34   33   22 1    
    35   34   22 1    
    36   35   22 1    
@<TRIPOS>SUBSTRUCTURE
     1 YI11469     1 GROUP   
@<TRIPOS>SET

