#    Name: 1u3s_797_2_INTS_M
#    Modification time : Tue Mar 25 06:08:04 2014

@<TRIPOS>MOLECULE
1u3s_797_2_INTS_M
   63     0     9     0     0
SMALL
NO_CHARGES


@<TRIPOS>ATOM
      1 CA         21.6810   29.4020   11.9440 C.3       3 GLC5        0.0000 
      2 CA         22.2320   28.7280   10.4100 C.3       9 GLL5        0.0000 
      3 CA         21.1300   30.0760   13.4780 C.3       6 GLP5        0.0000 
      4 CA         25.0400   31.4855    6.6535 C.3       3 GLC5        0.0000 
      5 CA         23.8670   29.9710    7.1820 C.3       9 GLL5        0.0000 
      6 CA         26.2130   33.0000    6.1250 C.3       6 GLP5        0.0000 
      7 CA         24.0255   31.8900    5.6980 C.3       3 GLC5        0.0000 
      8 CA         22.7050   30.4230    6.4890 C.3       9 GLL5        0.0000 
      9 CA         25.3460   33.3570    4.9070 C.3       6 GLP5        0.0000 
     10 CA         23.0720   32.2885    7.6470 C.3       3 GLC5        0.0000 
     11 CA         23.4390   34.1540    8.8050 C.3       6 GLP5        0.0000 
     12 CA         20.1215   30.1005   10.2625 C.3       3 GLC5        0.0000 
     13 CA         21.2300   29.7560    8.3920 C.3       9 GLL5        0.0000 
     14 CA         19.0130   30.4450   12.1330 C.3       6 GLP5        0.0000 
     15 CA         19.6675   28.7810    8.7610 C.3       3 GLC5        0.0000 
     16 CA         18.1050   27.8060    9.1300 C.3       6 GLP5        0.0000 
     17 N          19.2355   29.9385    5.7510 N.am      2 SEC2        0.0000 
     18 N          20.3070   30.7730    6.3750 N.am      8 SEL2        0.0000 
     19 N          18.1640   29.1040    5.1270 N.am      5 SEP2        0.0000 
     20 O          20.7690   31.4390    5.4540 O.2       1 ALC1        0.0000 
     21 O          20.3070   30.7730    6.3750 O.2       7 ALL1        0.0000 
     22 O          21.2310   32.1050    4.5330 O.2       4 ALP1        0.0000 
     23 CA         26.8820   29.9645   11.8035 C.3       3 GLC5        0.0000 
     24 CA         27.3450   27.9800   11.0780 C.3       9 GLL5        0.0000 
     25 CA         26.4190   31.9490   12.5290 C.3       6 GLP5        0.0000 
     26 CA         27.7630   28.2490   14.1680 C.3       3 GLC5        0.0000 
     27 CA         28.0070   27.3630   12.1830 C.3       9 GLL5        0.0000 
     28 CA         27.5190   29.1350   16.1530 C.3       6 GLP5        0.0000 
     29 CA         27.9010   26.8365    8.7825 C.3       3 GLC5        0.0000 
     30 CA         28.1850   28.5300   10.0160 C.3       9 GLL5        0.0000 
     31 CA         27.6170   25.1430    7.5490 C.3       6 GLP5        0.0000 
     32 CA         30.6385   26.6220   13.7050 C.3       3 GLC5        0.0000 
     33 CA         29.4220   27.2620   12.2980 C.3       9 GLL5        0.0000 
     34 CA         31.8550   25.9820   15.1120 C.3       6 GLP5        0.0000 
     35 CA         31.0130   28.7860   12.6635 C.3       3 GLC5        0.0000 
     36 CA         32.6040   30.3100   13.0290 C.3       6 GLP5        0.0000 
     37 O          31.9000   26.8675   12.5730 O.2       1 ALC1        0.0000 
     38 O          31.6030   27.7210   11.3700 O.2       7 ALL1        0.0000 
     39 O          32.1970   26.0140   13.7760 O.2       4 ALP1        0.0000 
     40 CA         24.3360   30.1565   11.6885 C.3       3 GLC5        0.0000 
     41 CA         24.7230   28.3790   10.5260 C.3       9 GLL5        0.0000 
     42 CA         24.6100   31.9850   12.5600 C.3       6 GLP5        0.0000 
     43 CA         23.7045   28.6285   12.7210 C.3       3 GLC5        0.0000 
     44 CA         23.3470   28.9290   14.6250 C.3       6 GLP5        0.0000 
     45 CA         22.1792   26.8248   11.7815 C.3       3 GLC5        0.0000 
     46 CA         21.5420   25.1470   12.8040 C.3       6 GLP5        0.0000 
     47 CA         21.2893   27.3856   10.2302 C.3       3 GLC5        0.0000 
     48 CA         23.4010   28.2770   11.1080 C.3       9 GLL5        0.0000 
     49 CA         19.7280   26.1270   10.0270 C.3       6 GLP5        0.0000 
     50 CA         22.4225   29.5670    5.0514 C.3       3 GLC5        0.0000 
     51 CA         22.4980   28.8770    3.1410 C.3       6 GLP5        0.0000 
     52 CA         21.4183   31.6231    8.7650 C.3       3 GLC5        0.0000 
     53 CA         21.4080   30.3170    7.0880 C.3       9 GLL5        0.0000 
     54 CA         21.2330   33.3250    9.6110 C.3       6 GLP5        0.0000 
     55 CA         28.4943   26.4757   14.0002 C.3       3 GLC5        0.0000 
     56 CA         28.2740   25.6390   15.7600 C.3       6 GLP5        0.0000 
     57 CA         31.4635   27.5203    9.8332 C.3       3 GLC5        0.0000 
     58 CA         30.2230   27.8060   11.2590 C.3       9 GLL5        0.0000 
     59 CA         33.0050   26.9180    8.9810 C.3       6 GLP5        0.0000 
     60 CA         31.0020   29.5557   10.4253 C.3       3 GLC5        0.0000 
     61 CA         32.0820   30.9890   10.1650 C.3       6 GLP5        0.0000 
     62 CA         29.4414   25.6276   11.2489 C.3       3 GLC5        0.0000 
     63 CA         29.4140   23.6960   10.7480 C.3       6 GLP5        0.0000 
@<TRIPOS>BOND
@<TRIPOS>SUBSTRUCTURE
     1 ALC1       20 GROUP        1 X    ALC  0     ROOT ALC X 1
     2 SEC2       17 GROUP        1 X    SEC  0     **** SEC X 2
     3 GLC5        1 GROUP        1 X    GLC  0     **** GLC X 6
     4 ALP1       22 GROUP        1 Y    ALP  0     ROOT ALP Y 8
     5 SEP2       19 GROUP        1 Y    SEP  0     **** SEP Y 9
     6 GLP5        3 GROUP        1 Y    GLP  0     **** GLP Y 13
     7 ALL1       21 GROUP        1 Z    ALL  0     ROOT ALL Z 15
     8 SEL2       18 GROUP        1 Z    SEL  0     **** SEL Z 16
     9 GLL5        2 GROUP        1 Z    GLL  0     **** GLL Z 20
@<TRIPOS>SET

