#    Name: 1u3s_797_2_ligand
#    Modification time : Tue Mar 25 06:08:04 2014

@<TRIPOS>MOLECULE
1u3s_797_2_ligand
   32    35     1     0     0
SMALL
NO_CHARGES


@<TRIPOS>ATOM
      1 C1         24.7230   28.3790   10.5260 C.ar      1 797202      0.0000 
      2 C2         24.8670   28.9490    9.2060 C.ar      1 797202      0.0000 
      3 C3         23.7200   29.4090    8.4830 C.ar      1 797202      0.0000 
      4 C4         22.3680   29.2950    9.1080 C.ar      1 797202      0.0000 
      5 C5         22.2320   28.7280   10.4100 C.ar      1 797202      0.0000 
      6 C6         23.4010   28.2770   11.1080 C.ar      1 797202      0.0000 
      7 C10        23.8670   29.9710    7.1820 C.ar      1 797202      0.0000 
      8 C11        22.7050   30.4230    6.4890 C.ar      1 797202      0.0000 
      9 C12        21.4080   30.3170    7.0880 C.ar      1 797202      0.0000 
     10 C13        21.2300   29.7560    8.3920 C.ar      1 797202      0.0000 
     11 O17        20.3070   30.7730    6.3750 O.3       1 797202      0.0000 
     12 C18        25.9270   27.9010   11.3140 C.2       1 797202      0.0000 
     13 C19        27.3450   27.9800   11.0780 C.ar      1 797202      0.0000 
     14 C20        28.0070   27.3630   12.1830 C.ar      1 797202      0.0000 
     15 O21        27.0540   26.9360   13.0240 O.3       1 797202      0.0000 
     16 N22        25.8850   27.2440   12.5270 N.2       1 797202      0.0000 
     17 C23        28.1850   28.5300   10.0160 C.ar      1 797202      0.0000 
     18 C24        29.6210   28.4390   10.1120 C.ar      1 797202      0.0000 
     19 C25        30.2230   27.8060   11.2590 C.ar      1 797202      0.0000 
     20 C26        29.4220   27.2620   12.2980 C.ar      1 797202      0.0000 
     21 O30        31.6030   27.7210   11.3700 O.3       1 797202      0.0000 
     22 H          25.7925   29.0215    8.7924 H         1 797202      0.0000 
     23 H          21.3210   28.6433   10.8400 H         1 797202      0.0000 
     24 H          23.3042   27.8711   12.0434 H         1 797202      0.0000 
     25 H          24.7790   30.0484    6.7566 H         1 797202      0.0000 
     26 H          22.7958   30.8267    5.5561 H         1 797202      0.0000 
     27 H          20.3059   29.6903    8.7949 H         1 797202      0.0000 
     28 H          27.7523   28.9714    9.2197 H         1 797202      0.0000 
     29 H          30.2025   28.8172    9.3787 H         1 797202      0.0000 
     30 H          29.8428   26.8163   13.0956 H         1 797202      0.0000 
     31 H          20.5896   31.6555    5.9991 H         1 797202      0.0000 
     32 H          31.7680   27.3950   12.3009 H         1 797202      0.0000 
@<TRIPOS>BOND
     1    2    1 ar   
     2    6    1 ar   
     3   12    1 1    
     4    3    2 ar   
     5   22    2 1    
     6    4    3 ar   
     7    7    3 ar   
     8    5    4 ar   
     9   10    4 ar   
    10    6    5 ar   
    11   23    5 1    
    12   24    6 1    
    13    8    7 ar   
    14   25    7 1    
    15    9    8 ar   
    16   26    8 1    
    17   10    9 ar   
    18   11    9 1    
    19   27   10 1    
    20   31   11 1    
    21   13   12 1    
    22   16   12 2    
    23   14   13 ar   
    24   17   13 ar   
    25   15   14 1    
    26   20   14 ar   
    27   16   15 1    
    28   18   17 ar   
    29   28   17 1    
    30   19   18 ar   
    31   29   18 1    
    32   20   19 ar   
    33   21   19 1    
    34   30   20 1    
    35   32   21 1    
@<TRIPOS>SUBSTRUCTURE
     1 797202      1 GROUP   
@<TRIPOS>SET

