#    Name: 3r8a_HIG_2_INTS_M
#    Modification time : Tue Mar 25 11:14:52 2014

@<TRIPOS>MOLECULE
3r8a_HIG_2_INTS_M
   66     0     6     0     0
SMALL
NO_CHARGES


@<TRIPOS>ATOM
      1 CA         38.3940   -8.5005   39.3865 C.3       2 GLC5        0.0000 
      2 CA         36.3070   -9.1230   39.6000 C.3       6 GLL5        0.0000 
      3 CA         40.4810   -7.8780   39.1730 C.3       4 GLP5        0.0000 
      4 CA         36.9265   -5.1505   44.8925 C.3       2 GLC5        0.0000 
      5 CA         36.7260   -7.1410   44.0020 C.3       6 GLL5        0.0000 
      6 CA         37.1270   -3.1600   45.7830 C.3       4 GLP5        0.0000 
      7 CA         37.6870  -12.8965   40.8120 C.3       2 GLC5        0.0000 
      8 CA         37.0580  -12.5380   42.5130 C.3       6 GLL5        0.0000 
      9 CA         38.3160  -13.2550   39.1110 C.3       4 GLP5        0.0000 
     10 CA         39.9595   -6.2990   44.6320 C.3       2 GLC5        0.0000 
     11 CA         39.0730   -8.1610   44.7060 C.3       6 GLL5        0.0000 
     12 CA         40.8460   -4.4370   44.5580 C.3       4 GLP5        0.0000 
     13 CA         41.9110   -9.1270   42.0720 C.3       2 GLC5        0.0000 
     14 CA         40.1830   -9.4750   42.9650 C.3       6 GLL5        0.0000 
     15 CA         43.6390   -8.7790   41.1790 C.3       4 GLP5        0.0000 
     16 CA         37.5420   -9.6410   35.4495 C.3       2 GLC5        0.0000 
     17 CA         35.8980   -9.3320   36.8540 C.3       6 GLL5        0.0000 
     18 CA         39.1860   -9.9500   34.0450 C.3       4 GLP5        0.0000 
     19 CA         37.2095  -11.6240   35.7710 C.3       2 GLC5        0.0000 
     20 CA         35.4020  -11.8410   37.0780 C.3       6 GLL5        0.0000 
     21 CA         39.0170  -11.4070   34.4640 C.3       4 GLP5        0.0000 
     22 CA         35.8110  -13.2280   35.5580 C.3       2 GLC5        0.0000 
     23 CA         36.2200  -14.6150   34.0380 C.3       4 GLP5        0.0000 
     24 CA         34.8785   -6.4040   35.5135 C.3       2 GLC5        0.0000 
     25 CA         36.3790   -6.8240   36.5860 C.3       6 GLL5        0.0000 
     26 CA         33.3780   -5.9840   34.4410 C.3       4 GLP5        0.0000 
     27 N          39.1745  -13.7285   44.9265 N.am      1 SEC2        0.0000 
     28 N          39.9490  -13.2330   43.7750 N.am      5 SEL2        0.0000 
     29 N          38.4000  -14.2240   46.0780 N.am      3 SEP2        0.0000 
     30 CA         34.8345   -7.3923   44.5162 C.3       2 GLC5        0.0000 
     31 CA         33.3830   -7.3920   45.6060 C.3       4 GLP5        0.0000 
     32 CA         36.5820  -12.2695   44.4645 C.3       2 GLC5        0.0000 
     33 CA         36.5260  -12.6290   46.3850 C.3       4 GLP5        0.0000 
     34 CA         40.0648   -8.6230   40.8473 C.3       2 GLC5        0.0000 
     35 CA         39.1140   -9.2610   42.0780 C.3       6 GLL5        0.0000 
     36 CA         35.3270   -6.2022   42.4315 C.3       2 GLC5        0.0000 
     37 CA         36.8180   -8.1000   41.7570 C.3       6 GLL5        0.0000 
     38 CA         34.1250   -4.8980   41.7100 C.3       4 GLP5        0.0000 
     39 CA         34.0520   -9.4929   38.7294 C.3       2 GLC5        0.0000 
     40 CA         35.7540  -10.4940   37.6630 C.3       6 GLL5        0.0000 
     41 CA         32.1600   -8.8650   38.9640 C.3       4 GLP5        0.0000 
     42 CA         38.0857   -6.9675   38.0418 C.3       2 GLC5        0.0000 
     43 CA         36.2360   -8.0760   37.4290 C.3       6 GLL5        0.0000 
     44 CA         39.8640   -6.4850   39.0760 C.3       4 GLP5        0.0000 
     45 CA         35.1767   -8.5485   35.5508 C.3       2 GLC5        0.0000 
     46 CA         34.0460   -9.6470   34.0940 C.3       4 GLP5        0.0000 
     47 CA         38.1670   -9.3055   45.4715 C.3       2 GLC5        0.0000 
     48 CA         36.7060  -10.0570   46.4450 C.3       4 GLP5        0.0000 
     49 CA         39.5575   -7.9395   46.4340 C.3       2 GLC5        0.0000 
     50 CA         39.4870   -7.3250   48.3700 C.3       4 GLP5        0.0000 
     51 CA         36.9729  -12.1960   38.4145 C.3       2 GLC5        0.0000 
     52 CA         35.9610  -10.3720   39.0530 C.3       6 GLL5        0.0000 
     53 CA         34.8300  -10.2620   35.6311 C.3       2 GLC5        0.0000 
     54 CA         34.3985   -7.6390   37.6474 C.3       2 GLC5        0.0000 
     55 CA         32.5740   -7.5140   38.4310 C.3       4 GLP5        0.0000 
     56 CA         42.5727   -6.3530   46.3600 C.3       2 GLC5        0.0000 
     57 CA         41.8890   -8.1620   45.9910 C.3       6 GLL5        0.0000 
     58 CA         42.7410   -4.4210   46.2520 C.3       4 GLP5        0.0000 
     59 CA         40.7555  -10.9053   47.1703 C.3       2 GLC5        0.0000 
     60 CA         41.2960   -9.2270   45.2730 C.3       6 GLL5        0.0000 
     61 CA         39.3450  -11.4670   48.4020 C.3       4 GLP5        0.0000 
     62 CA         40.8716   -7.9381   47.3293 C.3       2 GLC5        0.0000 
     63 CA         36.9289   -8.9286   44.8693 C.3       2 GLC5        0.0000 
     64 CA         38.0330   -8.4760   42.5230 C.3       6 GLL5        0.0000 
     65 CA         38.0694   -6.8126   41.9079 C.3       2 GLC5        0.0000 
     66 CA         39.1390   -5.8720   40.6180 C.3       4 GLP5        0.0000 
@<TRIPOS>BOND
@<TRIPOS>SUBSTRUCTURE
     1 SEC2       27 GROUP        1 X    SEC  0     ROOT SEC X 2
     2 GLC5        1 GROUP        1 X    GLC  0     **** GLC X 6
     3 SEP2       29 GROUP        1 Y    SEP  0     ROOT SEP Y 9
     4 GLP5        3 GROUP        1 Y    GLP  0     **** GLP Y 13
     5 SEL2       28 GROUP        1 Z    SEL  0     ROOT SEL Z 16
     6 GLL5        2 GROUP        1 Z    GLL  0     **** GLL Z 20
@<TRIPOS>SET

