#    Name: 3r8a_HIG_2_ligand
#    Modification time : Tue Mar 25 11:14:52 2014

@<TRIPOS>MOLECULE
3r8a_HIG_2_ligand
   58    63     1     0     0
SMALL
NO_CHARGES


@<TRIPOS>ATOM
      1 N1         36.4380   -9.2760   40.9050 N.pl3     1 HIG1        0.0000 
      2 C2         36.8180   -8.1000   41.7570 C.3       1 HIG1        0.0000 
      3 C3         36.3070   -9.1230   39.6000 C.ar      1 HIG1        0.0000 
      4 C4         36.1900  -10.5870   41.2130 C.2       1 HIG1        0.0000 
      5 C5         38.0330   -8.4760   42.5230 C.ar      1 HIG1        0.0000 
      6 C6         35.8460   -7.6440   42.8510 C.3       1 HIG1        0.0000 
      7 C7         35.9610  -10.3720   39.0530 C.ar      1 HIG1        0.0000 
      8 N8         36.4500   -8.0030   38.7960 N.ar      1 HIG1        0.0000 
      9 N9         35.8960  -11.2400   40.0680 N.2       1 HIG1        0.0000 
     10 C10        36.2180  -11.2820   42.5750 C.3       1 HIG1        0.0000 
     11 C11        38.0020   -7.9400   43.7980 C.ar      1 HIG1        0.0000 
     12 C12        39.1140   -9.2610   42.0780 C.ar      1 HIG1        0.0000 
     13 C13        36.7260   -7.1410   44.0020 C.3       1 HIG1        0.0000 
     14 C14        35.7540  -10.4940   37.6630 C.ar      1 HIG1        0.0000 
     15 C15        36.2360   -8.0760   37.4290 C.ar      1 HIG1        0.0000 
     16 C16        37.0580  -12.5380   42.5130 C.3       1 HIG1        0.0000 
     17 C17        39.0730   -8.1610   44.7060 C.ar      1 HIG1        0.0000 
     18 C18        40.1830   -9.4750   42.9650 C.ar      1 HIG1        0.0000 
     19 C19        35.8980   -9.3320   36.8540 C.ar      1 HIG1        0.0000 
     20 C20        35.4020  -11.8410   37.0780 C.3       1 HIG1        0.0000 
     21 C21        36.3790   -6.8240   36.5860 C.3       1 HIG1        0.0000 
     22 C22        40.1830   -8.9470   44.2900 C.ar      1 HIG1        0.0000 
     23 C23        41.2960   -9.2270   45.2730 C.ar      1 HIG1        0.0000 
     24 C24        41.7660  -10.5570   45.5350 C.ar      1 HIG1        0.0000 
     25 C25        41.8890   -8.1620   45.9910 C.ar      1 HIG1        0.0000 
     26 C26        41.2270  -11.7280   44.7840 C.2       1 HIG1        0.0000 
     27 C27        42.8010  -10.7950   46.4730 C.ar      1 HIG1        0.0000 
     28 C28        42.9200   -8.4080   46.9450 C.ar      1 HIG1        0.0000 
     29 N29        42.0220  -12.5620   44.0710 N.2       1 HIG1        0.0000 
     30 N30        39.9340  -12.1160   44.6200 N.pl3     1 HIG1        0.0000 
     31 C31        43.3800   -9.7260   47.1790 C.ar      1 HIG1        0.0000 
     32 N32        41.1910  -13.5080   43.4580 N.2       1 HIG1        0.0000 
     33 N33        39.9490  -13.2330   43.7750 N.2       1 HIG1        0.0000 
     34 H          37.0753   -7.2490   41.1480 H         1 HIG1        0.0000 
     35 H          35.2633   -8.4734   43.1817 H         1 HIG1        0.0000 
     36 H          35.2434   -6.8442   42.4850 H         1 HIG1        0.0000 
     37 H          35.1992  -11.5359   42.8647 H         1 HIG1        0.0000 
     38 H          36.6343  -10.5983   43.3136 H         1 HIG1        0.0000 
     39 H          39.1198   -9.6572   41.1504 H         1 HIG1        0.0000 
     40 H          36.2816   -7.3936   44.9237 H         1 HIG1        0.0000 
     41 H          36.9170   -6.1119   43.8779 H         1 HIG1        0.0000 
     42 H          39.0465   -7.7644   45.6365 H         1 HIG1        0.0000 
     43 H          40.9984  -10.0310   42.6560 H         1 HIG1        0.0000 
     44 H          35.7558   -9.4019   35.8414 H         1 HIG1        0.0000 
     45 H          41.5772   -7.2001   45.8271 H         1 HIG1        0.0000 
     46 H          43.1256  -11.7527   46.6341 H         1 HIG1        0.0000 
     47 H          43.3260   -7.6253   47.4602 H         1 HIG1        0.0000 
     48 H          39.1600  -11.7250   44.9925 H         1 HIG1        0.0000 
     49 H          44.1234   -9.8938   47.8531 H         1 HIG1        0.0000 
     50 H          38.0039  -12.3399   42.2562 H         1 HIG1        0.0000 
     51 H          37.0862  -13.0098   43.3942 H         1 HIG1        0.0000 
     52 H          36.7028  -13.1897   41.8428 H         1 HIG1        0.0000 
     53 H          36.1124  -12.5213   37.2582 H         1 HIG1        0.0000 
     54 H          34.5495  -12.1997   37.4582 H         1 HIG1        0.0000 
     55 H          35.2844  -11.7958   36.0860 H         1 HIG1        0.0000 
     56 H          37.2996   -6.4382   36.6472 H         1 HIG1        0.0000 
     57 H          36.2008   -7.0051   35.6188 H         1 HIG1        0.0000 
     58 H          35.7417   -6.1086   36.8725 H         1 HIG1        0.0000 
@<TRIPOS>BOND
     1    2    1 1    
     2    3    1 1    
     3    4    1 1    
     4    5    2 1    
     5    6    2 1    
     6   34    2 1    
     7    7    3 ar   
     8    8    3 ar   
     9    9    4 2    
    10   10    4 1    
    11   11    5 ar   
    12   12    5 ar   
    13   13    6 1    
    14   35    6 1    
    15   36    6 1    
    16    9    7 1    
    17   14    7 ar   
    18   15    8 ar   
    19   16   10 1    
    20   37   10 1    
    21   38   10 1    
    22   13   11 1    
    23   17   11 ar   
    24   18   12 ar   
    25   39   12 1    
    26   40   13 1    
    27   41   13 1    
    28   19   14 ar   
    29   20   14 1    
    30   19   15 ar   
    31   21   15 1    
    32   50   16 1    
    33   51   16 1    
    34   52   16 1    
    35   22   17 ar   
    36   42   17 1    
    37   22   18 ar   
    38   43   18 1    
    39   44   19 1    
    40   53   20 1    
    41   54   20 1    
    42   55   20 1    
    43   56   21 1    
    44   57   21 1    
    45   58   21 1    
    46   23   22 1    
    47   24   23 ar   
    48   25   23 ar   
    49   26   24 1    
    50   27   24 ar   
    51   28   25 ar   
    52   45   25 1    
    53   29   26 2    
    54   30   26 1    
    55   31   27 ar   
    56   46   27 1    
    57   31   28 ar   
    58   47   28 1    
    59   32   29 1    
    60   33   30 1    
    61   48   30 1    
    62   49   31 1    
    63   33   32 2    
@<TRIPOS>SUBSTRUCTURE
     1 HIG1        1 GROUP   
@<TRIPOS>SET

