#    Name: 2rfn_AM7_1_INTS_M
#    Modification time : Mon Mar 24 23:50:41 2014

@<TRIPOS>MOLECULE
2rfn_AM7_1_INTS_M
   86     0     6     0     0
SMALL
NO_CHARGES


@<TRIPOS>ATOM
      1 CA         61.1580   11.9250  112.9280 C.3       2 GLC5        0.0000 
      2 CA         62.1090   13.3590  114.0730 C.3       6 GLL5        0.0000 
      3 CA         60.2070   10.4910  111.7830 C.3       4 GLP5        0.0000 
      4 CA         60.6375   15.9935  118.0075 C.3       2 GLC5        0.0000 
      5 CA         61.4940   15.0060  116.2800 C.3       6 GLL5        0.0000 
      6 CA         59.7810   16.9810  119.7350 C.3       4 GLP5        0.0000 
      7 CA         59.0330   12.4855  125.2985 C.3       2 GLC5        0.0000 
      8 CA         58.8590   10.5960  126.2170 C.3       6 GLL5        0.0000 
      9 CA         59.2070   14.3750  124.3800 C.3       4 GLP5        0.0000 
     10 CA         60.0640   12.7000  124.5635 C.3       2 GLC5        0.0000 
     11 CA         60.9210   11.0250  124.7470 C.3       6 GLL5        0.0000 
     12 CA         59.0605    9.2695  121.2530 C.3       2 GLC5        0.0000 
     13 CA         57.8200   10.4470  120.4250 C.3       6 GLL5        0.0000 
     14 CA         60.3010    8.0920  122.0810 C.3       4 GLP5        0.0000 
     15 N          64.5655   13.0975  122.1245 N.am      1 SEC2        0.0000 
     16 N          63.7260   12.7300  120.9110 N.am      5 SEL2        0.0000 
     17 N          65.4050   13.4650  123.3380 N.am      3 SEP2        0.0000 
     18 CA         65.7525   12.6940  121.1245 C.3       2 GLC5        0.0000 
     19 CA         64.2120   13.1850  119.7650 C.3       6 GLL5        0.0000 
     20 CA         67.2930   12.2030  122.4840 C.3       4 GLP5        0.0000 
     21 CA         59.9150   12.5420  115.0530 C.3       2 GLC5        0.0000 
     22 CA         61.8190   11.4840  115.4580 C.3       6 GLL5        0.0000 
     23 CA         58.0110   13.6000  114.6480 C.3       4 GLP5        0.0000 
     24 CA         61.7630   10.0630  116.3635 C.3       2 GLC5        0.0000 
     25 CA         61.7070    8.6420  117.2690 C.3       4 GLP5        0.0000 
     26 CA         61.6905   17.5685  115.3480 C.3       2 GLC5        0.0000 
     27 CA         61.7980   15.5540  115.0240 C.3       6 GLL5        0.0000 
     28 CA         61.5830   19.5830  115.6720 C.3       4 GLP5        0.0000 
     29 CA         61.8760   12.7780  108.4940 C.3       2 GLC5        0.0000 
     30 CA         61.6680   14.8790  108.9570 C.3       6 GLL5        0.0000 
     31 CA         62.0840   10.6770  108.0310 C.3       4 GLP5        0.0000 
     32 CA         64.8790   17.5855  112.7630 C.3       2 GLC5        0.0000 
     33 CA         63.1810   16.4820  112.6130 C.3       6 GLL5        0.0000 
     34 CA         66.5770   18.6890  112.9130 C.3       4 GLP5        0.0000 
     35 CA         63.7495   17.0530  114.6040 C.3       2 GLC5        0.0000 
     36 CA         64.3180   17.6240  116.5950 C.3       4 GLP5        0.0000 
     37 CA         64.9110   18.1615  110.0745 C.3       2 GLC5        0.0000 
     38 CA         63.3790   17.3660  109.0060 C.3       6 GLL5        0.0000 
     39 CA         66.4430   18.9570  111.1430 C.3       4 GLP5        0.0000 
     40 CA         66.3868   14.7525  109.7343 C.3       2 GLC5        0.0000 
     41 CA         66.8520   15.9530  108.2540 C.3       6 GLL5        0.0000 
     42 CA         66.4670   13.2930  110.8630 C.3       4 GLP5        0.0000 
     43 CA         66.2284   17.6238  109.7885 C.3       2 GLC5        0.0000 
     44 CA         68.2132   14.3725  107.5653 C.3       2 GLC5        0.0000 
     45 CA         69.6150   12.8970  107.5650 C.3       4 GLP5        0.0000 
     46 CA         68.2029   16.5187  108.5771 C.3       2 GLC5        0.0000 
     47 CA         66.7710   15.7430  106.8770 C.3       6 GLL5        0.0000 
     48 CA         69.8670   17.0600  109.4130 C.3       4 GLP5        0.0000 
     49 CA         65.3673   17.5700  105.1548 C.3       2 GLC5        0.0000 
     50 CA         65.5900   16.0540  106.2030 C.3       6 GLL5        0.0000 
     51 CA         65.6860   18.8230  103.7610 C.3       4 GLP5        0.0000 
     52 CA         63.2925   13.6375  115.5890 C.3       2 GLC5        0.0000 
     53 CA         65.0810   12.9640  114.8260 C.3       4 GLP5        0.0000 
     54 CA         62.9820   16.4520  116.1235 C.3       2 GLC5        0.0000 
     55 CA         60.1625    9.9520  121.3740 C.3       2 GLC5        0.0000 
     56 CA         60.2570   12.0540  120.0540 C.3       6 GLL5        0.0000 
     57 CA         60.8162    9.8852  122.1893 C.3       2 GLC5        0.0000 
     58 CA         60.6680   11.4880  122.3660 C.3       6 GLL5        0.0000 
     59 CA         62.9750   13.6610  122.4072 C.3       2 GLC5        0.0000 
     60 CA         62.4510   12.3510  121.0100 C.3       6 GLL5        0.0000 
     61 CA         63.7270   15.2120  123.1950 C.3       4 GLP5        0.0000 
     62 CA         65.3315   13.5087  117.7857 C.3       2 GLC5        0.0000 
     63 CA         66.8570   13.7760  116.3750 C.3       4 GLP5        0.0000 
     64 CA         64.5055   14.7503  120.1603 C.3       2 GLC5        0.0000 
     65 CA         63.4000   13.2980  118.6280 C.3       6 GLL5        0.0000 
     66 CA         65.2050   16.2590  121.1240 C.3       4 GLP5        0.0000 
     67 CA         61.4400   14.2808  119.6155 C.3       2 GLC5        0.0000 
     68 CA         60.1490   15.4510  120.5730 C.3       4 GLP5        0.0000 
     69 CA         60.4408    9.3295  123.6725 C.3       2 GLC5        0.0000 
     70 CA         62.3993    9.8895  125.2320 C.3       2 GLC5        0.0000 
     71 CA         64.2180    9.2120  125.2000 C.3       4 GLP5        0.0000 
     72 CA         59.8841   12.9996  123.0844 C.3       2 GLC5        0.0000 
     73 CA         62.0955   10.7665  113.9670 C.3       2 GLC5        0.0000 
     74 CA         62.3790    9.3830  112.5470 C.3       4 GLP5        0.0000 
     75 CA         63.4845   12.6249  114.9511 C.3       2 GLC5        0.0000 
     76 CA         63.5178   14.0570  114.6488 C.3       2 GLC5        0.0000 
     77 CA         62.1110   14.7460  113.9190 C.3       6 GLL5        0.0000 
     78 CA         64.4290   15.5605  113.5427 C.3       2 GLC5        0.0000 
     79 CA         62.3950   15.3320  112.6720 C.3       6 GLL5        0.0000 
     80 CA         66.0700   15.2140  114.4430 C.3       4 GLP5        0.0000 
     81 CA         67.8314   16.9020  106.3406 C.3       2 GLC5        0.0000 
     82 CA         69.4620   17.8530  105.7970 C.3       4 GLP5        0.0000 
     83 CA         60.6367   13.7060  120.8578 C.3       2 GLC5        0.0000 
     84 CA         63.9344   11.4864  119.1087 C.3       2 GLC5        0.0000 
     85 CA         61.5920   12.4350  119.9120 C.3       6 GLL5        0.0000 
     86 CA         64.9450   10.0230  118.8320 C.3       4 GLP5        0.0000 
@<TRIPOS>BOND
@<TRIPOS>SUBSTRUCTURE
     1 SEC2       15 GROUP        1 X    SEC  0     ROOT SEC X 2
     2 GLC5        1 GROUP        1 X    GLC  0     **** GLC X 6
     3 SEP2       17 GROUP        1 Y    SEP  0     ROOT SEP Y 9
     4 GLP5        3 GROUP        1 Y    GLP  0     **** GLP Y 13
     5 SEL2       16 GROUP        1 Z    SEL  0     ROOT SEL Z 16
     6 GLL5        2 GROUP        1 Z    GLL  0     **** GLL Z 20
@<TRIPOS>SET

