#    Name: 2rfn_AM7_1_ligand
#    Modification time : Mon Mar 24 23:50:41 2014

@<TRIPOS>MOLECULE
2rfn_AM7_1_ligand
   81    86     1     0     0
SMALL
NO_CHARGES


@<TRIPOS>ATOM
      1 N1         58.2790    9.6300  127.1800 N.4       1 AM71        0.0000 
      2 N3         63.4650   17.0740  111.4590 N.2       1 AM71        0.0000 
      3 C4         58.1170   10.3360  128.4840 C.3       1 AM71        0.0000 
      4 C5         64.5900   16.7850  108.2710 C.ar      1 AM71        0.0000 
      5 C6         65.7610   16.4710  108.9570 C.ar      1 AM71        0.0000 
      6 C7         66.8520   15.9530  108.2540 C.ar      1 AM71        0.0000 
      7 C8         66.7710   15.7430  106.8770 C.ar      1 AM71        0.0000 
      8 C10        64.5070   16.5800  106.8940 C.ar      1 AM71        0.0000 
      9 C13        63.0110   16.6030  110.2800 C.2       1 AM71        0.0000 
     10 C15        61.5140   13.6160  116.4240 C.ar      1 AM71        0.0000 
     11 C17        62.1090   13.3590  114.0730 C.ar      1 AM71        0.0000 
     12 C20        61.4940   15.0060  116.2800 C.ar      1 AM71        0.0000 
     13 C21        61.5920   12.4350  119.9120 C.ar      1 AM71        0.0000 
     14 C22        60.2570   12.0540  120.0540 C.ar      1 AM71        0.0000 
     15 C24        60.6680   11.4880  122.3660 C.ar      1 AM71        0.0000 
     16 C26        62.4510   12.3510  121.0100 C.ar      1 AM71        0.0000 
     17 C28        63.4000   13.2980  118.6280 C.ar      1 AM71        0.0000 
     18 C1         57.0650    9.0140  126.5510 C.3       1 AM71        0.0000 
     19 C2         55.8300    8.8870  127.4800 C.3       1 AM71        0.0000 
     20 O1         55.7990    9.8720  128.5420 O.3       1 AM71        0.0000 
     21 C3         56.9890    9.7360  129.3300 C.3       1 AM71        0.0000 
     22 C33        58.8590   10.5960  126.2170 C.3       1 AM71        0.0000 
     23 C32        60.2400   10.1090  125.7810 C.3       1 AM71        0.0000 
     24 C31        60.9210   11.0250  124.7470 C.3       1 AM71        0.0000 
     25 O3         60.1620   10.9950  123.5270 O.3       1 AM71        0.0000 
     26 C25        61.9950   11.8690  122.2290 C.ar      1 AM71        0.0000 
     27 C23        59.7910   11.5700  121.2800 C.ar      1 AM71        0.0000 
     28 O2         58.4770   11.1870  121.4690 O.3       1 AM71        0.0000 
     29 C35        57.8200   10.4470  120.4250 C.3       1 AM71        0.0000 
     30 N4         63.7260   12.7300  120.9110 N.ar      1 AM71        0.0000 
     31 C27        64.2120   13.1850  119.7650 C.ar      1 AM71        0.0000 
     32 C29        62.0620   12.9230  118.6880 C.ar      1 AM71        0.0000 
     33 O4         61.2080   13.0110  117.6100 O.3       1 AM71        0.0000 
     34 C16        61.8050   12.8160  115.3160 C.ar      1 AM71        0.0000 
     35 F1         61.8190   11.4840  115.4580 F         1 AM71        0.0000 
     36 C19        61.7980   15.5540  115.0240 C.ar      1 AM71        0.0000 
     37 C18        62.1110   14.7460  113.9190 C.ar      1 AM71        0.0000 
     38 C11        62.3950   15.3320  112.6720 C.2       1 AM71        0.0000 
     39 C12        61.8880   14.7980  111.4680 C.2       1 AM71        0.0000 
     40 O5         61.1870   13.7770  111.4530 O.2       1 AM71        0.0000 
     41 N2         62.1940   15.4410  110.2450 N.am      1 AM71        0.0000 
     42 C34        61.6680   14.8790  108.9570 C.3       1 AM71        0.0000 
     43 C14        63.1810   16.4820  112.6130 C.2       1 AM71        0.0000 
     44 C30        63.3790   17.3660  109.0060 C.3       1 AM71        0.0000 
     45 C9         65.5900   16.0540  106.2030 C.ar      1 AM71        0.0000 
     46 H          59.0427    8.8335  127.3094 H         1 AM71        0.0000 
     47 H          57.8952   11.3976  128.3123 H         1 AM71        0.0000 
     48 H          59.0501   10.2811  129.0603 H         1 AM71        0.0000 
     49 H          65.8238   16.6177  109.9676 H         1 AM71        0.0000 
     50 H          67.7212   15.7250  108.7565 H         1 AM71        0.0000 
     51 H          67.5720   15.3637  106.3655 H         1 AM71        0.0000 
     52 H          63.6416   16.8196  106.3928 H         1 AM71        0.0000 
     53 H          62.3285   12.7525  113.2807 H         1 AM71        0.0000 
     54 H          61.2652   15.6079  117.0640 H         1 AM71        0.0000 
     55 H          59.6140   12.1290  119.2561 H         1 AM71        0.0000 
     56 H          63.7977   13.6583  117.7528 H         1 AM71        0.0000 
     57 H          57.3110    8.0002  126.1745 H         1 AM71        0.0000 
     58 H          56.7614    9.6054  125.6633 H         1 AM71        0.0000 
     59 H          55.8338    7.8576  127.8892 H         1 AM71        0.0000 
     60 H          54.9299    8.9619  126.8386 H         1 AM71        0.0000 
     61 H          56.9308   10.2913  130.2529 H         1 AM71        0.0000 
     62 H          57.2305    8.7032  129.5262 H         1 AM71        0.0000 
     63 H          58.9646   11.5760  126.6770 H         1 AM71        0.0000 
     64 H          58.2263   10.6828  125.3364 H         1 AM71        0.0000 
     65 H          60.1480    9.1007  125.3515 H         1 AM71        0.0000 
     66 H          60.8905   10.0308  126.6644 H         1 AM71        0.0000 
     67 H          61.9383   10.6608  124.6010 H         1 AM71        0.0000 
     68 H          60.9664   12.0280  125.1720 H         1 AM71        0.0000 
     69 H          62.6381   11.7947  123.0270 H         1 AM71        0.0000 
     70 H          65.2128   13.4730  119.6733 H         1 AM71        0.0000 
     71 H          61.7913   16.5845  114.9086 H         1 AM71        0.0000 
     72 H          63.5439   16.8673  113.5200 H         1 AM71        0.0000 
     73 H          62.5142   17.3641  108.3257 H         1 AM71        0.0000 
     74 H          63.5884   18.4146  109.2652 H         1 AM71        0.0000 
     75 H          65.5242   15.8915  105.1880 H         1 AM71        0.0000 
     76 H          57.7901   10.9610  119.5677 H         1 AM71        0.0000 
     77 H          58.2855    9.5831  120.2327 H         1 AM71        0.0000 
     78 H          56.8755   10.2237  120.6659 H         1 AM71        0.0000 
     79 H          62.4073   14.6189  108.3359 H         1 AM71        0.0000 
     80 H          61.1112   14.0622  109.1081 H         1 AM71        0.0000 
     81 H          61.0949   15.5385  108.4706 H         1 AM71        0.0000 
@<TRIPOS>BOND
     1    3    1 1    
     2   18    1 1    
     3   22    1 1    
     4   46    1 1    
     5    9    2 2    
     6   43    2 1    
     7   21    3 1    
     8   47    3 1    
     9   48    3 1    
    10    5    4 ar   
    11    8    4 ar   
    12   44    4 1    
    13    6    5 ar   
    14   49    5 1    
    15    7    6 ar   
    16   50    6 1    
    17   45    7 ar   
    18   51    7 1    
    19   45    8 ar   
    20   52    8 1    
    21   41    9 1    
    22   44    9 1    
    23   12   10 ar   
    24   33   10 1    
    25   34   10 ar   
    26   34   11 ar   
    27   37   11 ar   
    28   53   11 1    
    29   36   12 ar   
    30   54   12 1    
    31   14   13 ar   
    32   16   13 ar   
    33   32   13 ar   
    34   27   14 ar   
    35   55   14 1    
    36   25   15 1    
    37   26   15 ar   
    38   27   15 ar   
    39   26   16 ar   
    40   30   16 ar   
    41   31   17 ar   
    42   32   17 ar   
    43   56   17 1    
    44   19   18 1    
    45   57   18 1    
    46   58   18 1    
    47   20   19 1    
    48   59   19 1    
    49   60   19 1    
    50   21   20 1    
    51   61   21 1    
    52   62   21 1    
    53   23   22 1    
    54   63   22 1    
    55   64   22 1    
    56   24   23 1    
    57   65   23 1    
    58   66   23 1    
    59   25   24 1    
    60   67   24 1    
    61   68   24 1    
    62   69   26 1    
    63   28   27 1    
    64   29   28 1    
    65   76   29 1    
    66   77   29 1    
    67   78   29 1    
    68   31   30 ar   
    69   70   31 1    
    70   33   32 1    
    71   35   34 1    
    72   37   36 ar   
    73   71   36 1    
    74   38   37 1    
    75   39   38 1    
    76   43   38 2    
    77   40   39 2    
    78   41   39 am   
    79   42   41 1    
    80   79   42 1    
    81   80   42 1    
    82   81   42 1    
    83   72   43 1    
    84   73   44 1    
    85   74   44 1    
    86   75   45 1    
@<TRIPOS>SUBSTRUCTURE
     1 AM71        1 GROUP   
@<TRIPOS>SET

