#    Name: 1O6I_1_CAVITY_N1_6.mol2
#    Modification time : Mon Mar 10 21:20:35 2014

@<TRIPOS>MOLECULE
1O6I_1_CAVITY_N1_6.mol2
  105     0     6     0     0
SMALL
NO_CHARGES


@<TRIPOS>ATOM
      1 CZ         15.0666   44.0410  101.5425 C.ar      4 PHE5        0.0000 
      2 CZ         16.0714   43.1509  102.2120 C.ar      4 PHE5        0.0000 
      3 CZ         17.0762   42.2609  102.8816 C.ar      4 PHE5        0.0000 
      4 CZ         18.0809   41.3708  103.5511 C.ar      4 PHE5        0.0000 
      5 O          16.4277   42.5536  100.8831 O.2       2 ALA2        0.0000 
      6 DU         17.4325   41.6635  101.5526 H         6 CUB7        0.0000 
      7 DU         18.4373   40.7734  102.2221 H         6 CUB7        0.0000 
      8 O          19.4420   39.8834  102.8916 O.2       2 ALA2        0.0000 
      9 O          20.4468   38.9933  103.5611 O.2       2 ALA2        0.0000 
     10 CA         17.7888   41.0661  100.2236 C.3       5 GLY6        0.0000 
     11 DU         18.7936   40.1760  100.8931 H         6 CUB7        0.0000 
     12 NZ         19.7984   39.2860  101.5626 N.2       3 LYS4        0.0000 
     13 O          20.8031   38.3959  102.2322 O.2       2 ALA2        0.0000 
     14 CA         18.1452   40.4687   98.8947 C.3       5 GLY6        0.0000 
     15 NZ         19.1499   39.5786   99.5642 N.2       3 LYS4        0.0000 
     16 O          20.1547   38.6886  100.2337 O.2       2 ALA2        0.0000 
     17 CA         18.5015   39.8713   97.5657 C.3       5 GLY6        0.0000 
     18 O          19.5063   38.9813   98.2352 O.2       2 ALA2        0.0000 
     19 CZ         14.0114   42.9918  101.7313 C.ar      4 PHE5        0.0000 
     20 CZ         15.0162   42.1017  102.4008 C.ar      4 PHE5        0.0000 
     21 CZ         16.0210   41.2116  103.0703 C.ar      4 PHE5        0.0000 
     22 CZ         17.0257   40.3216  103.7398 C.ar      4 PHE5        0.0000 
     23 O          15.3725   41.5043  101.0718 O.2       2 ALA2        0.0000 
     24 DU         16.3773   40.6143  101.7413 H         6 CUB7        0.0000 
     25 DU         17.3821   39.7242  102.4108 H         6 CUB7        0.0000 
     26 O          18.3868   38.8341  103.0803 O.2       2 ALA2        0.0000 
     27 O          19.3916   37.9441  103.7498 O.2       2 ALA2        0.0000 
     28 CA         20.3964   37.0540  104.4193 C.3       5 GLY6        0.0000 
     29 CA         22.3660   44.6657   98.1398 C.3       5 GLY6        0.0000 
     30 OG         20.2418   45.4086  102.3154 O.2       1 SER1        0.0000 
     31 CA         20.5981   44.8112  100.9864 C.3       5 GLY6        0.0000 
     32 CA         20.9545   44.2138   99.6575 C.3       5 GLY6        0.0000 
     33 NZ         21.9592   43.3238  100.3270 N.2       3 LYS4        0.0000 
     34 NZ         20.3061   44.5065   97.6590 N.2       3 LYS4        0.0000 
     35 NZ         21.3108   43.6164   98.3285 N.2       3 LYS4        0.0000 
     36 NZ         21.6672   43.0190   96.9996 N.2       3 LYS4        0.0000 
     37 CZ         16.7703   44.7976  103.3523 C.ar      4 PHE5        0.0000 
     38 NZ         16.1219   45.0903  101.3538 N.2       3 LYS4        0.0000 
     39 CZ         17.1266   44.2002  102.0233 C.ar      4 PHE5        0.0000 
     40 CZ         18.1314   43.3101  102.6928 C.ar      4 PHE5        0.0000 
     41 CZ         19.1361   42.4201  103.3623 C.ar      4 PHE5        0.0000 
     42 NZ         17.4830   43.6028  100.6944 N.2       3 LYS4        0.0000 
     43 DU         18.4877   42.7127  101.3639 H         6 CUB7        0.0000 
     44 DU         19.4925   41.8227  102.0334 H         6 CUB7        0.0000 
     45 OG         20.4972   40.9326  102.7029 O.2       1 SER1        0.0000 
     46 NZ         17.8393   43.0054   99.3654 N.2       3 LYS4        0.0000 
     47 DU         18.8441   42.1153  100.0349 H         6 CUB7        0.0000 
     48 NZ         19.8488   41.2253  100.7044 N.2       3 LYS4        0.0000 
     49 NZ         20.8536   40.3352  101.3739 N.2       3 LYS4        0.0000 
     50 NZ         18.1956   42.4080   98.0364 N.2       3 LYS4        0.0000 
     51 NZ         19.2004   41.5180   98.7059 N.2       3 LYS4        0.0000 
     52 CZ         18.5520   41.8106   96.7075 C.ar      4 PHE5        0.0000 
     53 NZ         19.5567   40.9206   97.3770 N.2       3 LYS4        0.0000 
     54 NZ         20.5615   40.0305   98.0465 N.2       3 LYS4        0.0000 
     55 CA         15.7289   40.9069   99.7428 C.3       5 GLY6        0.0000 
     56 CA         16.7336   40.0169  100.4123 C.3       5 GLY6        0.0000 
     57 DU         18.7432   38.2367  101.7514 H         6 CUB7        0.0000 
     58 O          19.7479   37.3467  102.4209 O.2       2 ALA2        0.0000 
     59 CA         20.7527   36.4566  103.0904 C.3       5 GLY6        0.0000 
     60 CA         17.0900   39.4195   99.0834 C.3       5 GLY6        0.0000 
     61 DU         18.0947   38.5294   99.7529 H         6 CUB7        0.0000 
     62 O          19.0995   37.6393  100.4224 O.2       2 ALA2        0.0000 
     63 O          20.1043   36.7493  101.0919 O.2       2 ALA2        0.0000 
     64 CA         17.4463   38.8221   97.7544 C.3       5 GLY6        0.0000 
     65 DU         18.4511   37.9320   98.4239 H         6 CUB7        0.0000 
     66 O          19.4558   37.0420   99.0934 O.2       2 ALA2        0.0000 
     67 CZ         13.9610   41.0525  102.5895 C.ar      4 PHE5        0.0000 
     68 CZ         14.9657   40.1624  103.2590 C.ar      4 PHE5        0.0000 
     69 CZ         15.9705   39.2723  103.9285 C.ar      4 PHE5        0.0000 
     70 O          14.3173   40.4551  101.2605 O.2       2 ALA2        0.0000 
     71 DU         15.3221   39.5650  101.9300 H         6 CUB7        0.0000 
     72 DU         16.3268   38.6749  102.5995 H         6 CUB7        0.0000 
     73 DU         17.3316   37.7849  103.2690 H         6 CUB7        0.0000 
     74 DU         18.3364   36.8948  103.9386 H         6 CUB7        0.0000 
     75 CA         14.6737   39.8577   99.9316 C.3       5 GLY6        0.0000 
     76 DU         15.6784   38.9676  100.6011 H         6 CUB7        0.0000 
     77 DU         18.6927   36.2974  102.6096 H         6 CUB7        0.0000 
     78 CA         19.6975   35.4074  103.2791 C.3       5 GLY6        0.0000 
     79 CA         15.0300   39.2603   98.6026 C.3       5 GLY6        0.0000 
     80 CA         16.0348   38.3702   99.2721 C.3       5 GLY6        0.0000 
     81 DU         17.0395   37.4802   99.9416 H         6 CUB7        0.0000 
     82 DU         18.0443   36.5901  100.6111 H         6 CUB7        0.0000 
     83 CA         19.0491   35.7000  101.2806 C.3       5 GLY6        0.0000 
     84 CA         16.3911   37.7728   97.9431 C.3       5 GLY6        0.0000 
     85 NZ         17.3959   36.8828   98.6126 N.2       3 LYS4        0.0000 
     86 NZ         18.4006   35.9927   99.2822 N.2       3 LYS4        0.0000 
     87 CZ         17.8255   45.8468  103.1636 C.ar      4 PHE5        0.0000 
     88 CZ         18.8303   44.9568  103.8331 C.ar      4 PHE5        0.0000 
     89 NZ         18.1818   45.2494  101.8346 N.2       3 LYS4        0.0000 
     90 OG         19.1866   44.3594  102.5041 O.2       1 SER1        0.0000 
     91 OG         20.1914   43.4693  103.1736 O.2       1 SER1        0.0000 
     92 NZ         18.5382   44.6520  100.5056 N.2       3 LYS4        0.0000 
     93 CA         19.5429   43.7620  101.1752 C.3       5 GLY6        0.0000 
     94 CZ         20.5477   42.8719  101.8447 C.ar      4 PHE5        0.0000 
     95 NZ         18.8945   44.0547   99.1767 N.2       3 LYS4        0.0000 
     96 NZ         19.8993   43.1646   99.8462 N.2       3 LYS4        0.0000 
     97 NZ         20.2556   42.5672   98.5172 N.2       3 LYS4        0.0000 
     98 NZ         19.6072   42.8599   96.5188 N.2       3 LYS4        0.0000 
     99 NZ         20.6119   41.9698   97.1883 N.2       3 LYS4        0.0000 
    100 CA         13.2621   39.4058  101.4492 C.3       5 GLY6        0.0000 
    101 DU         14.6232   37.9184  100.7898 H         6 CUB7        0.0000 
    102 DU         15.9843   36.4309  100.1303 H         6 CUB7        0.0000 
    103 DU         16.9891   35.5409  100.7998 H         6 CUB7        0.0000 
    104 DU         17.9938   34.6508  101.4693 H         6 CUB7        0.0000 
    105 NZ         17.3454   34.9435   99.4709 N.2       3 LYS4        0.0000 
@<TRIPOS>BOND
@<TRIPOS>SUBSTRUCTURE
     1 SER1       30 GROUP   
     2 ALA2        5 GROUP   
     3 LYS4       12 GROUP   
     4 PHE5        1 GROUP   
     5 GLY6       10 GROUP   
     6 CUB7        6 GROUP   
@<TRIPOS>SET

