#    Name: 1O6I_1_CAVITY_N1_ALL.mol2
#    Modification time : Mon Mar 10 21:20:35 2014

@<TRIPOS>MOLECULE
1O6I_1_CAVITY_N1_ALL.mol2
  186     0     6     0     0
SMALL
NO_CHARGES


@<TRIPOS>ATOM
      1 CZ         15.0666   44.0410  101.5425 C.ar      4 PHE5        0.0000 
      2 CZ         16.0714   43.1509  102.2120 C.ar      4 PHE5        0.0000 
      3 CZ         17.0762   42.2609  102.8816 C.ar      4 PHE5        0.0000 
      4 CZ         18.0809   41.3708  103.5511 C.ar      4 PHE5        0.0000 
      5 O          16.4277   42.5536  100.8831 O.2       2 ALA2        0.0000 
      6 DU         17.4325   41.6635  101.5526 H         6 CUB7        0.0000 
      7 DU         18.4373   40.7734  102.2221 H         6 CUB7        0.0000 
      8 O          19.4420   39.8834  102.8916 O.2       2 ALA2        0.0000 
      9 O          20.4468   38.9933  103.5611 O.2       2 ALA2        0.0000 
     10 CA         17.7888   41.0661  100.2236 C.3       5 GLY6        0.0000 
     11 DU         18.7936   40.1760  100.8931 H         6 CUB7        0.0000 
     12 NZ         19.7984   39.2860  101.5626 N.2       3 LYS4        0.0000 
     13 O          20.8031   38.3959  102.2322 O.2       2 ALA2        0.0000 
     14 CA         18.1452   40.4687   98.8947 C.3       5 GLY6        0.0000 
     15 NZ         19.1499   39.5786   99.5642 N.2       3 LYS4        0.0000 
     16 O          20.1547   38.6886  100.2337 O.2       2 ALA2        0.0000 
     17 CA         18.5015   39.8713   97.5657 C.3       5 GLY6        0.0000 
     18 O          19.5063   38.9813   98.2352 O.2       2 ALA2        0.0000 
     19 O          18.8579   39.2739   96.2367 O.2       2 ALA2        0.0000 
     20 O          19.8626   38.3839   96.9062 O.2       2 ALA2        0.0000 
     21 CZ         19.2142   38.6765   94.9078 C.ar      4 PHE5        0.0000 
     22 CZ         20.2190   37.7865   95.5773 C.ar      4 PHE5        0.0000 
     23 CZ         19.5705   38.0791   93.5788 C.ar      4 PHE5        0.0000 
     24 NZ         20.1181   33.9079   97.2937 N.2       3 LYS4        0.0000 
     25 O          21.1228   33.0178   97.9632 O.2       2 ALA2        0.0000 
     26 CZ         14.0114   42.9918  101.7313 C.ar      4 PHE5        0.0000 
     27 CZ         15.0162   42.1017  102.4008 C.ar      4 PHE5        0.0000 
     28 CZ         16.0210   41.2116  103.0703 C.ar      4 PHE5        0.0000 
     29 CZ         17.0257   40.3216  103.7398 C.ar      4 PHE5        0.0000 
     30 O          15.3725   41.5043  101.0718 O.2       2 ALA2        0.0000 
     31 DU         16.3773   40.6143  101.7413 H         6 CUB7        0.0000 
     32 DU         17.3821   39.7242  102.4108 H         6 CUB7        0.0000 
     33 O          18.3868   38.8341  103.0803 O.2       2 ALA2        0.0000 
     34 O          19.3916   37.9441  103.7498 O.2       2 ALA2        0.0000 
     35 CA         20.3964   37.0540  104.4193 C.3       5 GLY6        0.0000 
     36 CA         22.3660   44.6657   98.1398 C.3       5 GLY6        0.0000 
     37 OG         21.7176   44.9584   96.1413 O.2       1 SER1        0.0000 
     38 OG         22.7224   44.0683   96.8108 O.2       1 SER1        0.0000 
     39 CA         23.7271   43.1782   97.4803 C.3       5 GLY6        0.0000 
     40 CZ         21.0692   45.2510   94.1429 C.ar      4 PHE5        0.0000 
     41 CZ         22.0739   44.3610   94.8124 C.ar      4 PHE5        0.0000 
     42 DU         23.0787   43.4709   95.4819 H         6 CUB7        0.0000 
     43 N          24.0835   42.5808   96.1514 N.2       2 ALA2        0.0000 
     44 CZ         23.4350   42.8735   94.1529 C.ar      4 PHE5        0.0000 
     45 N          24.4398   41.9834   94.8224 N.2       2 ALA2        0.0000 
     46 CZ         23.7914   42.2761   92.8239 C.ar      4 PHE5        0.0000 
     47 N          24.7962   41.3861   93.4935 N.2       2 ALA2        0.0000 
     48 OG         20.2418   45.4086  102.3154 O.2       1 SER1        0.0000 
     49 CA         20.5981   44.8112  100.9864 C.3       5 GLY6        0.0000 
     50 CA         20.9545   44.2138   99.6575 C.3       5 GLY6        0.0000 
     51 NZ         21.9592   43.3238  100.3270 N.2       3 LYS4        0.0000 
     52 NZ         20.3061   44.5065   97.6590 N.2       3 LYS4        0.0000 
     53 NZ         21.3108   43.6164   98.3285 N.2       3 LYS4        0.0000 
     54 NZ         19.6576   44.7992   95.6605 N.2       3 LYS4        0.0000 
     55 OG         20.6624   43.9091   96.3300 O.2       1 SER1        0.0000 
     56 NZ         21.6672   43.0190   96.9996 N.2       3 LYS4        0.0000 
     57 CZ         20.0140   44.2018   94.3316 C.ar      4 PHE5        0.0000 
     58 CZ         21.0187   43.3117   95.0011 C.ar      4 PHE5        0.0000 
     59 DU         22.0235   42.4217   95.6706 H         6 CUB7        0.0000 
     60 CA         23.0283   41.5316   96.3401 C.3       5 GLY6        0.0000 
     61 CZ         21.3751   42.7143   93.6721 C.ar      4 PHE5        0.0000 
     62 CZ         22.3798   41.8243   94.3416 C.ar      4 PHE5        0.0000 
     63 N          23.3846   40.9342   95.0111 N.2       2 ALA2        0.0000 
     64 CZ         22.7362   41.2269   93.0127 C.ar      4 PHE5        0.0000 
     65 CZ         23.7409   40.3368   93.6822 C.ar      4 PHE5        0.0000 
     66 OG         22.7728   46.0076   95.9526 O.2       1 SER1        0.0000 
     67 N          23.7776   45.1175   96.6221 N.2       2 ALA2        0.0000 
     68 CZ         23.1292   45.4102   94.6236 C.ar      4 PHE5        0.0000 
     69 DU         24.1339   44.5201   95.2932 H         6 CUB7        0.0000 
     70 N          25.1387   43.6301   95.9627 N.2       2 ALA2        0.0000 
     71 CZ         24.4903   43.9228   93.9642 C.ar      4 PHE5        0.0000 
     72 N          25.4950   43.0327   94.6337 N.2       2 ALA2        0.0000 
     73 CZ         24.8466   43.3254   92.6352 C.ar      4 PHE5        0.0000 
     74 N          25.8514   42.4353   93.3047 N.2       2 ALA2        0.0000 
     75 O          25.1891   45.5694   95.1044 O.2       2 ALA2        0.0000 
     76 CZ         24.5407   45.8621   93.1060 C.ar      4 PHE5        0.0000 
     77 CA         25.5455   44.9720   93.7755 C.3       5 GLY6        0.0000 
     78 CA         26.5502   44.0819   94.4450 C.3       5 GLY6        0.0000 
     79 CA         25.9018   44.3746   92.4465 C.3       5 GLY6        0.0000 
     80 CA         26.9066   43.4845   93.1160 C.3       5 GLY6        0.0000 
     81 CZ         16.7703   44.7976  103.3523 C.ar      4 PHE5        0.0000 
     82 NZ         16.1219   45.0903  101.3538 N.2       3 LYS4        0.0000 
     83 CZ         17.1266   44.2002  102.0233 C.ar      4 PHE5        0.0000 
     84 CZ         18.1314   43.3101  102.6928 C.ar      4 PHE5        0.0000 
     85 CZ         19.1361   42.4201  103.3623 C.ar      4 PHE5        0.0000 
     86 NZ         17.4830   43.6028  100.6944 N.2       3 LYS4        0.0000 
     87 DU         18.4877   42.7127  101.3639 H         6 CUB7        0.0000 
     88 DU         19.4925   41.8227  102.0334 H         6 CUB7        0.0000 
     89 OG         20.4972   40.9326  102.7029 O.2       1 SER1        0.0000 
     90 NZ         17.8393   43.0054   99.3654 N.2       3 LYS4        0.0000 
     91 DU         18.8441   42.1153  100.0349 H         6 CUB7        0.0000 
     92 NZ         19.8488   41.2253  100.7044 N.2       3 LYS4        0.0000 
     93 NZ         20.8536   40.3352  101.3739 N.2       3 LYS4        0.0000 
     94 NZ         18.1956   42.4080   98.0364 N.2       3 LYS4        0.0000 
     95 NZ         19.2004   41.5180   98.7059 N.2       3 LYS4        0.0000 
     96 CZ         18.5520   41.8106   96.7075 C.ar      4 PHE5        0.0000 
     97 NZ         19.5567   40.9206   97.3770 N.2       3 LYS4        0.0000 
     98 NZ         20.5615   40.0305   98.0465 N.2       3 LYS4        0.0000 
     99 CZ         18.9083   41.2132   95.3785 C.ar      4 PHE5        0.0000 
    100 DU         19.9131   40.3232   96.0480 H         6 CUB7        0.0000 
    101 NZ         20.9178   39.4331   96.7175 N.2       3 LYS4        0.0000 
    102 CZ         19.2647   40.6158   94.0495 C.ar      4 PHE5        0.0000 
    103 DU         20.2694   39.7258   94.7191 H         6 CUB7        0.0000 
    104 CZ         21.2742   38.8357   95.3886 C.ar      4 PHE5        0.0000 
    105 CZ         19.6210   40.0184   92.7206 C.ar      4 PHE5        0.0000 
    106 DU         20.6258   39.1284   93.3901 H         6 CUB7        0.0000 
    107 CZ         21.6305   38.2383   94.0596 C.ar      4 PHE5        0.0000 
    108 NZ         17.2950   33.0042  100.3291 N.2       3 LYS4        0.0000 
    109 CA         15.7289   40.9069   99.7428 C.3       5 GLY6        0.0000 
    110 CA         16.7336   40.0169  100.4123 C.3       5 GLY6        0.0000 
    111 DU         18.7432   38.2367  101.7514 H         6 CUB7        0.0000 
    112 O          19.7479   37.3467  102.4209 O.2       2 ALA2        0.0000 
    113 CA         20.7527   36.4566  103.0904 C.3       5 GLY6        0.0000 
    114 CA         17.0900   39.4195   99.0834 C.3       5 GLY6        0.0000 
    115 DU         18.0947   38.5294   99.7529 H         6 CUB7        0.0000 
    116 O          19.0995   37.6393  100.4224 O.2       2 ALA2        0.0000 
    117 O          20.1043   36.7493  101.0919 O.2       2 ALA2        0.0000 
    118 CA         17.4463   38.8221   97.7544 C.3       5 GLY6        0.0000 
    119 DU         18.4511   37.9320   98.4239 H         6 CUB7        0.0000 
    120 O          19.4558   37.0420   99.0934 O.2       2 ALA2        0.0000 
    121 CA         17.8027   38.2247   96.4255 C.3       5 GLY6        0.0000 
    122 NZ         18.8074   37.3346   97.0950 N.2       3 LYS4        0.0000 
    123 O          19.8122   36.4446   97.7645 O.2       2 ALA2        0.0000 
    124 O          20.8169   35.5545   98.4340 O.2       2 ALA2        0.0000 
    125 O          18.1590   37.6273   95.0965 O.2       2 ALA2        0.0000 
    126 NZ         19.1638   36.7372   95.7660 N.2       3 LYS4        0.0000 
    127 CZ         20.1685   35.8472   96.4355 C.ar      4 PHE5        0.0000 
    128 CZ         21.1733   34.9571   97.1050 C.ar      4 PHE5        0.0000 
    129 CZ         13.9610   41.0525  102.5895 C.ar      4 PHE5        0.0000 
    130 CZ         14.9657   40.1624  103.2590 C.ar      4 PHE5        0.0000 
    131 CZ         15.9705   39.2723  103.9285 C.ar      4 PHE5        0.0000 
    132 O          14.3173   40.4551  101.2605 O.2       2 ALA2        0.0000 
    133 DU         15.3221   39.5650  101.9300 H         6 CUB7        0.0000 
    134 DU         16.3268   38.6749  102.5995 H         6 CUB7        0.0000 
    135 DU         17.3316   37.7849  103.2690 H         6 CUB7        0.0000 
    136 DU         18.3364   36.8948  103.9386 H         6 CUB7        0.0000 
    137 CA         14.6737   39.8577   99.9316 C.3       5 GLY6        0.0000 
    138 DU         15.6784   38.9676  100.6011 H         6 CUB7        0.0000 
    139 DU         18.6927   36.2974  102.6096 H         6 CUB7        0.0000 
    140 CA         19.6975   35.4074  103.2791 C.3       5 GLY6        0.0000 
    141 CA         15.0300   39.2603   98.6026 C.3       5 GLY6        0.0000 
    142 CA         16.0348   38.3702   99.2721 C.3       5 GLY6        0.0000 
    143 DU         17.0395   37.4802   99.9416 H         6 CUB7        0.0000 
    144 DU         18.0443   36.5901  100.6111 H         6 CUB7        0.0000 
    145 CA         19.0491   35.7000  101.2806 C.3       5 GLY6        0.0000 
    146 CA         16.3911   37.7728   97.9431 C.3       5 GLY6        0.0000 
    147 NZ         17.3959   36.8828   98.6126 N.2       3 LYS4        0.0000 
    148 NZ         18.4006   35.9927   99.2822 N.2       3 LYS4        0.0000 
    149 O          19.4054   35.1026   99.9517 O.2       2 ALA2        0.0000 
    150 CA         20.4102   34.2126  100.6212 C.3       5 GLY6        0.0000 
    151 NZ         16.7474   37.1754   96.6142 N.2       3 LYS4        0.0000 
    152 NZ         17.7522   36.2854   97.2837 N.2       3 LYS4        0.0000 
    153 NZ         18.7570   35.3953   97.9532 N.2       3 LYS4        0.0000 
    154 NZ         19.7617   34.5053   98.6227 N.2       3 LYS4        0.0000 
    155 O          20.7665   33.6152   99.2922 O.2       2 ALA2        0.0000 
    156 CZ         17.8255   45.8468  103.1636 C.ar      4 PHE5        0.0000 
    157 CZ         18.8303   44.9568  103.8331 C.ar      4 PHE5        0.0000 
    158 NZ         18.1818   45.2494  101.8346 N.2       3 LYS4        0.0000 
    159 OG         19.1866   44.3594  102.5041 O.2       1 SER1        0.0000 
    160 OG         20.1914   43.4693  103.1736 O.2       1 SER1        0.0000 
    161 NZ         18.5382   44.6520  100.5056 N.2       3 LYS4        0.0000 
    162 CA         19.5429   43.7620  101.1752 C.3       5 GLY6        0.0000 
    163 CZ         20.5477   42.8719  101.8447 C.ar      4 PHE5        0.0000 
    164 NZ         18.8945   44.0547   99.1767 N.2       3 LYS4        0.0000 
    165 NZ         19.8993   43.1646   99.8462 N.2       3 LYS4        0.0000 
    166 NZ         20.2556   42.5672   98.5172 N.2       3 LYS4        0.0000 
    167 NZ         19.6072   42.8599   96.5188 N.2       3 LYS4        0.0000 
    168 NZ         20.6119   41.9698   97.1883 N.2       3 LYS4        0.0000 
    169 CZ         19.9635   42.2625   95.1898 C.ar      4 PHE5        0.0000 
    170 DU         20.9683   41.3724   95.8593 H         6 CUB7        0.0000 
    171 NZ         21.9731   40.4824   96.5288 N.2       3 LYS4        0.0000 
    172 CZ         20.3199   41.6651   93.8608 C.ar      4 PHE5        0.0000 
    173 DU         21.3246   40.7750   94.5303 H         6 CUB7        0.0000 
    174 CZ         22.3294   39.8850   95.1999 C.ar      4 PHE5        0.0000 
    175 CZ         20.6762   41.0677   92.5319 C.ar      4 PHE5        0.0000 
    176 DU         21.6810   40.1776   93.2014 H         6 CUB7        0.0000 
    177 CZ         22.6857   39.2876   93.8709 C.ar      4 PHE5        0.0000 
    178 CA         13.2621   39.4058  101.4492 C.3       5 GLY6        0.0000 
    179 DU         14.6232   37.9184  100.7898 H         6 CUB7        0.0000 
    180 DU         15.9843   36.4309  100.1303 H         6 CUB7        0.0000 
    181 DU         16.9891   35.5409  100.7998 H         6 CUB7        0.0000 
    182 DU         17.9938   34.6508  101.4693 H         6 CUB7        0.0000 
    183 NZ         17.3454   34.9435   99.4709 N.2       3 LYS4        0.0000 
    184 NZ         18.3502   34.0534  100.1404 N.2       3 LYS4        0.0000 
    185 NZ         19.3549   33.1633  100.8099 N.2       3 LYS4        0.0000 
    186 NZ         19.7113   32.5659   99.4809 N.2       3 LYS4        0.0000 
@<TRIPOS>BOND
@<TRIPOS>SUBSTRUCTURE
     1 SER1       37 GROUP   
     2 ALA2        5 GROUP   
     3 LYS4       12 GROUP   
     4 PHE5        1 GROUP   
     5 GLY6       10 GROUP   
     6 CUB7        6 GROUP   
@<TRIPOS>SET

