#    Name: 1o6i_0HZ_1_INTS_M
#    Modification time : Mon Mar 24 19:39:15 2014

@<TRIPOS>MOLECULE
1o6i_0HZ_1_INTS_M
   35     0     9     0     0
SMALL
NO_CHARGES


@<TRIPOS>ATOM
      1 CA         16.2230   44.8455  103.5245 C.3       3 GLC5        0.0000 
      2 CA         18.3740   44.6700  103.2560 C.3       9 GLL5        0.0000 
      3 CA         14.0720   45.0210  103.7930 C.3       6 GLP5        0.0000 
      4 CA         18.8390   47.1950  104.8825 C.3       3 GLC5        0.0000 
      5 CA         19.0950   46.0050  103.3720 C.3       9 GLL5        0.0000 
      6 CA         18.5830   48.3850  106.3930 C.3       6 GLP5        0.0000 
      7 CA         17.7650   47.7970  104.2165 C.3       3 GLC5        0.0000 
      8 CA         18.1800   47.0260  102.6730 C.3       9 GLL5        0.0000 
      9 CA         17.3500   48.5680  105.7600 C.3       6 GLP5        0.0000 
     10 CA         18.3920   48.7750  101.8690 C.3       3 GLC5        0.0000 
     11 CA         18.6040   50.5240  101.0650 C.3       6 GLP5        0.0000 
     12 CA         15.6145   45.6360  102.8080 C.3       3 GLC5        0.0000 
     13 CA         17.1570   46.2510  101.8230 C.3       9 GLL5        0.0000 
     14 CA         15.2435   45.8890  100.9095 C.3       3 GLC5        0.0000 
     15 CA         13.3300   45.5270   99.9960 C.3       6 GLP5        0.0000 
     16 CA         15.9445   47.8220  101.2510 C.3       3 GLC5        0.0000 
     17 CA         14.7320   49.3930  100.6790 C.3       6 GLP5        0.0000 
     18 N          21.3785   44.5215  103.7210 N.am      2 SEC2        0.0000 
     19 N          20.4680   43.5410  103.5490 N.am      8 SEL2        0.0000 
     20 N          22.2890   45.5020  103.8930 N.am      5 SEP2        0.0000 
     21 O          19.9035   41.5180  102.0115 O.2       1 ALC1        0.0000 
     22 O          18.9580   42.4100  102.2570 O.2       7 ALL1        0.0000 
     23 O          20.8490   40.6260  101.7660 O.2       4 ALP1        0.0000 
     24 N          15.1890   43.8035   99.5320 N.am      2 SEC2        0.0000 
     25 N          16.1200   43.8000  100.5210 N.am      8 SEL2        0.0000 
     26 N          14.2580   43.8070   98.5430 N.am      5 SEP2        0.0000 
     27 CA         15.0025   42.7335  103.3470 C.3       3 GLC5        0.0000 
     28 CA         16.6720   41.5920  102.6440 C.3       9 GLL5        0.0000 
     29 CA         13.3330   43.8750  104.0500 C.3       6 GLP5        0.0000 
     30 CA         18.2392   44.5337  104.8805 C.3       3 GLC5        0.0000 
     31 CA         17.7440   43.7300  106.4470 C.3       6 GLP5        0.0000 
     32 CA         19.0551   46.7876  101.1249 C.3       3 GLC5        0.0000 
     33 CA         20.2130   47.1920   99.8270 C.3       6 GLP5        0.0000 
     34 CA         16.2945   40.6549  104.3954 C.3       3 GLC5        0.0000 
     35 CA         16.6070   41.1310  106.1050 C.3       6 GLP5        0.0000 
@<TRIPOS>BOND
@<TRIPOS>SUBSTRUCTURE
     1 ALC1       21 GROUP        1 X    ALC  0     ROOT ALC X 1
     2 SEC2       18 GROUP        1 X    SEC  0     **** SEC X 2
     3 GLC5        1 GROUP        1 X    GLC  0     **** GLC X 6
     4 ALP1       23 GROUP        1 Y    ALP  0     ROOT ALP Y 8
     5 SEP2       20 GROUP        1 Y    SEP  0     **** SEP Y 9
     6 GLP5        3 GROUP        1 Y    GLP  0     **** GLP Y 13
     7 ALL1       22 GROUP        1 Z    ALL  0     ROOT ALL Z 15
     8 SEL2       19 GROUP        1 Z    SEL  0     **** SEL Z 16
     9 GLL5        2 GROUP        1 Z    GLL  0     **** GLL Z 20
@<TRIPOS>SET

