#    Name: 1o6i_0HZ_1_ligand
#    Modification time : Mon Mar 24 19:39:15 2014

@<TRIPOS>MOLECULE
1o6i_0HZ_1_ligand
   38    39     1     0     0
SMALL
NO_CHARGES


@<TRIPOS>ATOM
      1 N          17.4790   44.8250  102.0630 N.am      1 0HZ1516     0.0000 
      2 CA         18.3740   44.6700  103.2560 C.3       1 0HZ1516     0.0000 
      3 CB         19.0950   46.0050  103.3720 C.3       1 0HZ1516     0.0000 
      4 CG         18.1800   47.0260  102.6730 C.3       1 0HZ1516     0.0000 
      5 CD         17.1570   46.2510  101.8230 C.3       1 0HZ1516     0.0000 
      6 C          19.3580   43.5230  103.0310 C.2       1 0HZ1516     0.0000 
      7 O          20.4680   43.5410  103.5490 O.2       1 0HZ1516     0.0000 
      8 N1         18.9580   42.4100  102.2570 N.am      1 0HZ1516     0.0000 
      9 CA1        17.5850   42.3040  101.6640 C.3       1 0HZ1516     0.0000 
     10 C1         17.0170   43.6890  101.3640 C.2       1 0HZ1516     0.0000 
     11 O1         16.1200   43.8000  100.5210 O.2       1 0HZ1516     0.0000 
     12 CB1        16.6720   41.5920  102.6440 C.3       1 0HZ1516     0.0000 
     13 CG1        16.6200   40.1010  102.3410 C.3       1 0HZ1516     0.0000 
     14 CD1        15.3180   39.5110  102.8790 C.3       1 0HZ1516     0.0000 
     15 NE         15.6430   38.4140  103.8060 N.pl3     1 0HZ1516     0.0000 
     16 CZ         14.7280   37.8620  104.6030 C.cat     1 0HZ1516     0.0000 
     17 NH1        15.1070   37.5820  105.8550 N.pl3     1 0HZ1516     0.0000 
     18 NH2        13.4920   37.5900  104.1670 N.pl3     1 0HZ1516     0.0000 
     19 H          17.7945   44.5054  104.1212 H         1 0HZ1516     0.0000 
     20 H          20.0297   45.9610  102.8613 H         1 0HZ1516     0.0000 
     21 H          19.2043   46.2732  104.3979 H         1 0HZ1516     0.0000 
     22 H          18.7710   47.6565  102.0334 H         1 0HZ1516     0.0000 
     23 H          17.6613   47.6072  103.4140 H         1 0HZ1516     0.0000 
     24 H          16.1750   46.4870  102.1682 H         1 0HZ1516     0.0000 
     25 H          17.2972   46.5096  100.7970 H         1 0HZ1516     0.0000 
     26 H          19.5988   41.6342  102.0752 H         1 0HZ1516     0.0000 
     27 H          17.6243   41.7386  100.7535 H         1 0HZ1516     0.0000 
     28 H          15.6676   42.0082  102.5725 H         1 0HZ1516     0.0000 
     29 H          17.0422   41.7396  103.6580 H         1 0HZ1516     0.0000 
     30 H          17.4607   39.6058  102.8149 H         1 0HZ1516     0.0000 
     31 H          16.6666   39.9478  101.2682 H         1 0HZ1516     0.0000 
     32 H          14.7306   39.1465  102.0408 H         1 0HZ1516     0.0000 
     33 H          14.7666   40.2962  103.3887 H         1 0HZ1516     0.0000 
     34 H          16.6366   38.1007  103.7947 H         1 0HZ1516     0.0000 
     35 H          14.4058   37.1881  106.4493 H         1 0HZ1516     0.0000 
     36 H          16.0575   37.7917  106.0843 H         1 0HZ1516     0.0000 
     37 H          12.8887   37.1263  104.8158 H         1 0HZ1516     0.0000 
     38 H          13.2827   37.8749  103.2316 H         1 0HZ1516     0.0000 
@<TRIPOS>BOND
     1    2    1 1    
     2    5    1 1    
     3   10    1 am   
     4    3    2 1    
     5    6    2 1    
     6   19    2 1    
     7    4    3 1    
     8   20    3 1    
     9   21    3 1    
    10    5    4 1    
    11   22    4 1    
    12   23    4 1    
    13   24    5 1    
    14   25    5 1    
    15    7    6 2    
    16    8    6 am   
    17    9    8 1    
    18   26    8 1    
    19   10    9 1    
    20   12    9 1    
    21   27    9 1    
    22   11   10 2    
    23   13   12 1    
    24   28   12 1    
    25   29   12 1    
    26   14   13 1    
    27   30   13 1    
    28   31   13 1    
    29   15   14 1    
    30   32   14 1    
    31   33   14 1    
    32   16   15 ar   
    33   34   15 1    
    34   17   16 ar   
    35   18   16 ar   
    36   35   17 1    
    37   36   17 1    
    38   37   18 1    
    39   38   18 1    
@<TRIPOS>SUBSTRUCTURE
     1 0HZ1516     1 GROUP   
@<TRIPOS>SET

