#    Name: 1sdw_IYT_1_INTS_M
#    Modification time : Tue Mar 25 02:19:15 2014

@<TRIPOS>MOLECULE
1sdw_IYT_1_INTS_M
   55     0    12     0     0
SMALL
NO_CHARGES


@<TRIPOS>ATOM
      1 CA         48.2700   21.8580   41.9435 C.3       4 GLC5        0.0000 
      2 CA         48.7850   23.3350   41.3530 C.3      12 GLL5        0.0000 
      3 CA         47.7550   20.3810   42.5340 C.3       8 GLP5        0.0000 
      4 CA         49.5695   22.6400   39.6260 C.3       4 GLC5        0.0000 
      5 CA         50.3540   21.9450   37.8990 C.3       8 GLP5        0.0000 
      6 CA         48.2085   25.1170   40.5890 C.3       4 GLC5        0.0000 
      7 CA         47.6320   26.8990   39.8250 C.3       8 GLP5        0.0000 
      8 N          45.1990   22.2980   40.3525 N.am      2 SEC2        0.0000 
      9 N          46.6000   22.7870   40.5580 N.am     10 SEL2        0.0000 
     10 N          43.7980   21.8090   40.1470 N.am      6 SEP2        0.0000 
     11 CA         45.6780   25.4145   40.6190 C.3       4 GLC5        0.0000 
     12 CA         45.2820   24.5750   42.1540 C.3      12 GLL5        0.0000 
     13 CA         46.0740   26.2540   39.0840 C.3       8 GLP5        0.0000 
     14 CA         42.3815   23.7825   43.3735 C.3       4 GLC5        0.0000 
     15 CA         44.5660   23.6290   43.1290 C.3      12 GLL5        0.0000 
     16 CA         40.1970   23.9360   43.6180 C.3       8 GLP5        0.0000 
     17 O          43.8545   24.4715   49.6840 O.2       1 ALC1        0.0000 
     18 O          44.8680   24.2410   48.7670 O.2       9 ALL1        0.0000 
     19 O          42.8410   24.7020   50.6010 O.2       5 ALP1        0.0000 
     20 O          43.2220   25.0600   41.2590 O.2       1 ALC1        0.0000 
     21 O          43.6370   26.3360   41.9470 O.2       9 ALL1        0.0000 
     22 O          42.8070   23.7840   40.5710 O.2       5 ALP1        0.0000 
     23 CA         42.7155   27.0375   40.2125 C.3       4 GLC5        0.0000 
     24 CA         43.0580   27.6810   41.9640 C.3      12 GLL5        0.0000 
     25 CA         42.3730   26.3940   38.4610 C.3       8 GLP5        0.0000 
     26 CA         44.5660   26.9675   40.5240 C.3       4 GLC5        0.0000 
     27 O          41.8610   26.2190   43.9480 O.2       1 ALC1        0.0000 
     28 O          42.3930   27.7410   44.3070 O.2       9 ALL1        0.0000 
     29 O          41.3290   24.6970   43.5890 O.2       5 ALP1        0.0000 
     30 CA         40.9540   30.2965   43.5375 C.3       4 GLC5        0.0000 
     31 CA         42.7760   29.8500   43.2060 C.3      12 GLL5        0.0000 
     32 CA         39.1320   30.7430   43.8690 C.3       8 GLP5        0.0000 
     33 CA         41.8440   29.9390   45.1125 C.3       4 GLC5        0.0000 
     34 CA         40.9120   30.0280   47.0190 C.3       8 GLP5        0.0000 
     35 NZ         39.5520   28.6130   40.8880 N.4       3 LYC4        0.0000 
     36 NZ         41.0040   28.6060   41.1340 N.4      11 LYL4        0.0000 
     37 NZ         37.4890   27.6170   41.2460 N.4       7 LYP4        0.0000 
     38 N          39.6035   27.6430   41.4960 N.am      2 SEC2        0.0000 
     39 N          41.0040   28.6060   41.1340 N.am     10 SEL2        0.0000 
     40 N          38.2030   26.6800   41.8580 N.am      6 SEP2        0.0000 
     41 N          39.5520   28.6130   40.8880 N.am      2 SEC2        0.0000 
     42 N          38.1000   28.6200   40.6420 N.am      6 SEP2        0.0000 
     43 NZ         39.6000   26.5820   41.8035 N.4       3 LYC4        0.0000 
     44 NZ         40.9970   26.4840   41.7490 N.4      11 LYL4        0.0000 
     45 N          39.6000   26.5820   41.8035 N.am      2 SEC2        0.0000 
     46 N          40.9970   26.4840   41.7490 N.am     10 SEL2        0.0000 
     47 N          41.1630   25.5905   42.6690 N.am      2 SEC2        0.0000 
     48 N          41.3290   24.6970   43.5890 N.am      6 SEP2        0.0000 
     49 CA         43.8468   22.1945   44.6800 C.3       4 GLC5        0.0000 
     50 CA         43.0540   20.6280   45.4930 C.3       8 GLP5        0.0000 
     51 CA         45.8744   21.7963   44.1377 C.3       4 GLC5        0.0000 
     52 CA         45.8880   23.5740   45.2860 C.3      12 GLL5        0.0000 
     53 CA         46.4850   19.9250   43.6990 C.3       8 GLP5        0.0000 
     54 CA         44.0733   22.2983   45.9192 C.3       4 GLC5        0.0000 
     55 CA         43.6270   24.3620   45.3430 C.3      12 GLL5        0.0000 
@<TRIPOS>BOND
@<TRIPOS>SUBSTRUCTURE
     1 ALC1       17 GROUP        1 X    ALC  0     ROOT ALC X 1
     2 SEC2        8 GROUP        1 X    SEC  0     **** SEC X 2
     3 LYC4       35 GROUP        1 X    LYC  0     **** LYC X 4
     4 GLC5        1 GROUP        1 X    GLC  0     **** GLC X 6
     5 ALP1       19 GROUP        1 Y    ALP  0     ROOT ALP Y 8
     6 SEP2       10 GROUP        1 Y    SEP  0     **** SEP Y 9
     7 LYP4       37 GROUP        1 Y    LYP  0     **** LYP Y 11
     8 GLP5        3 GROUP        1 Y    GLP  0     **** GLP Y 13
     9 ALL1       18 GROUP        1 Z    ALL  0     ROOT ALL Z 15
    10 SEL2        9 GROUP        1 Z    SEL  0     **** SEL Z 16
    11 LYL4       36 GROUP        1 Z    LYL  0     **** LYL Z 18
    12 GLL5        2 GROUP        1 Z    GLL  0     **** GLL Z 20
@<TRIPOS>SET

