#    Name: 1sdw_IYT_1_ligand
#    Modification time : Tue Mar 25 02:19:15 2014

@<TRIPOS>MOLECULE
1sdw_IYT_1_ligand
   42    42     1     0     0
SMALL
NO_CHARGES


@<TRIPOS>ATOM
      1 CAN        48.7850   23.3350   41.3530 C.3       1 IYT701      0.0000 
      2 CN         47.2700   23.4890   41.3300 C.2       1 IYT701      0.0000 
      3 ON         46.6000   22.7870   40.5580 O.2       1 IYT701      0.0000 
      4 N          46.7180   24.3630   42.1820 N.am      1 IYT701      0.0000 
      5 CA         45.2820   24.5750   42.1540 C.3       1 IYT701      0.0000 
      6 CB         44.5660   23.6290   43.1290 C.3       1 IYT701      0.0000 
      7 CG         44.7130   23.8930   44.6050 C.ar      1 IYT701      0.0000 
      8 CD1        43.6270   24.3620   45.3430 C.ar      1 IYT701      0.0000 
      9 CE1        43.6850   24.4970   46.7170 C.ar      1 IYT701      0.0000 
     10 CD2        45.8880   23.5740   45.2860 C.ar      1 IYT701      0.0000 
     11 CE2        45.9720   23.7070   46.6730 C.ar      1 IYT701      0.0000 
     12 CZ         44.8540   24.1640   47.3930 C.ar      1 IYT701      0.0000 
     13 OH         44.8680   24.2410   48.7670 O.3       1 IYT701      0.0000 
     14 C          44.8780   26.0380   42.3410 C.2       1 IYT701      0.0000 
     15 O          45.6770   26.8720   42.7890 O.2       1 IYT701      0.0000 
     16 NT         43.6370   26.3360   41.9470 N.am      1 IYT701      0.0000 
     17 CAT        43.0580   27.6810   41.9640 C.3       1 IYT701      0.0000 
     18 CBT        43.2110   28.3900   43.3270 C.3       1 IYT701      0.0000 
     19 OGT        42.3930   27.7410   44.3070 O.3       1 IYT701      0.0000 
     20 CGT        42.7760   29.8500   43.2060 C.3       1 IYT701      0.0000 
     21 CT         41.5700   27.5910   41.5920 C.2       1 IYT701      0.0000 
     22 OX1        41.0040   28.6060   41.1340 O.co2     1 IYT701      0.0000 
     23 OX2        40.9970   26.4840   41.7490 O.co2     1 IYT701      0.0000 
     24 H          47.2589   24.9005   42.8646 H         1 IYT701      0.0000 
     25 H          44.9111   24.2789   41.1283 H         1 IYT701      0.0000 
     26 H          44.9091   22.5837   42.9091 H         1 IYT701      0.0000 
     27 H          43.4754   23.6242   42.8658 H         1 IYT701      0.0000 
     28 H          42.7509   24.6160   44.8402 H         1 IYT701      0.0000 
     29 H          42.8707   24.8414   47.2404 H         1 IYT701      0.0000 
     30 H          46.7078   23.2345   44.7567 H         1 IYT701      0.0000 
     31 H          46.8362   23.4755   47.1650 H         1 IYT701      0.0000 
     32 H          42.9849   25.5814   41.5882 H         1 IYT701      0.0000 
     33 H          43.5370   28.3047   41.2088 H         1 IYT701      0.0000 
     34 H          44.2484   28.3667   43.6018 H         1 IYT701      0.0000 
     35 H          49.1923   23.5358   40.4620 H         1 IYT701      0.0000 
     36 H          49.2109   23.9512   42.0155 H         1 IYT701      0.0000 
     37 H          49.0601   22.4054   41.5983 H         1 IYT701      0.0000 
     38 H          42.8645   30.3371   44.0748 H         1 IYT701      0.0000 
     39 H          43.3254   30.3468   42.5342 H         1 IYT701      0.0000 
     40 H          41.8209   29.9305   42.9208 H         1 IYT701      0.0000 
     41 H          43.9264   24.4593   49.0235 H         1 IYT701      0.0000 
     42 H          41.7447   27.1915   43.7800 H         1 IYT701      0.0000 
@<TRIPOS>BOND
     1    2    1 1    
     2   35    1 1    
     3   36    1 1    
     4   37    1 1    
     5    3    2 2    
     6    4    2 am   
     7    5    4 1    
     8   24    4 1    
     9    6    5 1    
    10   14    5 1    
    11   25    5 1    
    12    7    6 1    
    13   26    6 1    
    14   27    6 1    
    15    8    7 ar   
    16   10    7 ar   
    17    9    8 ar   
    18   28    8 1    
    19   12    9 ar   
    20   29    9 1    
    21   11   10 ar   
    22   30   10 1    
    23   12   11 ar   
    24   31   11 1    
    25   13   12 1    
    26   41   13 1    
    27   15   14 2    
    28   16   14 am   
    29   17   16 1    
    30   32   16 1    
    31   18   17 1    
    32   21   17 1    
    33   33   17 1    
    34   19   18 1    
    35   20   18 1    
    36   34   18 1    
    37   42   19 1    
    38   38   20 1    
    39   39   20 1    
    40   40   20 1    
    41   22   21 ar   
    42   23   21 ar   
@<TRIPOS>SUBSTRUCTURE
     1 IYT701      1 GROUP   
@<TRIPOS>SET

