#    Name: 4FFB_1_CAVITY_N1_6.mol2
#    Modification time : Mon Mar 10 19:41:50 2014

@<TRIPOS>MOLECULE
4FFB_1_CAVITY_N1_6.mol2
   69     0     7     0     0
SMALL
NO_CHARGES


@<TRIPOS>ATOM
      1 OG         13.6502    0.4188   44.1610 O.2       1 SER1        0.0000 
      2 N          14.2220   -1.6121   43.9411 N.2       2 ALA2        0.0000 
      3 OD1        14.1480   -0.4260   43.0259 O.3       3 ASP3        0.0000 
      4 N          14.7938   -3.6431   43.7213 N.2       2 ALA2        0.0000 
      5 OD1        14.7198   -2.4570   42.8061 O.3       3 ASP3        0.0000 
      6 OG         15.2176   -3.3018   41.6710 O.2       1 SER1        0.0000 
      7 CA         12.1632    1.2452   42.8937 C.3       6 GLY6        0.0000 
      8 CA         22.3568   -2.6892   44.3462 C.3       6 GLY6        0.0000 
      9 CZ         22.9286   -4.7202   44.1264 C.ar      5 PHE5        0.0000 
     10 CA         22.8547   -3.5341   43.2111 C.3       6 GLY6        0.0000 
     11 O          23.4265   -5.5650   42.9913 O.2       2 ALA2        0.0000 
     12 CA         23.3525   -4.3789   42.0760 C.3       6 GLY6        0.0000 
     13 CA         23.8503   -5.2238   40.9409 C.3       6 GLY6        0.0000 
     14 O          24.4221   -7.2547   40.7211 O.2       2 ALA2        0.0000 
     15 O          20.9438   -3.0490   43.9942 O.2       2 ALA2        0.0000 
     16 CA         20.8698   -1.8629   43.0789 C.3       6 GLY6        0.0000 
     17 CZ         21.5156   -5.0799   43.7744 C.ar      5 PHE5        0.0000 
     18 CA         21.4416   -3.8938   42.8591 C.3       6 GLY6        0.0000 
     19 CA         21.3677   -2.7077   41.9438 C.3       6 GLY6        0.0000 
     20 OG         21.2937   -1.5216   41.0286 O.2       1 SER1        0.0000 
     21 N          22.0874   -7.1109   43.5546 N.2       2 ALA2        0.0000 
     22 O          22.0134   -5.9248   42.6393 O.2       2 ALA2        0.0000 
     23 DU         21.9395   -4.7387   41.7240 H         7 CUB7        0.0000 
     24 OG         21.8655   -3.5526   40.8088 O.2       1 SER1        0.0000 
     25 O          22.5852   -7.9557   42.4195 O.2       2 ALA2        0.0000 
     26 O          22.5113   -6.7696   41.5042 O.2       2 ALA2        0.0000 
     27 CA         22.4373   -5.5835   40.5890 C.3       6 GLY6        0.0000 
     28 CA         23.0091   -7.6145   40.3691 C.3       6 GLY6        0.0000 
     29 CA         22.9351   -6.4284   39.4539 C.3       6 GLY6        0.0000 
     30 CZ         19.6047   -4.5948   44.5575 C.ar      5 PHE5        0.0000 
     31 O          19.5308   -3.4087   43.6422 O.2       2 ALA2        0.0000 
     32 N          19.4568   -2.2226   42.7269 N.2       2 ALA2        0.0000 
     33 CA         19.3828   -1.0365   41.8117 C.3       6 GLY6        0.0000 
     34 CA         20.1026   -5.4396   43.4224 C.3       6 GLY6        0.0000 
     35 OG         20.0286   -4.2536   42.5071 O.2       1 SER1        0.0000 
     36 OG         19.9546   -3.0675   41.5919 O.2       1 SER1        0.0000 
     37 DU         19.8806   -1.8814   40.6766 H         7 CUB7        0.0000 
     38 N          20.6004   -6.2845   42.2873 N.2       2 ALA2        0.0000 
     39 OG         20.5264   -5.0984   41.3720 O.2       1 SER1        0.0000 
     40 O          20.4524   -3.9123   40.4568 O.2       2 ALA2        0.0000 
     41 O          20.3785   -2.7262   39.5415 O.2       2 ALA2        0.0000 
     42 N          21.1722   -8.3154   42.0675 N.2       2 ALA2        0.0000 
     43 NZ         21.0982   -7.1293   41.1522 N.2       4 LYS4        0.0000 
     44 NZ         21.0242   -5.9432   40.2370 N.2       4 LYS4        0.0000 
     45 O          20.9503   -4.7572   39.3217 O.2       2 ALA2        0.0000 
     46 NZ         21.5960   -7.9742   40.0172 N.2       4 LYS4        0.0000 
     47 CA         21.5221   -6.7881   39.1019 C.3       6 GLY6        0.0000 
     48 O          16.6242   -1.2339   46.6954 O.2       2 ALA2        0.0000 
     49 O          17.1960   -3.2648   46.4756 O.2       2 ALA2        0.0000 
     50 CA         17.6939   -4.1097   45.3406 C.3       6 GLY6        0.0000 
     51 O          17.6199   -2.9236   44.4253 O.2       2 ALA2        0.0000 
     52 CA         18.1177   -3.7684   43.2902 C.3       6 GLY6        0.0000 
     53 N          18.0437   -2.5823   42.3750 N.2       2 ALA2        0.0000 
     54 N          17.9698   -1.3963   41.4597 N.2       2 ALA2        0.0000 
     55 OG         18.5416   -3.4272   41.2399 O.2       1 SER1        0.0000 
     56 OG         18.4676   -2.2411   40.3246 O.2       1 SER1        0.0000 
     57 OG         19.0394   -4.2720   40.1048 O.2       1 SER1        0.0000 
     58 CA         18.9654   -3.0859   39.1895 C.3       6 GLY6        0.0000 
     59 O          19.5372   -5.1169   38.9697 O.2       2 ALA2        0.0000 
     60 N          15.1372   -0.4075   45.4282 N.2       2 ALA2        0.0000 
     61 N          15.0632    0.7786   44.5129 N.2       2 ALA2        0.0000 
     62 N          15.7090   -2.4385   45.2084 N.2       2 ALA2        0.0000 
     63 N          15.6350   -1.2524   44.2931 N.2       2 ALA2        0.0000 
     64 CA         16.2068   -3.2833   44.0733 C.3       6 GLY6        0.0000 
     65 N          16.1329   -2.0972   43.1580 N.2       2 ALA2        0.0000 
     66 N          16.0589   -0.9111   42.2428 N.2       2 ALA2        0.0000 
     67 OG         16.6307   -2.9421   42.0230 O.2       1 SER1        0.0000 
     68 OD1        16.5567   -1.7560   41.1077 O.3       3 ASP3        0.0000 
     69 O          17.0545   -2.6008   39.9726 O.2       2 ALA2        0.0000 
@<TRIPOS>BOND
@<TRIPOS>SUBSTRUCTURE
     1 SER1        1 GROUP   
     2 ALA2        2 GROUP   
     3 ASP3        3 GROUP   
     4 LYS4       43 GROUP   
     5 PHE5        9 GROUP   
     6 GLY6        7 GROUP   
     7 CUB7       23 GROUP   
@<TRIPOS>SET

