#    Name: 4ffb_GTP_1_INTS_M
#    Modification time : Mon Mar 24 19:32:32 2014

@<TRIPOS>MOLECULE
4ffb_GTP_1_INTS_M
   85     0    15     0     0
SMALL
NO_CHARGES


@<TRIPOS>ATOM
      1 NZ         15.0740   -0.7225   38.7225 N.4       3 LYC4        0.0000 
      2 NZ         15.9790   -0.7920   37.5370 N.4      13 LYL4        0.0000 
      3 NZ         14.1690   -0.6530   39.9080 N.4       8 LYP4        0.0000 
      4 N          15.2205   -1.4425   36.6515 N.am      2 SEC2        0.0000 
      5 N          15.9790   -0.7920   37.5370 N.am     12 SEL2        0.0000 
      6 N          14.4620   -2.0930   35.7660 N.am      7 SEP2        0.0000 
      7 N          15.0740   -0.7225   38.7225 N.am      2 SEC2        0.0000 
      8 N          14.1690   -0.6530   39.9080 N.am      7 SEP2        0.0000 
      9 NZ         15.3305    0.2225   39.4645 N.4       3 LYC4        0.0000 
     10 NZ         16.4920    1.0980   39.0210 N.4      13 LYL4        0.0000 
     11 Zn         16.7850    1.4695   39.9495 Zn        4 ZIC7        0.0000 
     12 Zn         16.4920    1.0980   39.0210 Zn       14 ZIL7        0.0000 
     13 Zn         17.0780    1.8410   40.8780 Zn        9 ZIP7        0.0000 
     14 N          15.3305    0.2225   39.4645 N.am      2 SEC2        0.0000 
     15 N          16.4920    1.0980   39.0210 N.am     12 SEL2        0.0000 
     16 N          15.7140    2.1770   35.7585 N.am      2 SEC2        0.0000 
     17 N          16.9230    1.2390   36.5750 N.am     12 SEL2        0.0000 
     18 N          14.5050    3.1150   34.9420 N.am      7 SEP2        0.0000 
     19 N          17.6435   -0.1130   35.8130 N.am      2 SEC2        0.0000 
     20 N          18.3640   -1.4650   35.0510 N.am      7 SEP2        0.0000 
     21 N          18.0835    1.1770   35.6050 N.am      2 SEC2        0.0000 
     22 N          19.2440    1.1150   34.6350 N.am      7 SEP2        0.0000 
     23 N          17.5355    2.3575   36.1935 N.am      2 SEC2        0.0000 
     24 N          18.1480    3.4760   35.8120 N.am      7 SEP2        0.0000 
     25 N          18.3890   -0.8710   36.5275 N.am      2 SEC2        0.0000 
     26 N          18.4140   -0.2770   38.0040 N.am     12 SEL2        0.0000 
     27 N          21.1310    1.5135   36.8070 N.am      2 SEC2        0.0000 
     28 N          20.2760    1.4540   38.0350 N.am     12 SEL2        0.0000 
     29 N          21.9860    1.5730   35.5790 N.am      7 SEP2        0.0000 
     30 Zn         17.9680    1.5095   40.4715 Zn        4 ZIC7        0.0000 
     31 Zn         18.8580    1.1780   40.0650 Zn       14 ZIL7        0.0000 
     32 N          20.1655    1.8555   40.6240 N.am      2 SEC2        0.0000 
     33 N          18.8580    1.1780   40.0650 N.am     12 SEL2        0.0000 
     34 N          21.4730    2.5330   41.1830 N.am      7 SEP2        0.0000 
     35 N          21.9945   -0.5555   42.2105 N.am      2 SEC2        0.0000 
     36 N          20.9590   -1.7140   41.6930 N.am     12 SEL2        0.0000 
     37 N          23.0300    0.6030   42.7280 N.am      7 SEP2        0.0000 
     38 N          21.9030   -2.7660   39.2630 N.am      2 SEC2        0.0000 
     39 N          20.3590   -3.1680   39.6760 N.am     12 SEL2        0.0000 
     40 N          23.4470   -2.3640   38.8500 N.am      7 SEP2        0.0000 
     41 CA         19.7380   -3.7135   38.4540 C.3       5 GLC5        0.0000 
     42 CA         20.1140   -4.4240   40.2770 C.3      15 GLL5        0.0000 
     43 CA         19.3620   -3.0030   36.6310 C.3      10 GLP5        0.0000 
     44 CA         22.9930   -4.1180   39.9655 C.3       5 GLC5        0.0000 
     45 CA         21.3980   -5.1030   40.7410 C.3      15 GLL5        0.0000 
     46 CA         24.5880   -3.1330   39.1900 C.3      10 GLP5        0.0000 
     47 N          22.8050   -3.2825   40.1805 N.am      2 SEC2        0.0000 
     48 N          22.1630   -4.2010   41.5110 N.am     12 SEL2        0.0000 
     49 CA         19.1440   -6.2225   42.5365 C.3       5 GLC5        0.0000 
     50 CA         21.1050   -6.3030   41.6280 C.3      15 GLL5        0.0000 
     51 CA         17.1830   -6.1420   43.4450 C.3      10 GLP5        0.0000 
     52 O          20.2995   -7.9885   40.2960 O.2       1 ALC1        0.0000 
     53 O          21.5320   -7.4870   40.9950 O.2      11 ALL1        0.0000 
     54 O          19.0670   -8.4900   39.5970 O.2       6 ALP1        0.0000 
     55 CA         21.3030   -5.9035   44.7205 C.3       5 GLC5        0.0000 
     56 CA         21.9250   -6.1000   42.8820 C.3      15 GLL5        0.0000 
     57 CA         20.6810   -5.7070   46.5590 C.3      10 GLP5        0.0000 
     58 CA         23.6105   -3.1065   42.5250 C.3       5 GLC5        0.0000 
     59 CA         22.7580   -4.8590   42.6110 C.3      15 GLL5        0.0000 
     60 CA         24.4630   -1.3540   42.4390 C.3      10 GLP5        0.0000 
     61 CA         23.6730   -3.9960   40.9005 C.3       5 GLC5        0.0000 
     62 CA         22.3790   -5.4105   44.7470 C.3       5 GLC5        0.0000 
     63 CA         22.0000   -5.9620   46.8830 C.3      10 GLP5        0.0000 
     64 CA         23.0150   -3.1905   47.6485 C.3       5 GLC5        0.0000 
     65 CA         23.4380   -2.8980   45.6120 C.3      15 GLL5        0.0000 
     66 CA         22.5920   -3.4830   49.6850 C.3      10 GLP5        0.0000 
     67 N          22.9575   -0.6130   47.6540 N.am      2 SEC2        0.0000 
     68 N          24.0010   -1.7370   47.4840 N.am     12 SEL2        0.0000 
     69 N          21.9140    0.5110   47.8240 N.am      7 SEP2        0.0000 
     70 N          24.9905   -1.2430   48.2180 N.am      2 SEC2        0.0000 
     71 N          25.9800   -0.7490   48.9520 N.am      7 SEP2        0.0000 
     72 O          26.4605   -2.6515   47.2665 O.2       1 ALC1        0.0000 
     73 O          25.5840   -3.1160   46.6460 O.2      11 ALL1        0.0000 
     74 O          27.3370   -2.1870   47.8870 O.2       6 ALP1        0.0000 
     75 O          27.1180   -6.0090   45.2020 O.2       1 ALC1        0.0000 
     76 O          27.1580   -4.5740   45.6960 O.2      11 ALL1        0.0000 
     77 O          27.0780   -7.4440   44.7080 O.2       6 ALP1        0.0000 
     78 O          27.2475   -3.3805   46.7915 O.2       1 ALC1        0.0000 
     79 N          25.0990   -5.8930   44.1265 N.am      2 SEC2        0.0000 
     80 N          25.0600   -4.3690   44.6780 N.am     12 SEL2        0.0000 
     81 N          25.1380   -7.4170   43.5750 N.am      7 SEP2        0.0000 
     82 CA         21.2215   -5.3783   38.4650 C.3       5 GLC5        0.0000 
     83 CA         21.6870   -5.9930   36.4210 C.3      10 GLP5        0.0000 
     84 CA         24.0470   -2.3558   43.7845 C.3       5 GLC5        0.0000 
     85 CA         23.8240   -3.8170   44.6480 C.3      15 GLL5        0.0000 
@<TRIPOS>BOND
@<TRIPOS>SUBSTRUCTURE
     1 ALC1       52 GROUP        1 X    ALC  0     ROOT ALC X 1
     2 SEC2        4 GROUP        1 X    SEC  0     **** SEC X 2
     3 LYC4        1 GROUP        1 X    LYC  0     **** LYC X 4
     4 ZIC7       11 GROUP        1 X    ZIC  0     **** ZIC X 5
     5 GLC5       41 GROUP        1 X    GLC  0     **** GLC X 6
     6 ALP1       54 GROUP        1 Y    ALP  0     ROOT ALP Y 8
     7 SEP2        6 GROUP        1 Y    SEP  0     **** SEP Y 9
     8 LYP4        3 GROUP        1 Y    LYP  0     **** LYP Y 11
     9 ZIP7       13 GROUP        1 Y    ZIP  0     **** ZIP Y 12
    10 GLP5       43 GROUP        1 Y    GLP  0     **** GLP Y 13
    11 ALL1       53 GROUP        1 Z    ALL  0     ROOT ALL Z 15
    12 SEL2        5 GROUP        1 Z    SEL  0     **** SEL Z 16
    13 LYL4        2 GROUP        1 Z    LYL  0     **** LYL Z 18
    14 ZIL7       12 GROUP        1 Z    ZIL  0     **** ZIL Z 19
    15 GLL5       42 GROUP        1 Z    GLL  0     **** GLL Z 20
@<TRIPOS>SET

