#    Name: 4ffb_GTP_1_ligand
#    Modification time : Mon Mar 24 19:32:33 2014

@<TRIPOS>MOLECULE
4ffb_GTP_1_ligand
   44    46     1     0     0
SMALL
NO_CHARGES


@<TRIPOS>ATOM
      1 PG         16.9380    0.3430   37.7910 P.3       1 GTP502      0.0000 
      2 O1G        15.9790   -0.7920   37.5370 O.co2     1 GTP502      0.0000 
      3 O2G        16.4920    1.0980   39.0210 O.co2     1 GTP502      0.0000 
      4 O3G        16.9230    1.2390   36.5750 O.co2     1 GTP502      0.0000 
      5 O3B        18.4140   -0.2770   38.0040 O.3       1 GTP502      0.0000 
      6 PB         19.5190    0.4830   38.8970 P.3       1 GTP502      0.0000 
      7 O1B        20.2760    1.4540   38.0350 O.co2     1 GTP502      0.0000 
      8 O2B        18.8580    1.1780   40.0650 O.co2     1 GTP502      0.0000 
      9 O3A        20.5480   -0.6290   39.4490 O.3       1 GTP502      0.0000 
     10 PA         20.0860   -1.7880   40.4660 P.3       1 GTP502      0.0000 
     11 O1A        20.9590   -1.7140   41.6930 O.co2     1 GTP502      0.0000 
     12 O2A        18.6300   -1.6370   40.8440 O.co2     1 GTP502      0.0000 
     13 O5'        20.3590   -3.1680   39.6760 O.3       1 GTP502      0.0000 
     14 C5'        20.1140   -4.4240   40.2770 C.3       1 GTP502      0.0000 
     15 C4'        21.3980   -5.1030   40.7410 C.3       1 GTP502      0.0000 
     16 O4'        22.1630   -4.2010   41.5110 O.3       1 GTP502      0.0000 
     17 C3'        21.1050   -6.3030   41.6280 C.3       1 GTP502      0.0000 
     18 O3'        21.5320   -7.4870   40.9950 O.3       1 GTP502      0.0000 
     19 C2'        21.9250   -6.1000   42.8820 C.3       1 GTP502      0.0000 
     20 O2'        22.7590   -7.2130   43.0930 O.3       1 GTP502      0.0000 
     21 C1'        22.7580   -4.8590   42.6110 C.3       1 GTP502      0.0000 
     22 N9         22.7670   -3.9780   43.7910 N.pl3     1 GTP502      0.0000 
     23 C8         21.7530   -3.1670   44.2260 C.2       1 GTP502      0.0000 
     24 N7         22.1700   -2.5180   45.3370 N.2       1 GTP502      0.0000 
     25 C5         23.4380   -2.8980   45.6120 C.2       1 GTP502      0.0000 
     26 C6         24.3270   -2.5480   46.6200 C.2       1 GTP502      0.0000 
     27 O6         24.0010   -1.7370   47.4840 O.2       1 GTP502      0.0000 
     28 N1         25.5840   -3.1160   46.6460 N.am      1 GTP502      0.0000 
     29 C2         25.9480   -4.0250   45.6740 C.2       1 GTP502      0.0000 
     30 N2         27.1580   -4.5740   45.6960 N.pl3     1 GTP502      0.0000 
     31 N3         25.0600   -4.3690   44.6780 N.2       1 GTP502      0.0000 
     32 C4         23.8240   -3.8170   44.6480 C.2       1 GTP502      0.0000 
     33 H          19.6053   -5.1207   39.5803 H         1 GTP502      0.0000 
     34 H          19.4501   -4.3343   41.1606 H         1 GTP502      0.0000 
     35 H          21.9431   -5.4438   39.8807 H         1 GTP502      0.0000 
     36 H          20.0808   -6.3016   41.8829 H         1 GTP502      0.0000 
     37 H          21.2680   -5.8968   43.6884 H         1 GTP502      0.0000 
     38 H          23.7575   -5.1787   42.3782 H         1 GTP502      0.0000 
     39 H          20.8926   -3.0803   43.8055 H         1 GTP502      0.0000 
     40 H          26.2504   -2.8616   47.3906 H         1 GTP502      0.0000 
     41 H          27.8819   -4.0267   46.1159 H         1 GTP502      0.0000 
     42 H          27.2354   -5.4849   45.2906 H         1 GTP502      0.0000 
     43 H          20.7154   -8.0619   40.9438 H         1 GTP502      0.0000 
     44 H          22.6733   -7.7618   42.2614 H         1 GTP502      0.0000 
@<TRIPOS>BOND
     1    2    1 ar   
     2    3    1 ar   
     3    4    1 ar   
     4    5    1 1    
     5    6    5 1    
     6    7    6 ar   
     7    8    6 ar   
     8    9    6 1    
     9   10    9 1    
    10   11   10 ar   
    11   12   10 ar   
    12   13   10 1    
    13   14   13 1    
    14   15   14 1    
    15   33   14 1    
    16   34   14 1    
    17   16   15 1    
    18   17   15 1    
    19   35   15 1    
    20   21   16 1    
    21   18   17 1    
    22   19   17 1    
    23   36   17 1    
    24   43   18 1    
    25   20   19 1    
    26   21   19 1    
    27   37   19 1    
    28   44   20 1    
    29   22   21 1    
    30   38   21 1    
    31   23   22 1    
    32   32   22 1    
    33   24   23 2    
    34   39   23 1    
    35   25   24 1    
    36   26   25 1    
    37   32   25 2    
    38   27   26 2    
    39   28   26 am   
    40   29   28 1    
    41   40   28 1    
    42   30   29 1    
    43   31   29 2    
    44   41   30 1    
    45   42   30 1    
    46   32   31 1    
@<TRIPOS>SUBSTRUCTURE
     1 GTP502      1 GROUP   
@<TRIPOS>SET

