#    Name: 4hbf_DXC_1_INTS_M
#    Modification time : Tue Mar 25 00:46:36 2014

@<TRIPOS>MOLECULE
4hbf_DXC_1_INTS_M
   65     0    12     0     0
SMALL
NO_CHARGES


@<TRIPOS>ATOM
      1 CA         24.7860   32.6900   20.1875 C.3       4 GLC5        0.0000 
      2 CA         25.9290   31.4840   20.9300 C.3      12 GLL5        0.0000 
      3 CA         23.6430   33.8960   19.4450 C.3       8 GLP5        0.0000 
      4 CA         25.6945   32.7720   17.4420 C.3       4 GLC5        0.0000 
      5 CA         26.9250   31.0810   18.0120 C.3      12 GLL5        0.0000 
      6 CA         24.4640   34.4630   16.8720 C.3       8 GLP5        0.0000 
      7 CA         26.5425   33.7070   19.3360 C.3       4 GLC5        0.0000 
      8 CA         28.4280   32.6020   19.4280 C.3      12 GLL5        0.0000 
      9 CA         24.6570   34.8120   19.2440 C.3       8 GLP5        0.0000 
     10 CA         30.6275   36.1755   19.0650 C.3       4 GLC5        0.0000 
     11 CA         29.6450   34.5350   18.2300 C.3      12 GLL5        0.0000 
     12 CA         31.6100   37.8160   19.9000 C.3       8 GLP5        0.0000 
     13 CA         26.2015   33.4995   16.1820 C.3       4 GLC5        0.0000 
     14 CA         27.9390   32.5360   15.4920 C.3      12 GLL5        0.0000 
     15 CA         29.9985   33.2515   13.3350 C.3       4 GLC5        0.0000 
     16 CA         28.4910   33.6520   14.6170 C.3      12 GLL5        0.0000 
     17 CA         31.5060   32.8510   12.0530 C.3       8 GLP5        0.0000 
     18 CA         28.8330   28.7055   20.1715 C.3       4 GLC5        0.0000 
     19 CA         29.6880   30.6480   20.3930 C.3      12 GLL5        0.0000 
     20 CA         27.9780   26.7630   19.9500 C.3       8 GLP5        0.0000 
     21 O          28.7455   36.1365   19.8335 O.2       1 ALC1        0.0000 
     22 O          28.5740   35.4490   18.5010 O.2       9 ALL1        0.0000 
     23 O          28.9170   36.8240   21.1660 O.2       5 ALP1        0.0000 
     24 O          24.9345   33.9260   23.3545 O.2       1 ALC1        0.0000 
     25 O          24.9320   32.8580   22.6830 O.2       9 ALL1        0.0000 
     26 O          24.9370   34.9940   24.0260 O.2       5 ALP1        0.0000 
     27 CA         31.8050   32.9855   14.8525 C.3       4 GLC5        0.0000 
     28 CA         30.6970   33.0090   16.5320 C.3      12 GLL5        0.0000 
     29 CA         32.9130   32.9620   13.1730 C.3       8 GLP5        0.0000 
     30 CA         30.6250   34.5270   12.8440 C.3       4 GLC5        0.0000 
     31 CA         29.7440   36.2030   13.6350 C.3      12 GLL5        0.0000 
     32 CA         27.2010   38.2000   14.4410 C.3       4 GLC5        0.0000 
     33 CA         28.6450   37.2230   13.8160 C.3      12 GLL5        0.0000 
     34 CA         25.7570   39.1770   15.0660 C.3       8 GLP5        0.0000 
     35 CA         26.8245   36.7175   13.4955 C.3       4 GLC5        0.0000 
     36 CA         25.0040   36.2120   13.1750 C.3       8 GLP5        0.0000 
     37 NZ         29.8840   40.1545   14.7320 N.4       3 LYC4        0.0000 
     38 NZ         29.7220   39.2080   13.0350 N.4      11 LYL4        0.0000 
     39 NZ         30.0460   41.1010   16.4290 N.4       7 LYP4        0.0000 
     40 NZ         29.5575   40.1375   15.7540 N.4       3 LYC4        0.0000 
     41 NZ         29.0690   39.1740   15.0790 N.4      11 LYL4        0.0000 
     42 N          29.5575   40.1375   15.7540 N.am      2 SEC2        0.0000 
     43 N          29.0690   39.1740   15.0790 N.am     10 SEL2        0.0000 
     44 N          30.0460   41.1010   16.4290 N.am      6 SEP2        0.0000 
     45 CA         32.6480   37.2465   15.7995 C.3       4 GLC5        0.0000 
     46 CA         30.7530   36.5410   15.9040 C.3      12 GLL5        0.0000 
     47 CA         34.5430   37.9520   15.6950 C.3       8 GLP5        0.0000 
     48 CA         30.8095   38.0615   17.0445 C.3       4 GLC5        0.0000 
     49 CA         30.8660   39.5820   18.1850 C.3       8 GLP5        0.0000 
     50 CA         25.9997   34.0127   21.3907 C.3       4 GLC5        0.0000 
     51 CA         27.3260   32.9510   22.3730 C.3      12 GLL5        0.0000 
     52 CA         25.2920   35.5170   20.4090 C.3       8 GLP5        0.0000 
     53 CA         27.5167   28.5607   19.8845 C.3       4 GLC5        0.0000 
     54 CA         27.1730   30.6820   20.5140 C.3      12 GLL5        0.0000 
     55 CA         28.8535   34.1167   22.8377 C.3       4 GLC5        0.0000 
     56 CA         28.5780   32.1800   21.9660 C.3      12 GLL5        0.0000 
     57 CA         29.7550   35.6680   23.5060 C.3       8 GLP5        0.0000 
     58 CA         25.1013   29.7475   20.1995 C.3       4 GLC5        0.0000 
     59 CA         23.4580   28.9360   20.4760 C.3       8 GLP5        0.0000 
     60 CA         26.6225   33.7935   17.7200 C.3       4 GLC5        0.0000 
     61 CA         28.2120   31.9450   18.0440 C.3      12 GLL5        0.0000 
     62 CA         25.0510   35.1050   17.9480 C.3       8 GLP5        0.0000 
     63 CA         31.9812   35.1960   14.3238 C.3       4 GLC5        0.0000 
     64 CA         30.1820   35.5230   14.9390 C.3      12 GLL5        0.0000 
     65 CA         33.4950   34.3600   13.2260 C.3       8 GLP5        0.0000 
@<TRIPOS>BOND
@<TRIPOS>SUBSTRUCTURE
     1 ALC1       21 GROUP        1 X    ALC  0     ROOT ALC X 1
     2 SEC2       42 GROUP        1 X    SEC  0     **** SEC X 2
     3 LYC4       37 GROUP        1 X    LYC  0     **** LYC X 4
     4 GLC5        1 GROUP        1 X    GLC  0     **** GLC X 6
     5 ALP1       23 GROUP        1 Y    ALP  0     ROOT ALP Y 8
     6 SEP2       44 GROUP        1 Y    SEP  0     **** SEP Y 9
     7 LYP4       39 GROUP        1 Y    LYP  0     **** LYP Y 11
     8 GLP5        3 GROUP        1 Y    GLP  0     **** GLP Y 13
     9 ALL1       22 GROUP        1 Z    ALL  0     ROOT ALL Z 15
    10 SEL2       43 GROUP        1 Z    SEL  0     **** SEL Z 16
    11 LYL4       38 GROUP        1 Z    LYL  0     **** LYL Z 18
    12 GLL5        2 GROUP        1 Z    GLL  0     **** GLL Z 20
@<TRIPOS>SET

