#    Name: 4hbf_DXC_1_ligand
#    Modification time : Tue Mar 25 00:46:36 2014

@<TRIPOS>MOLECULE
4hbf_DXC_1_ligand
   67    70     1     0     0
SMALL
NO_CHARGES


@<TRIPOS>ATOM
      1 C1         26.0890   32.0660   22.3720 C.3       1 DXC75       0.0000 
      2 C2         25.9290   31.4840   20.9300 C.3       1 DXC75       0.0000 
      3 C3         27.1730   30.6820   20.5140 C.3       1 DXC75       0.0000 
      4 C4         28.4670   31.5500   20.5570 C.3       1 DXC75       0.0000 
      5 C5         28.5780   32.1800   21.9660 C.3       1 DXC75       0.0000 
      6 C6         27.3260   32.9510   22.3730 C.3       1 DXC75       0.0000 
      7 C7         26.9380   30.0350   19.1240 C.3       1 DXC75       0.0000 
      8 C8         26.9250   31.0810   18.0120 C.3       1 DXC75       0.0000 
      9 C9         28.2120   31.9450   18.0440 C.3       1 DXC75       0.0000 
     10 C10        28.4280   32.6020   19.4280 C.3       1 DXC75       0.0000 
     11 C11        28.1760   33.0190   16.9400 C.3       1 DXC75       0.0000 
     12 C12        29.4700   33.8350   16.8520 C.3       1 DXC75       0.0000 
     13 C13        29.6450   34.5350   18.2300 C.3       1 DXC75       0.0000 
     14 C14        29.6780   33.5190   19.3950 C.3       1 DXC75       0.0000 
     15 C15        27.9390   32.5360   15.4920 C.3       1 DXC75       0.0000 
     16 C16        28.4910   33.6520   14.6170 C.3       1 DXC75       0.0000 
     17 C17        29.0580   34.6890   15.6080 C.3       1 DXC75       0.0000 
     18 C18        29.6880   30.6480   20.3930 C.3       1 DXC75       0.0000 
     19 C19        30.1820   35.5230   14.9390 C.3       1 DXC75       0.0000 
     20 O1         28.5740   35.4490   18.5010 O.3       1 DXC75       0.0000 
     21 O2         24.9320   32.8580   22.6830 O.3       1 DXC75       0.0000 
     22 C20        30.6970   33.0090   16.5320 C.3       1 DXC75       0.0000 
     23 C21        29.7440   36.2030   13.6350 C.3       1 DXC75       0.0000 
     24 C22        28.6450   37.2230   13.8160 C.3       1 DXC75       0.0000 
     25 C23        29.1880   38.6250   13.9850 C.2       1 DXC75       0.0000 
     26 O3         29.7220   39.2080   13.0350 O.co2     1 DXC75       0.0000 
     27 O4         29.0690   39.1740   15.0790 O.co2     1 DXC75       0.0000 
     28 C24        30.7530   36.5410   15.9040 C.3       1 DXC75       0.0000 
     29 H          26.2281   31.2596   23.0382 H         1 DXC75       0.0000 
     30 H          25.7804   32.3082   20.2398 H         1 DXC75       0.0000 
     31 H          25.0575   30.8374   20.9136 H         1 DXC75       0.0000 
     32 H          27.2961   29.8652   21.2368 H         1 DXC75       0.0000 
     33 H          29.4415   32.8548   21.9790 H         1 DXC75       0.0000 
     34 H          28.7651   31.3802   22.6917 H         1 DXC75       0.0000 
     35 H          27.4717   33.3672   23.3746 H         1 DXC75       0.0000 
     36 H          27.1759   33.7826   21.6776 H         1 DXC75       0.0000 
     37 H          25.9837   29.5092   19.1420 H         1 DXC75       0.0000 
     38 H          27.7329   29.3134   18.9374 H         1 DXC75       0.0000 
     39 H          26.0640   31.7340   18.1348 H         1 DXC75       0.0000 
     40 H          26.8617   30.5861   17.0457 H         1 DXC75       0.0000 
     41 H          29.0607   31.2910   17.8465 H         1 DXC75       0.0000 
     42 H          27.5534   33.2539   19.6083 H         1 DXC75       0.0000 
     43 H          27.3763   33.7450   17.1645 H         1 DXC75       0.0000 
     44 H          30.5974   35.0522   18.2280 H         1 DXC75       0.0000 
     45 H          30.5701   32.8954   19.2978 H         1 DXC75       0.0000 
     46 H          29.7405   34.0638   20.3402 H         1 DXC75       0.0000 
     47 H          26.8953   32.4232   15.3270 H         1 DXC75       0.0000 
     48 H          28.4842   31.6386   15.3286 H         1 DXC75       0.0000 
     49 H          27.7065   34.0971   14.0534 H         1 DXC75       0.0000 
     50 H          29.2793   33.2822   14.0062 H         1 DXC75       0.0000 
     51 H          28.2407   35.3269   15.8985 H         1 DXC75       0.0000 
     52 H          30.9980   34.8187   14.6846 H         1 DXC75       0.0000 
     53 H          29.4091   35.4237   12.9294 H         1 DXC75       0.0000 
     54 H          30.6245   36.6885   13.1808 H         1 DXC75       0.0000 
     55 H          28.0466   36.9590   14.6982 H         1 DXC75       0.0000 
     56 H          27.9784   37.1969   12.9436 H         1 DXC75       0.0000 
     57 H          30.5407   31.1701   20.4118 H         1 DXC75       0.0000 
     58 H          29.7461   29.9655   21.1216 H         1 DXC75       0.0000 
     59 H          29.6682   30.1501   19.5260 H         1 DXC75       0.0000 
     60 H          31.5218   33.5724   16.4839 H         1 DXC75       0.0000 
     61 H          30.8622   32.3060   17.2237 H         1 DXC75       0.0000 
     62 H          30.6104   32.5405   15.6528 H         1 DXC75       0.0000 
     63 H          31.1472   36.1053   16.7132 H         1 DXC75       0.0000 
     64 H          31.4774   37.0866   15.4827 H         1 DXC75       0.0000 
     65 H          30.0545   37.1800   16.2261 H         1 DXC75       0.0000 
     66 H          28.4970   35.4691   19.4979 H         1 DXC75       0.0000 
     67 H          25.2750   33.6042   23.2536 H         1 DXC75       0.0000 
@<TRIPOS>BOND
     1    2    1 1    
     2    6    1 1    
     3   21    1 1    
     4   29    1 1    
     5    3    2 1    
     6   30    2 1    
     7   31    2 1    
     8    4    3 1    
     9    7    3 1    
    10   32    3 1    
    11    5    4 1    
    12   10    4 1    
    13   18    4 1    
    14    6    5 1    
    15   33    5 1    
    16   34    5 1    
    17   35    6 1    
    18   36    6 1    
    19    8    7 1    
    20   37    7 1    
    21   38    7 1    
    22    9    8 1    
    23   39    8 1    
    24   40    8 1    
    25   10    9 1    
    26   11    9 1    
    27   41    9 1    
    28   14   10 1    
    29   42   10 1    
    30   12   11 1    
    31   15   11 1    
    32   43   11 1    
    33   13   12 1    
    34   17   12 1    
    35   22   12 1    
    36   14   13 1    
    37   20   13 1    
    38   44   13 1    
    39   45   14 1    
    40   46   14 1    
    41   16   15 1    
    42   47   15 1    
    43   48   15 1    
    44   17   16 1    
    45   49   16 1    
    46   50   16 1    
    47   19   17 1    
    48   51   17 1    
    49   57   18 1    
    50   58   18 1    
    51   59   18 1    
    52   23   19 1    
    53   28   19 1    
    54   52   19 1    
    55   66   20 1    
    56   67   21 1    
    57   60   22 1    
    58   61   22 1    
    59   62   22 1    
    60   24   23 1    
    61   53   23 1    
    62   54   23 1    
    63   25   24 1    
    64   55   24 1    
    65   56   24 1    
    66   26   25 ar   
    67   27   25 ar   
    68   63   28 1    
    69   64   28 1    
    70   65   28 1    
@<TRIPOS>SUBSTRUCTURE
     1 DXC75       1 GROUP   
@<TRIPOS>SET

