#    Name: 3KAI_1_CAVITY_N1_ALL.mol2
#    Modification time : Tue Mar 11 06:40:09 2014

@<TRIPOS>MOLECULE
3KAI_1_CAVITY_N1_ALL.mol2
   73     0     6     0     0
SMALL
NO_CHARGES


@<TRIPOS>ATOM
      1 O          40.7569  -11.0513    9.9967 O.2       2 ALA2        0.0000 
      2 O          39.4488  -10.7323    8.3574 O.2       2 ALA2        0.0000 
      3 OG         39.1176  -11.4847    7.1027 O.2       1 SER1        0.0000 
      4 CA         42.2842  -12.4214   14.0017 C.3       5 GLY6        0.0000 
      5 CA         41.3073  -11.3501   13.6171 C.3       5 GLY6        0.0000 
      6 DU         42.9300  -14.2451   13.1315 H         6 CUB7        0.0000 
      7 DU         41.9530  -13.1738   12.7470 H         6 CUB7        0.0000 
      8 O          40.9761  -12.1025   12.3624 O.2       2 ALA2        0.0000 
      9 DU         42.5988  -14.9975   11.8768 H         6 CUB7        0.0000 
     10 DU         41.6218  -13.9262   11.4923 H         6 CUB7        0.0000 
     11 DU         40.6449  -12.8549   11.1077 H         6 CUB7        0.0000 
     12 OD1        39.6679  -11.7836   10.7232 O.3       3 ASP3        0.0000 
     13 DU         40.3137  -13.6072    9.8531 H         6 CUB7        0.0000 
     14 O          39.3368  -12.5359    9.4685 O.2       2 ALA2        0.0000 
     15 O          38.3598  -11.4646    9.0840 O.2       2 ALA2        0.0000 
     16 OG         39.0056  -13.2883    8.2138 O.2       1 SER1        0.0000 
     17 OG         41.1952  -13.1537   14.7282 O.2       1 SER1        0.0000 
     18 OG         40.2183  -12.0824   14.3437 O.2       1 SER1        0.0000 
     19 O          42.8179  -16.0487   14.2426 O.2       2 ALA2        0.0000 
     20 OG         41.8410  -14.9774   13.8581 O.2       1 SER1        0.0000 
     21 OG         40.8640  -13.9061   13.4735 O.2       1 SER1        0.0000 
     22 OG         39.8871  -12.8348   13.0890 O.2       1 SER1        0.0000 
     23 DU         43.4637  -17.8724   13.3724 H         6 CUB7        0.0000 
     24 DU         42.4868  -16.8011   12.9879 H         6 CUB7        0.0000 
     25 OG         41.5098  -15.7298   12.6034 O.2       1 SER1        0.0000 
     26 OG         40.5329  -14.6584   12.2188 O.2       1 SER1        0.0000 
     27 OD1        39.5559  -13.5871   11.8343 O.3       3 ASP3        0.0000 
     28 OD1        38.5790  -12.5158   11.4498 O.3       3 ASP3        0.0000 
     29 DU         43.1325  -18.6247   12.1178 H         6 CUB7        0.0000 
     30 DU         41.1786  -16.4821   11.3487 H         6 CUB7        0.0000 
     31 DU         40.2017  -15.4108   10.9641 H         6 CUB7        0.0000 
     32 DU         39.2247  -14.3395   10.5796 H         6 CUB7        0.0000 
     33 CA         38.2478  -13.2682   10.1951 C.3       5 GLY6        0.0000 
     34 CA         43.7783  -20.4484   11.2476 C.3       5 GLY6        0.0000 
     35 DU         41.8244  -18.3058   10.4785 H         6 CUB7        0.0000 
     36 CA         39.8705  -16.1632    9.7095 C.3       5 GLY6        0.0000 
     37 CA         38.8935  -15.0919    9.3249 C.3       5 GLY6        0.0000 
     38 CA         41.1620  -19.8106    7.9691 C.3       5 GLY6        0.0000 
     39 CA         43.3517  -19.6760   14.4835 C.3       5 GLY6        0.0000 
     40 CA         42.3747  -18.6047   14.0990 C.3       5 GLY6        0.0000 
     41 O          41.3978  -17.5333   13.7145 O.2       2 ALA2        0.0000 
     42 OG         40.4208  -16.4620   13.3299 O.2       1 SER1        0.0000 
     43 OG         39.4439  -15.3907   12.9454 O.2       1 SER1        0.0000 
     44 CA         38.4669  -14.3194   12.5609 C.3       5 GLY6        0.0000 
     45 O          43.0205  -20.4283   13.2288 O.2       2 ALA2        0.0000 
     46 DU         42.0435  -19.3570   12.8443 H         6 CUB7        0.0000 
     47 DU         41.0666  -18.2857   12.4598 H         6 CUB7        0.0000 
     48 DU         40.0896  -17.2144   12.0752 H         6 CUB7        0.0000 
     49 DU         39.1127  -16.1431   11.6907 H         6 CUB7        0.0000 
     50 CA         38.1357  -15.0718   11.3062 C.3       5 GLY6        0.0000 
     51 CA         41.7124  -20.1094   11.5896 C.3       5 GLY6        0.0000 
     52 CA         40.7354  -19.0381   11.2051 C.3       5 GLY6        0.0000 
     53 DU         39.7585  -17.9668   10.8205 H         6 CUB7        0.0000 
     54 CA         38.7815  -16.8955   10.4360 C.3       5 GLY6        0.0000 
     55 CA         40.4042  -19.7905    9.9504 C.3       5 GLY6        0.0000 
     56 CA         39.4273  -18.7192    9.5659 C.3       5 GLY6        0.0000 
     57 CA         38.4503  -17.6478    9.1813 C.3       5 GLY6        0.0000 
     58 CA         40.0730  -20.5428    8.6957 C.3       5 GLY6        0.0000 
     59 O          40.3088  -18.2656   14.4410 O.2       2 ALA2        0.0000 
     60 OG         39.3318  -17.1943   14.0565 O.2       1 SER1        0.0000 
     61 O          40.9546  -20.0893   13.5709 O.2       2 ALA2        0.0000 
     62 DU         39.9776  -19.0180   13.1863 H         6 CUB7        0.0000 
     63 OG         39.0007  -17.9467   12.8018 O.2       1 SER1        0.0000 
     64 CA         38.0237  -16.8754   12.4173 C.3       5 GLY6        0.0000 
     65 CA         40.6234  -20.8417   12.3162 C.3       5 GLY6        0.0000 
     66 DU         39.6464  -19.7704   11.9316 H         6 CUB7        0.0000 
     67 DU         38.6695  -18.6991   11.5471 H         6 CUB7        0.0000 
     68 N          37.6925  -17.6277   11.1626 N.2       2 ALA2        0.0000 
     69 CA         39.3152  -20.5227   10.6769 C.3       5 GLY6        0.0000 
     70 CA         38.3383  -19.4514   10.2924 C.3       5 GLY6        0.0000 
     71 CZ         38.8886  -19.7503   13.9129 C.ar      4 PHE5        0.0000 
     72 CZ         38.5574  -20.5026   12.6582 C.ar      4 PHE5        0.0000 
     73 O          37.5805  -19.4313   12.2737 O.2       2 ALA2        0.0000 
@<TRIPOS>BOND
@<TRIPOS>SUBSTRUCTURE
     1 SER1        3 GROUP   
     2 ALA2        1 GROUP   
     3 ASP3       12 GROUP   
     4 PHE5       71 GROUP   
     5 GLY6        4 GROUP   
     6 CUB7        6 GROUP   
@<TRIPOS>SET

