#    Name: 3kai_4FI_1_INTS_M
#    Modification time : Mon Mar 24 19:04:01 2014

@<TRIPOS>MOLECULE
3kai_4FI_1_INTS_M
   58     0     9     0     0
SMALL
NO_CHARGES


@<TRIPOS>ATOM
      1 CA         38.1880  -20.3775    9.7030 C.3       3 GLC5        0.0000 
      2 CA         38.9240  -18.7680   10.7350 C.3       9 GLL5        0.0000 
      3 CA         37.4520  -21.9870    8.6710 C.3       6 GLP5        0.0000 
      4 N          37.5385  -12.7990    7.4285 N.am      1 SEC2        0.0000 
      5 N          38.7960  -12.6310    8.5760 N.am      7 SEL2        0.0000 
      6 N          36.2810  -12.9670    6.2810 N.am      4 SEP2        0.0000 
      7 NZ         38.5345  -11.1470   11.5835 N.4       2 LYC4        0.0000 
      8 NZ         39.2970  -12.1070   10.5700 N.4       8 LYL4        0.0000 
      9 NZ         37.7720  -10.1870   12.5970 N.4       5 LYP4        0.0000 
     10 N          38.5345  -11.1470   11.5835 N.am      1 SEC2        0.0000 
     11 N          39.2970  -12.1070   10.5700 N.am      7 SEL2        0.0000 
     12 N          37.7720  -10.1870   12.5970 N.am      4 SEP2        0.0000 
     13 CA         37.5955  -16.6325    9.1700 C.3       3 GLC5        0.0000 
     14 CA         38.6290  -17.4510   10.4020 C.3       9 GLL5        0.0000 
     15 CA         36.5620  -15.8140    7.9380 C.3       6 GLP5        0.0000 
     16 CA         38.9605  -18.4255    6.9490 C.3       3 GLC5        0.0000 
     17 CA         40.3200  -16.6630    7.0190 C.3       9 GLL5        0.0000 
     18 CA         37.6010  -20.1880    6.8790 C.3       6 GLP5        0.0000 
     19 CA         38.7905  -14.2685    5.2475 C.3       3 GLC5        0.0000 
     20 CA         39.6900  -16.1940    5.9540 C.3       9 GLL5        0.0000 
     21 CA         37.8910  -12.3430    4.5410 C.3       6 GLP5        0.0000 
     22 CA         37.7435  -16.9000    5.3940 C.3       3 GLC5        0.0000 
     23 CA         35.7970  -17.6060    4.8340 C.3       6 GLP5        0.0000 
     24 CA         38.2955  -19.2590    4.9830 C.3       3 GLC5        0.0000 
     25 CA         38.9900  -18.3300    3.0870 C.3       9 GLL5        0.0000 
     26 CA         39.5485  -19.4700    7.2830 C.3       3 GLC5        0.0000 
     27 CA         41.4960  -18.7520    7.6870 C.3       9 GLL5        0.0000 
     28 CA         39.0255  -19.9955   16.2550 C.3       3 GLC5        0.0000 
     29 CA         40.3140  -19.6880   14.5580 C.3       9 GLL5        0.0000 
     30 CA         37.7370  -20.3030   17.9520 C.3       6 GLP5        0.0000 
     31 CA         41.2225  -22.3455   13.3775 C.3       3 GLC5        0.0000 
     32 CA         40.1460  -20.6980   13.6180 C.3       9 GLL5        0.0000 
     33 CA         42.2990  -23.9930   13.1370 C.3       6 GLP5        0.0000 
     34 CA         40.8620  -21.5655   11.4585 C.3       3 GLC5        0.0000 
     35 CA         39.6830  -20.3910   12.3440 C.3       9 GLL5        0.0000 
     36 CA         42.0410  -22.7400   10.5730 C.3       6 GLP5        0.0000 
     37 CA         37.1051  -15.1306   12.0783 C.3       3 GLC5        0.0000 
     38 CA         39.2600  -16.7480   12.6160 C.3       9 GLL5        0.0000 
     39 CA         35.4600  -14.4680   12.6800 C.3       6 GLP5        0.0000 
     40 CA         37.8161  -15.4434    9.2580 C.3       3 GLC5        0.0000 
     41 CA         38.4720  -14.9920   10.9740 C.3       9 GLL5        0.0000 
     42 CA         38.2835  -16.1212    7.2123 C.3       3 GLC5        0.0000 
     43 CA         38.2812  -14.1255    3.5353 C.3       3 GLC5        0.0000 
     44 CA         38.9360  -15.9250    3.1720 C.3       9 GLL5        0.0000 
     45 CA         36.9576  -16.4403    2.9379 C.3       3 GLC5        0.0000 
     46 CA         35.4950  -16.3880    4.0100 C.3       6 GLP5        0.0000 
     47 CA         36.4440  -18.2020    0.6985 C.3       3 GLC5        0.0000 
     48 CA         38.1690  -17.0770    1.2020 C.3       9 GLL5        0.0000 
     49 CA         34.5730  -18.7170   -0.1050 C.3       6 GLP5        0.0000 
     50 CA         37.2910  -17.8115    3.7249 C.3       3 GLC5        0.0000 
     51 CA         38.4610  -18.2970    1.8020 C.3       9 GLL5        0.0000 
     52 CA         38.9988  -16.4933   14.6758 C.3       3 GLC5        0.0000 
     53 CA         40.0190  -18.3710   14.2240 C.3       9 GLL5        0.0000 
     54 CA         38.2840  -15.0980   15.8480 C.3       6 GLP5        0.0000 
     55 CA         41.2356  -19.7304   15.4433 C.3       3 GLC5        0.0000 
     56 CA         42.3150  -19.5970   16.8820 C.3       6 GLP5        0.0000 
     57 CA         39.2478  -21.8055   14.3505 C.3       3 GLC5        0.0000 
     58 CA         38.5390  -23.3190   15.4850 C.3       6 GLP5        0.0000 
@<TRIPOS>BOND
@<TRIPOS>SUBSTRUCTURE
     1 SEC2        4 GROUP        1 X    SEC  0     ROOT SEC X 2
     2 LYC4        7 GROUP        1 X    LYC  0     **** LYC X 4
     3 GLC5        1 GROUP        1 X    GLC  0     **** GLC X 6
     4 SEP2        6 GROUP        1 Y    SEP  0     ROOT SEP Y 9
     5 LYP4        9 GROUP        1 Y    LYP  0     **** LYP Y 11
     6 GLP5        3 GROUP        1 Y    GLP  0     **** GLP Y 13
     7 SEL2        5 GROUP        1 Z    SEL  0     ROOT SEL Z 16
     8 LYL4        8 GROUP        1 Z    LYL  0     **** LYL Z 18
     9 GLL5        2 GROUP        1 Z    GLL  0     **** GLL Z 20
@<TRIPOS>SET

