#    Name: 4ihi_NAD_1_INTS_M
#    Modification time : Tue Mar 25 03:57:35 2014

@<TRIPOS>MOLECULE
4ihi_NAD_1_INTS_M
   98     0     9     0     0
SMALL
NO_CHARGES


@<TRIPOS>ATOM
      1 N         116.0120   26.1600  175.9860 N.am      2 SEC2        0.0000 
      2 N         117.2590   26.5610  175.3580 N.am      8 SEL2        0.0000 
      3 N         114.7650   25.7590  176.6140 N.am      5 SEP2        0.0000 
      4 N         117.1960   25.2985  175.8735 N.am      2 SEC2        0.0000 
      5 N         117.1330   24.0360  176.3890 N.am      5 SEP2        0.0000 
      6 N         118.4270   26.2115  176.1140 N.am      2 SEC2        0.0000 
      7 N         119.5950   25.8620  176.8700 N.am      5 SEP2        0.0000 
      8 CA        115.3965   30.5580  173.7350 C.3       3 GLC5        0.0000 
      9 CA        116.9930   29.4880  174.6520 C.3       9 GLL5        0.0000 
     10 CA        113.8000   31.6280  172.8180 C.3       6 GLP5        0.0000 
     11 CA        115.2830   28.6880  175.5620 C.3       3 GLC5        0.0000 
     12 CA        113.5730   27.8880  176.4720 C.3       6 GLP5        0.0000 
     13 CA        118.2165   31.9040  176.1535 C.3       3 GLC5        0.0000 
     14 CA        117.8620   30.7270  174.7690 C.3       9 GLL5        0.0000 
     15 CA        118.5710   33.0810  177.5380 C.3       6 GLP5        0.0000 
     16 CA        117.6245   32.1300  171.7305 C.3       3 GLC5        0.0000 
     17 CA        118.4750   31.1640  173.4040 C.3       9 GLL5        0.0000 
     18 CA        116.7740   33.0960  170.0570 C.3       6 GLP5        0.0000 
     19 O         117.1875   32.9485  173.3955 O.2       1 ALC1        0.0000 
     20 O         118.4780   32.5950  173.2490 O.2       7 ALL1        0.0000 
     21 O         115.8970   33.3020  173.5420 O.2       4 ALP1        0.0000 
     22 N         120.8630   32.6975  172.5510 N.am      2 SEC2        0.0000 
     23 N         120.6930   31.3220  172.5100 N.am      8 SEL2        0.0000 
     24 N         121.0330   34.0730  172.5920 N.am      5 SEP2        0.0000 
     25 CA        119.3495   32.0020  176.2270 C.3       3 GLC5        0.0000 
     26 CA        120.1280   30.9230  174.9160 C.3       9 GLL5        0.0000 
     27 CA        123.1260   30.2085  180.0030 C.3       3 GLC5        0.0000 
     28 CA        123.8240   30.1750  177.9900 C.3       9 GLL5        0.0000 
     29 CA        122.4280   30.2420  182.0160 C.3       6 GLP5        0.0000 
     30 N         124.3110   32.1760  179.3720 N.am      2 SEC2        0.0000 
     31 N         123.8900   31.4580  178.4080 N.am      8 SEL2        0.0000 
     32 N         124.7320   32.8940  180.3360 N.am      5 SEP2        0.0000 
     33 CA        121.5890   32.9250  178.9960 C.3       3 GLC5        0.0000 
     34 CA        123.0610   32.3670  177.8690 C.3       9 GLL5        0.0000 
     35 CA        120.1170   33.4830  180.1230 C.3       6 GLP5        0.0000 
     36 CA        124.0355   33.2105  176.5135 C.3       3 GLC5        0.0000 
     37 CA        125.0100   34.0540  175.1580 C.3       6 GLP5        0.0000 
     38 CA        124.5535   32.6230  179.4000 C.3       3 GLC5        0.0000 
     39 CA        126.0460   32.8790  180.9310 C.3       6 GLP5        0.0000 
     40 CA        120.2790   31.9510  177.0130 C.3       3 GLC5        0.0000 
     41 CA        121.9870   30.8210  176.4880 C.3       9 GLL5        0.0000 
     42 N         115.1875   26.4005  175.0785 N.am      2 SEC2        0.0000 
     43 N         115.6100   27.0420  173.5430 N.am      8 SEL2        0.0000 
     44 N         114.5755   30.0990  171.0595 N.am      2 SEC2        0.0000 
     45 N         115.3220   28.9500  171.7190 N.am      8 SEL2        0.0000 
     46 N         113.8290   31.2480  170.4000 N.am      5 SEP2        0.0000 
     47 CA        112.5635   28.6150  172.8325 C.3       3 GLC5        0.0000 
     48 CA        112.4520   26.5200  172.4060 C.3       9 GLL5        0.0000 
     49 CA        112.6750   30.7100  173.2590 C.3       6 GLP5        0.0000 
     50 CA        112.7600   26.8165  170.4410 C.3       3 GLC5        0.0000 
     51 CA        113.0680   27.1130  168.4760 C.3       6 GLP5        0.0000 
     52 CA        113.7315   24.9170  175.1810 C.3       3 GLC5        0.0000 
     53 CA        112.6310   25.5390  173.5140 C.3       9 GLL5        0.0000 
     54 CA        114.8320   24.2950  176.8480 C.3       6 GLP5        0.0000 
     55 CA        110.9360   22.7495  173.2165 C.3       3 GLC5        0.0000 
     56 CA        111.7610   24.3170  173.3610 C.3       9 GLL5        0.0000 
     57 CA        110.1110   21.1820  173.0720 C.3       6 GLP5        0.0000 
     58 CA        108.2625   25.4275  173.6130 C.3       3 GLC5        0.0000 
     59 CA        110.4340   24.9020  173.8420 C.3       9 GLL5        0.0000 
     60 CA        106.0910   25.9530  173.3840 C.3       6 GLP5        0.0000 
     61 CA        109.8070   23.3605  173.0665 C.3       3 GLC5        0.0000 
     62 CA        109.1800   21.8190  172.2910 C.3       6 GLP5        0.0000 
     63 O         108.0895   23.9045  174.2735 O.2       1 ALC1        0.0000 
     64 O         109.5100   23.9680  174.3980 O.2       7 ALL1        0.0000 
     65 O         106.6690   23.8410  174.1490 O.2       4 ALP1        0.0000 
     66 CA        112.1900   26.8915  175.7075 C.3       3 GLC5        0.0000 
     67 CA        110.8070   25.8950  174.9430 C.3       9 GLL5        0.0000 
     68 CA        109.0860   24.8790  176.6815 C.3       3 GLC5        0.0000 
     69 CA        108.9670   26.8670  176.0780 C.3       9 GLL5        0.0000 
     70 CA        109.2050   22.8910  177.2850 C.3       6 GLP5        0.0000 
     71 O         107.8580   25.6300  178.6940 O.2       1 ALC1        0.0000 
     72 O         107.1600   26.6720  178.2670 O.2       7 ALL1        0.0000 
     73 O         108.5560   24.5880  179.1210 O.2       4 ALP1        0.0000 
     74 CA        110.1370   30.3220  173.9815 C.3       3 GLC5        0.0000 
     75 CA        108.7090   28.9360  174.2490 C.3       9 GLL5        0.0000 
     76 CA        111.5650   31.7080  173.7140 C.3       6 GLP5        0.0000 
     77 CA        111.1935   29.3475  173.6960 C.3       3 GLC5        0.0000 
     78 CA        109.7120   27.9850  174.1330 C.3       9 GLL5        0.0000 
     79 CA        107.9015   26.9690  173.7585 C.3       3 GLC5        0.0000 
     80 CA        117.1118   29.8428  176.7842 C.3       3 GLC5        0.0000 
     81 CA        116.7960   29.5780  178.8580 C.3       6 GLP5        0.0000 
     82 CA        120.5179   32.7206  174.0834 C.3       3 GLC5        0.0000 
     83 CA        121.3850   34.5310  173.9930 C.3       6 GLP5        0.0000 
     84 CA        121.0753   29.0400  177.5593 C.3       3 GLC5        0.0000 
     85 CA        119.7330   27.7900  178.3760 C.3       6 GLP5        0.0000 
     86 CA        113.0572   26.9588  174.7160 C.3       3 GLC5        0.0000 
     87 CA        109.9128   24.1448  175.8388 C.3       3 GLC5        0.0000 
     88 CA        109.2005   28.8395  176.7140 C.3       3 GLC5        0.0000 
     89 CA        109.9380   30.3540  177.2660 C.3       6 GLP5        0.0000 
     90 CA        106.9155   26.9665  175.3445 C.3       3 GLC5        0.0000 
     91 CA        107.9590   27.7830  176.2460 C.3       9 GLL5        0.0000 
     92 CA        105.3680   26.6080  174.5270 C.3       6 GLP5        0.0000 
     93 CA        107.7123   30.6200  174.9013 C.3       3 GLC5        0.0000 
     94 CA        107.8240   28.8300  175.3100 C.3       9 GLL5        0.0000 
     95 CA        107.1580   32.3570  175.0230 C.3       6 GLP5        0.0000 
     96 CA        106.7397   28.6155  174.6033 C.3       3 GLC5        0.0000 
     97 CA        105.2130   28.3480  174.4270 C.3       6 GLP5        0.0000 
     98 CA        109.4636   29.3940  175.8611 C.3       3 GLC5        0.0000 
@<TRIPOS>BOND
@<TRIPOS>SUBSTRUCTURE
     1 ALC1       19 GROUP        1 X    ALC  0     ROOT ALC X 1
     2 SEC2        1 GROUP        1 X    SEC  0     **** SEC X 2
     3 GLC5        8 GROUP        1 X    GLC  0     **** GLC X 6
     4 ALP1       21 GROUP        1 Y    ALP  0     ROOT ALP Y 8
     5 SEP2        3 GROUP        1 Y    SEP  0     **** SEP Y 9
     6 GLP5       10 GROUP        1 Y    GLP  0     **** GLP Y 13
     7 ALL1       20 GROUP        1 Z    ALL  0     ROOT ALL Z 15
     8 SEL2        2 GROUP        1 Z    SEL  0     **** SEL Z 16
     9 GLL5        9 GROUP        1 Z    GLL  0     **** GLL Z 20
@<TRIPOS>SET

