#    Name: 4ihi_NAD_1_ligand
#    Modification time : Tue Mar 25 03:57:35 2014

@<TRIPOS>MOLECULE
4ihi_NAD_1_ligand
   70    74     1     0     0
SMALL
NO_CHARGES


@<TRIPOS>ATOM
      1 PA        117.2060   26.9820  173.9170 P.3       1 NAD601      0.0000 
      2 O1A       117.2590   26.5610  175.3580 O.co2     1 NAD601      0.0000 
      3 O2A       118.0410   26.3280  172.9100 O.co2     1 NAD601      0.0000 
      4 O5B       117.6540   28.5250  173.8160 O.3       1 NAD601      0.0000 
      5 C5B       116.9930   29.4880  174.6520 C.3       1 NAD601      0.0000 
      6 C4B       117.8620   30.7270  174.7690 C.3       1 NAD601      0.0000 
      7 O4B       118.9640   30.4650  175.6450 O.3       1 NAD601      0.0000 
      8 C3B       118.4750   31.1640  173.4040 C.3       1 NAD601      0.0000 
      9 O3B       118.4780   32.5950  173.2490 O.3       1 NAD601      0.0000 
     10 C2B       119.8720   30.6310  173.4590 C.3       1 NAD601      0.0000 
     11 O2B       120.6930   31.3220  172.5100 O.3       1 NAD601      0.0000 
     12 C1B       120.1280   30.9230  174.9160 C.3       1 NAD601      0.0000 
     13 N9A       121.1820   30.2240  175.6180 N.pl3     1 NAD601      0.0000 
     14 C8A       121.4590   28.8810  175.5500 C.2       1 NAD601      0.0000 
     15 N7A       122.4560   28.6050  176.3970 N.2       1 NAD601      0.0000 
     16 C5A       122.8480   29.7590  176.9970 C.ar      1 NAD601      0.0000 
     17 C6A       123.8240   30.1750  177.9900 C.ar      1 NAD601      0.0000 
     18 N6A       124.6480   29.2480  178.5130 N.pl3     1 NAD601      0.0000 
     19 N1A       123.8900   31.4580  178.4080 N.ar      1 NAD601      0.0000 
     20 C2A       123.0610   32.3670  177.8690 C.ar      1 NAD601      0.0000 
     21 N3A       122.1450   32.0550  176.9310 N.ar      1 NAD601      0.0000 
     22 C4A       121.9870   30.8210  176.4880 C.ar      1 NAD601      0.0000 
     23 O3        115.6100   27.0420  173.5430 O.3       1 NAD601      0.0000 
     24 PN        115.0590   27.4910  172.1040 P.3       1 NAD601      0.0000 
     25 O1N       115.5820   26.4360  171.1910 O.co2     1 NAD601      0.0000 
     26 O2N       115.3220   28.9500  171.7190 O.co2     1 NAD601      0.0000 
     27 O5D       113.4790   27.4150  172.0480 O.3       1 NAD601      0.0000 
     28 C5D       112.4520   26.5200  172.4060 C.3       1 NAD601      0.0000 
     29 C4D       112.6310   25.5390  173.5140 C.3       1 NAD601      0.0000 
     30 O4D       112.0890   26.2950  174.5990 O.3       1 NAD601      0.0000 
     31 C3D       111.7610   24.3170  173.3610 C.3       1 NAD601      0.0000 
     32 O3D       112.2360   23.2450  174.2060 O.3       1 NAD601      0.0000 
     33 C2D       110.4340   24.9020  173.8420 C.3       1 NAD601      0.0000 
     34 O2D       109.5100   23.9680  174.3980 O.3       1 NAD601      0.0000 
     35 C1D       110.8070   25.8950  174.9430 C.3       1 NAD601      0.0000 
     36 N1N       109.8160   26.9770  175.0380 N.pl3     1 NAD601      0.0000 
     37 C2N       108.9670   26.8670  176.0780 C.ar      1 NAD601      0.0000 
     38 C3N       107.9590   27.7830  176.2460 C.ar      1 NAD601      0.0000 
     39 C7N       107.0250   27.6850  177.4120 C.2       1 NAD601      0.0000 
     40 O7N       106.1870   28.5710  177.5400 O.2       1 NAD601      0.0000 
     41 N7N       107.1600   26.6720  178.2670 N.am      1 NAD601      0.0000 
     42 C4N       107.8240   28.8300  175.3100 C.ar      1 NAD601      0.0000 
     43 C5N       108.7090   28.9360  174.2490 C.ar      1 NAD601      0.0000 
     44 C6N       109.7120   27.9850  174.1330 C.ar      1 NAD601      0.0000 
     45 H         116.8221   29.0947  175.6582 H         1 NAD601      0.0000 
     46 H         116.0277   29.7864  174.2332 H         1 NAD601      0.0000 
     47 H         117.2729   31.5483  175.1359 H         1 NAD601      0.0000 
     48 H         117.9402   30.6563  172.6391 H         1 NAD601      0.0000 
     49 H         119.8153   29.5846  173.3279 H         1 NAD601      0.0000 
     50 H         120.2056   31.9877  175.0751 H         1 NAD601      0.0000 
     51 H         120.9974   28.2554  174.9774 H         1 NAD601      0.0000 
     52 H         124.5564   28.3216  178.1477 H         1 NAD601      0.0000 
     53 H         125.2783   29.5683  179.2202 H         1 NAD601      0.0000 
     54 H         123.1288   33.3762  178.1949 H         1 NAD601      0.0000 
     55 H         112.1177   25.9180  171.4811 H         1 NAD601      0.0000 
     56 H         111.4851   27.1052  172.6345 H         1 NAD601      0.0000 
     57 H         113.6218   25.3106  173.6610 H         1 NAD601      0.0000 
     58 H         111.6792   24.0839  172.3484 H         1 NAD601      0.0000 
     59 H         110.0056   25.4818  173.0412 H         1 NAD601      0.0000 
     60 H         110.8178   25.3124  175.8681 H         1 NAD601      0.0000 
     61 H         109.0662   26.0898  176.7618 H         1 NAD601      0.0000 
     62 H         106.5285   26.6634  179.0423 H         1 NAD601      0.0000 
     63 H         107.8807   26.0115  178.0564 H         1 NAD601      0.0000 
     64 H         107.0631   29.5107  175.4252 H         1 NAD601      0.0000 
     65 H         108.6258   29.6914  173.5724 H         1 NAD601      0.0000 
     66 H         110.3826   28.0550  173.3437 H         1 NAD601      0.0000 
     67 H         117.5295   32.8735  173.4000 H         1 NAD601      0.0000 
     68 H         121.5246   30.7713  172.4379 H         1 NAD601      0.0000 
     69 H         111.4229   22.7028  174.4176 H         1 NAD601      0.0000 
     70 H         108.6093   24.2909  174.1074 H         1 NAD601      0.0000 
@<TRIPOS>BOND
     1    2    1 ar   
     2    3    1 ar   
     3    4    1 1    
     4   23    1 1    
     5    5    4 1    
     6    6    5 1    
     7   45    5 1    
     8   46    5 1    
     9    7    6 1    
    10    8    6 1    
    11   47    6 1    
    12   12    7 1    
    13    9    8 1    
    14   10    8 1    
    15   48    8 1    
    16   67    9 1    
    17   11   10 1    
    18   12   10 1    
    19   49   10 1    
    20   68   11 1    
    21   13   12 1    
    22   50   12 1    
    23   14   13 1    
    24   22   13 1    
    25   15   14 2    
    26   51   14 1    
    27   16   15 1    
    28   17   16 ar   
    29   22   16 ar   
    30   18   17 1    
    31   19   17 ar   
    32   52   18 1    
    33   53   18 1    
    34   20   19 ar   
    35   21   20 ar   
    36   54   20 1    
    37   22   21 ar   
    38   24   23 1    
    39   25   24 ar   
    40   26   24 ar   
    41   27   24 1    
    42   28   27 1    
    43   29   28 1    
    44   55   28 1    
    45   56   28 1    
    46   30   29 1    
    47   31   29 1    
    48   57   29 1    
    49   35   30 1    
    50   32   31 1    
    51   33   31 1    
    52   58   31 1    
    53   69   32 1    
    54   34   33 1    
    55   35   33 1    
    56   59   33 1    
    57   70   34 1    
    58   36   35 1    
    59   60   35 1    
    60   37   36 ar   
    61   44   36 ar   
    62   38   37 ar   
    63   61   37 1    
    64   39   38 1    
    65   42   38 ar   
    66   40   39 2    
    67   41   39 am   
    68   62   41 1    
    69   63   41 1    
    70   43   42 ar   
    71   64   42 1    
    72   44   43 ar   
    73   65   43 1    
    74   66   44 1    
@<TRIPOS>SUBSTRUCTURE
     1 NAD601      1 GROUP   
@<TRIPOS>SET

