#    Name: 3q6i_NAD_2_INTS_M
#    Modification time : Tue Mar 25 08:59:30 2014

@<TRIPOS>MOLECULE
3q6i_NAD_2_INTS_M
   86     0     9     0     0
SMALL
NO_CHARGES


@<TRIPOS>ATOM
      1 CA         27.1140   31.8645   -3.6235 C.3       3 GLC5        0.0000 
      2 CA         27.4140   31.2430   -1.8460 C.3       9 GLL5        0.0000 
      3 CA         26.8140   32.4860   -5.4010 C.3       6 GLP5        0.0000 
      4 CA         30.1420   31.6875   -0.4860 C.3       3 GLC5        0.0000 
      5 CA         28.2240   32.1220   -0.8900 C.3       9 GLL5        0.0000 
      6 CA         32.0600   31.2530   -0.0820 C.3       6 GLP5        0.0000 
      7 O          28.9375   34.1730   -2.0560 O.2       1 ALC1        0.0000 
      8 O          29.3370   32.6380   -1.5930 O.2       7 ALL1        0.0000 
      9 O          28.5380   35.7080   -2.5190 O.2       4 ALP1        0.0000 
     10 O          28.2315   35.1020   -1.4545 O.2       1 ALC1        0.0000 
     11 O          27.9250   34.4960   -0.3900 O.2       7 ALL1        0.0000 
     12 CA         26.5680   32.8735   -3.5300 C.3       3 GLC5        0.0000 
     13 CA         26.3220   33.2610   -1.6590 C.3       9 GLL5        0.0000 
     14 CA         21.9240   37.9725   -2.8675 C.3       3 GLC5        0.0000 
     15 CA         22.3110   35.9730   -2.1630 C.3       9 GLL5        0.0000 
     16 CA         21.5370   39.9720   -3.5720 C.3       6 GLP5        0.0000 
     17 CA         21.0760   35.6495   -3.4450 C.3       3 GLC5        0.0000 
     18 CA         19.8410   35.3260   -4.7270 C.3       6 GLP5        0.0000 
     19 O          20.4730   37.4680   -1.7470 O.2       1 ALC1        0.0000 
     20 O          21.2520   36.4480   -1.5050 O.2       7 ALL1        0.0000 
     21 O          19.6940   38.4880   -1.9890 O.2       4 ALP1        0.0000 
     22 N          21.5765   37.3750   -4.0860 N.am      2 SEC2        0.0000 
     23 N          22.7040   36.5730   -3.3560 N.am      8 SEL2        0.0000 
     24 N          20.4490   38.1770   -4.8160 N.am      5 SEP2        0.0000 
     25 CA         25.7090   36.8790   -4.5190 C.3       3 GLC5        0.0000 
     26 CA         23.9190   36.2640   -3.9370 C.3       9 GLL5        0.0000 
     27 CA         27.4990   37.4940   -5.1010 C.3       6 GLP5        0.0000 
     28 CA         24.1200   37.4650   -2.6180 C.3       3 GLC5        0.0000 
     29 CA         24.3210   38.6660   -1.2990 C.3       6 GLP5        0.0000 
     30 CA         22.7280   38.1180   -3.7545 C.3       3 GLC5        0.0000 
     31 CA         22.5160   36.0430   -5.3665 C.3       3 GLC5        0.0000 
     32 CA         21.1130   35.8220   -6.7960 C.3       6 GLP5        0.0000 
     33 CA         23.4400   34.2170   -4.3400 C.3       3 GLC5        0.0000 
     34 CA         22.9610   32.1700   -4.7430 C.3       6 GLP5        0.0000 
     35 N          30.4970   25.9230   -2.7610 N.am      2 SEC2        0.0000 
     36 N          29.3430   26.0430   -1.5770 N.am      8 SEL2        0.0000 
     37 N          31.6510   25.8030   -3.9450 N.am      5 SEP2        0.0000 
     38 CA         28.1205   25.2205   -3.7670 C.3       3 GLC5        0.0000 
     39 CA         26.5310   25.9480   -2.7580 C.3       9 GLL5        0.0000 
     40 CA         29.7100   24.4930   -4.7760 C.3       6 GLP5        0.0000 
     41 CA         24.9045   24.2340   -4.8445 C.3       3 GLC5        0.0000 
     42 CA         25.1310   25.4440   -3.1670 C.3       9 GLL5        0.0000 
     43 CA         24.6780   23.0240   -6.5220 C.3       6 GLP5        0.0000 
     44 CA         22.9565   27.4270   -1.8700 C.3       3 GLC5        0.0000 
     45 CA         24.0040   25.8500   -2.2270 C.3       9 GLL5        0.0000 
     46 CA         21.9090   29.0040   -1.5130 C.3       6 GLP5        0.0000 
     47 N          21.6995   25.2145   -3.1080 N.am      2 SEC2        0.0000 
     48 N          22.8440   26.1450   -2.9710 N.am      8 SEL2        0.0000 
     49 N          20.5550   24.2840   -3.2450 N.am      5 SEP2        0.0000 
     50 O          23.2870   27.0890   -3.9150 O.2       1 ALC1        0.0000 
     51 O          22.8440   26.1450   -2.9710 O.2       7 ALL1        0.0000 
     52 O          23.7300   28.0330   -4.8590 O.2       4 ALP1        0.0000 
     53 CA         21.5990   24.3695   -1.8630 C.3       3 GLC5        0.0000 
     54 CA         23.7810   24.5930   -1.4150 C.3       9 GLL5        0.0000 
     55 CA         19.4170   24.1460   -2.3110 C.3       6 GLP5        0.0000 
     56 N          21.5130   24.4230   -2.0675 N.am      2 SEC2        0.0000 
     57 N          22.4710   24.5620   -0.8900 N.am      8 SEL2        0.0000 
     58 O          22.0160   23.5700   -0.1745 O.2       1 ALC1        0.0000 
     59 O          22.4710   24.5620   -0.8900 O.2       7 ALL1        0.0000 
     60 O          21.5610   22.5780    0.5410 O.2       4 ALP1        0.0000 
     61 CA         24.3895   23.2440   -4.4580 C.3       3 GLC5        0.0000 
     62 CA         24.1010   23.4640   -2.3940 C.3       9 GLL5        0.0000 
     63 CA         27.7165   19.5035   -1.4870 C.3       3 GLC5        0.0000 
     64 CA         26.2280   20.8860   -0.5810 C.3       9 GLL5        0.0000 
     65 CA         29.2050   18.1210   -2.3930 C.3       6 GLP5        0.0000 
     66 N          28.9265   18.2905    0.5290 N.am      2 SEC2        0.0000 
     67 N          27.9380   19.6770    0.8470 N.am      8 SEL2        0.0000 
     68 N          29.9150   16.9040    0.2110 N.am      5 SEP2        0.0000 
     69 CA         24.4725   20.3990   -3.2165 C.3       3 GLC5        0.0000 
     70 CA         23.6450   21.2320   -1.4600 C.3       9 GLL5        0.0000 
     71 CA         25.3000   19.5660   -4.9730 C.3       6 GLP5        0.0000 
     72 CA         23.3652   33.5335   -3.2945 C.3       3 GLC5        0.0000 
     73 CA         23.1630   35.0440   -1.5440 C.3       9 GLL5        0.0000 
     74 CA         21.1470   34.0928   -1.5103 C.3       3 GLC5        0.0000 
     75 CA         19.5570   32.6770   -1.1670 C.3       6 GLP5        0.0000 
     76 CA         23.9388   36.8976   -1.6499 C.3       3 GLC5        0.0000 
     77 CA         27.3870   21.8987   -2.4078 C.3       3 GLC5        0.0000 
     78 CA         25.8500   22.0590   -1.2520 C.3       9 GLL5        0.0000 
     79 CA         28.7350   22.3250   -3.8990 C.3       6 GLP5        0.0000 
     80 CA         25.8815   20.0033   -2.4792 C.3       3 GLC5        0.0000 
     81 CA         25.7240   18.5340   -4.0420 C.3       6 GLP5        0.0000 
     82 CA         25.1788   19.2510   -2.3053 C.3       3 GLC5        0.0000 
     83 CA         25.2860   19.8820   -0.3520 C.3       9 GLL5        0.0000 
     84 CA         21.9920   20.1205   -1.4263 C.3       3 GLC5        0.0000 
     85 CA         23.9810   20.0540   -0.7850 C.3       9 GLL5        0.0000 
     86 CA         20.1710   19.5980   -1.7300 C.3       6 GLP5        0.0000 
@<TRIPOS>BOND
@<TRIPOS>SUBSTRUCTURE
     1 ALC1        7 GROUP        1 X    ALC  0     ROOT ALC X 1
     2 SEC2       22 GROUP        1 X    SEC  0     **** SEC X 2
     3 GLC5        1 GROUP        1 X    GLC  0     **** GLC X 6
     4 ALP1        9 GROUP        1 Y    ALP  0     ROOT ALP Y 8
     5 SEP2       24 GROUP        1 Y    SEP  0     **** SEP Y 9
     6 GLP5        3 GROUP        1 Y    GLP  0     **** GLP Y 13
     7 ALL1        8 GROUP        1 Z    ALL  0     ROOT ALL Z 15
     8 SEL2       23 GROUP        1 Z    SEL  0     **** SEL Z 16
     9 GLL5        2 GROUP        1 Z    GLL  0     **** GLL Z 20
@<TRIPOS>SET

