#    Name: 3q6i_NAD_2_ligand
#    Modification time : Tue Mar 25 08:59:30 2014

@<TRIPOS>MOLECULE
3q6i_NAD_2_ligand
   70    74     1     0     0
SMALL
NO_CHARGES


@<TRIPOS>ATOM
      1 PA         28.3710   28.5290    0.3790 P.3       1 NAD3        0.0000 
      2 O1A        27.3140   29.1460    1.2490 O.co2     1 NAD3        0.0000 
      3 O2A        29.7620   28.9070    0.7180 O.co2     1 NAD3        0.0000 
      4 O5B        28.1020   29.0140   -1.1200 O.3       1 NAD3        0.0000 
      5 C5B        27.0050   29.8860   -1.2890 C.3       1 NAD3        0.0000 
      6 C4B        27.4140   31.2430   -1.8460 C.3       1 NAD3        0.0000 
      7 O4B        26.2130   31.9290   -2.1140 O.3       1 NAD3        0.0000 
      8 C3B        28.2240   32.1220   -0.8900 C.3       1 NAD3        0.0000 
      9 O3B        29.3370   32.6380   -1.5930 O.3       1 NAD3        0.0000 
     10 C2B        27.2830   33.2450   -0.4850 C.3       1 NAD3        0.0000 
     11 O2B        27.9250   34.4960   -0.3900 O.3       1 NAD3        0.0000 
     12 C1B        26.3220   33.2610   -1.6590 C.3       1 NAD3        0.0000 
     13 N9A        24.9980   33.8270   -1.3460 N.pl3     1 NAD3        0.0000 
     14 C8A        24.1860   33.5410   -0.2790 C.2       1 NAD3        0.0000 
     15 N7A        23.0720   34.2900   -0.4140 N.2       1 NAD3        0.0000 
     16 C5A        23.1630   35.0440   -1.5440 C.ar      1 NAD3        0.0000 
     17 C6A        22.3110   35.9730   -2.1630 C.ar      1 NAD3        0.0000 
     18 N6A        21.2520   36.4480   -1.5050 N.pl3     1 NAD3        0.0000 
     19 N1A        22.7040   36.5730   -3.3560 N.ar      1 NAD3        0.0000 
     20 C2A        23.9190   36.2640   -3.9370 C.ar      1 NAD3        0.0000 
     21 N3A        24.7450   35.3460   -3.3180 N.ar      1 NAD3        0.0000 
     22 C4A        24.3760   34.7500   -2.1480 C.ar      1 NAD3        0.0000 
     23 O3         28.2150   26.9150    0.5050 O.3       1 NAD3        0.0000 
     24 PN         28.2040   25.7800   -0.6480 P.3       1 NAD3        0.0000 
     25 O1N        28.1520   24.4640    0.0480 O.co2     1 NAD3        0.0000 
     26 O2N        29.3430   26.0430   -1.5770 O.co2     1 NAD3        0.0000 
     27 O5D        26.7590   26.0710   -1.3520 O.3       1 NAD3        0.0000 
     28 C5D        26.5310   25.9480   -2.7580 C.3       1 NAD3        0.0000 
     29 C4D        25.1310   25.4440   -3.1670 C.3       1 NAD3        0.0000 
     30 O4D        25.0810   24.0230   -3.2550 O.3       1 NAD3        0.0000 
     31 C3D        24.0040   25.8500   -2.2270 C.3       1 NAD3        0.0000 
     32 O3D        22.8440   26.1450   -2.9710 O.3       1 NAD3        0.0000 
     33 C2D        23.7810   24.5930   -1.4150 C.3       1 NAD3        0.0000 
     34 O2D        22.4710   24.5620   -0.8900 O.3       1 NAD3        0.0000 
     35 C1D        24.1010   23.4640   -2.3940 C.3       1 NAD3        0.0000 
     36 N1N        24.5580   22.2320   -1.6940 N.pl3     1 NAD3        0.0000 
     37 C2N        25.8500   22.0590   -1.2520 C.ar      1 NAD3        0.0000 
     38 C3N        26.2280   20.8860   -0.5810 C.ar      1 NAD3        0.0000 
     39 C7N        27.4670   20.8930    0.2710 C.2       1 NAD3        0.0000 
     40 O7N        27.9380   19.6770    0.8470 O.2       1 NAD3        0.0000 
     41 N7N        28.0670   22.0720    0.4600 N.am      1 NAD3        0.0000 
     42 C4N        25.2860   19.8820   -0.3520 C.ar      1 NAD3        0.0000 
     43 C5N        23.9810   20.0540   -0.7850 C.ar      1 NAD3        0.0000 
     44 C6N        23.6450   21.2320   -1.4600 C.ar      1 NAD3        0.0000 
     45 H          26.4739   30.0691   -0.3305 H         1 NAD3        0.0000 
     46 H          26.2448   29.4614   -1.9792 H         1 NAD3        0.0000 
     47 H          27.9736   31.0980   -2.7497 H         1 NAD3        0.0000 
     48 H          28.4757   31.5527   -0.0431 H         1 NAD3        0.0000 
     49 H          26.7471   32.9482    0.3701 H         1 NAD3        0.0000 
     50 H          26.7970   33.8709   -2.4458 H         1 NAD3        0.0000 
     51 H          24.3837   32.9250    0.4217 H         1 NAD3        0.0000 
     52 H          20.7111   37.1401   -1.9829 H         1 NAD3        0.0000 
     53 H          21.0943   36.0692   -0.5931 H         1 NAD3        0.0000 
     54 H          24.2032   36.7098   -4.8150 H         1 NAD3        0.0000 
     55 H          27.2738   25.2550   -3.2295 H         1 NAD3        0.0000 
     56 H          26.6871   26.9262   -3.2806 H         1 NAD3        0.0000 
     57 H          24.8945   25.8733   -4.1542 H         1 NAD3        0.0000 
     58 H          24.3387   26.6127   -1.6007 H         1 NAD3        0.0000 
     59 H          24.5460   24.5780   -0.6475 H         1 NAD3        0.0000 
     60 H          23.1870   23.2652   -2.9447 H         1 NAD3        0.0000 
     61 H          26.5588   22.7949   -1.4105 H         1 NAD3        0.0000 
     62 H          27.6573   22.8544   -0.0090 H         1 NAD3        0.0000 
     63 H          28.8718   22.0660    1.0535 H         1 NAD3        0.0000 
     64 H          25.5628   19.0224    0.1350 H         1 NAD3        0.0000 
     65 H          23.2745   19.3386   -0.6176 H         1 NAD3        0.0000 
     66 H          22.6602   21.3461   -1.7948 H         1 NAD3        0.0000 
     67 H          29.3309   33.6196   -1.4023 H         1 NAD3        0.0000 
     68 H          27.6442   34.9939   -1.2106 H         1 NAD3        0.0000 
     69 H          23.1424   26.7977   -3.6674 H         1 NAD3        0.0000 
     70 H          22.4035   23.6847   -0.4147 H         1 NAD3        0.0000 
@<TRIPOS>BOND
     1    2    1 ar   
     2    3    1 ar   
     3    4    1 1    
     4   23    1 1    
     5    5    4 1    
     6    6    5 1    
     7   45    5 1    
     8   46    5 1    
     9    7    6 1    
    10    8    6 1    
    11   47    6 1    
    12   12    7 1    
    13    9    8 1    
    14   10    8 1    
    15   48    8 1    
    16   67    9 1    
    17   11   10 1    
    18   12   10 1    
    19   49   10 1    
    20   68   11 1    
    21   13   12 1    
    22   50   12 1    
    23   14   13 1    
    24   22   13 1    
    25   15   14 2    
    26   51   14 1    
    27   16   15 1    
    28   17   16 ar   
    29   22   16 ar   
    30   18   17 1    
    31   19   17 ar   
    32   52   18 1    
    33   53   18 1    
    34   20   19 ar   
    35   21   20 ar   
    36   54   20 1    
    37   22   21 ar   
    38   24   23 1    
    39   25   24 ar   
    40   26   24 ar   
    41   27   24 1    
    42   28   27 1    
    43   29   28 1    
    44   55   28 1    
    45   56   28 1    
    46   30   29 1    
    47   31   29 1    
    48   57   29 1    
    49   35   30 1    
    50   32   31 1    
    51   33   31 1    
    52   58   31 1    
    53   69   32 1    
    54   34   33 1    
    55   35   33 1    
    56   59   33 1    
    57   70   34 1    
    58   36   35 1    
    59   60   35 1    
    60   37   36 ar   
    61   44   36 ar   
    62   38   37 ar   
    63   61   37 1    
    64   39   38 1    
    65   42   38 ar   
    66   40   39 2    
    67   41   39 am   
    68   62   41 1    
    69   63   41 1    
    70   43   42 ar   
    71   64   42 1    
    72   44   43 ar   
    73   65   43 1    
    74   66   44 1    
@<TRIPOS>SUBSTRUCTURE
     1 NAD3        1 GROUP   
@<TRIPOS>SET

