#    Name: 4awm_KDH_1_INTS_M
#    Modification time : Tue Mar 25 06:18:44 2014

@<TRIPOS>MOLECULE
4awm_KDH_1_INTS_M
   44     0    12     0     0
SMALL
NO_CHARGES


@<TRIPOS>ATOM
      1 Zn         13.1005  -31.8670   15.3680 Zn        3 ZIC7        0.0000 
      2 Zn         13.5850  -32.1570   16.3220 Zn       11 ZIL7        0.0000 
      3 Zn         12.6160  -31.5770   14.4140 Zn        7 ZIP7        0.0000 
      4 Zn         14.5120  -32.3985   16.4275 Zn        3 ZIC7        0.0000 
      5 Zn         15.4390  -32.6400   16.5330 Zn        7 ZIP7        0.0000 
      6 N          13.4670  -30.5095   16.8600 N.am      2 SEC2        0.0000 
      7 N          13.5850  -32.1570   16.3220 N.am     10 SEL2        0.0000 
      8 N          13.3490  -28.8620   17.3980 N.am      6 SEP2        0.0000 
      9 Zn         11.8090  -31.3555   15.0800 Zn        3 ZIC7        0.0000 
     10 Zn         11.0020  -31.1340   15.7460 Zn       11 ZIL7        0.0000 
     11 N           9.5840  -30.0365   17.1545 N.am      2 SEC2        0.0000 
     12 N           9.0670  -31.3420   17.6630 N.am     10 SEL2        0.0000 
     13 N          10.1010  -28.7310   16.6460 N.am      6 SEP2        0.0000 
     14 CA          7.6420  -35.0565   24.3840 C.3       4 GLC5        0.0000 
     15 CA          9.6190  -34.5390   25.0450 C.3      12 GLL5        0.0000 
     16 CA          5.6650  -35.5740   23.7230 C.3       8 GLP5        0.0000 
     17 CA         12.6765  -34.8645   23.6790 C.3       4 GLC5        0.0000 
     18 CA         11.6750  -35.6520   22.0470 C.3      12 GLL5        0.0000 
     19 CA         13.6780  -34.0770   25.3110 C.3       8 GLP5        0.0000 
     20 CA         10.2295  -37.2780   21.8335 C.3       4 GLC5        0.0000 
     21 CA          8.7840  -38.9040   21.6200 C.3       8 GLP5        0.0000 
     22 O           9.3310  -37.0545   25.4385 O.2       1 ALC1        0.0000 
     23 O          10.4010  -36.6840   24.3660 O.2       9 ALL1        0.0000 
     24 O           8.2610  -37.4250   26.5110 O.2       5 ALP1        0.0000 
     25 O           5.9665  -33.3105   14.5050 O.2       1 ALC1        0.0000 
     26 O           7.0470  -33.6180   15.5300 O.2       9 ALL1        0.0000 
     27 O           4.8860  -33.0030   13.4800 O.2       5 ALP1        0.0000 
     28 CA         10.2653  -29.9950   16.3615 C.3       4 GLC5        0.0000 
     29 CA         11.3030  -31.7200   16.9390 C.3      12 GLL5        0.0000 
     30 CA          9.7200  -28.2240   15.3030 C.3       8 GLP5        0.0000 
     31 CA         10.9452  -32.9206   15.8262 C.3       4 GLC5        0.0000 
     32 CA         10.7610  -33.9490   14.1610 C.3       8 GLP5        0.0000 
     33 CA         10.8243  -35.4465   26.2763 C.3       4 GLC5        0.0000 
     34 CA         10.3080  -35.3450   24.1400 C.3      12 GLL5        0.0000 
     35 CA         11.6850  -35.9510   27.9600 C.3       8 GLP5        0.0000 
     36 CA          8.0319  -36.7837   19.5190 C.3       4 GLC5        0.0000 
     37 CA          6.3210  -35.0100   18.8730 C.3      12 GLL5        0.0000 
     38 CA          8.8230  -38.4990   20.1640 C.3       8 GLP5        0.0000 
     39 CA          5.4781  -36.3309   18.0135 C.3       4 GLC5        0.0000 
     40 CA          7.6240  -35.2710   19.3010 C.3      12 GLL5        0.0000 
     41 CA          4.4100  -37.8630   17.6790 C.3       8 GLP5        0.0000 
     42 CA          8.8163  -35.4210   15.8184 C.3       4 GLC5        0.0000 
     43 CA          7.2010  -34.1720   16.7700 C.3      12 GLL5        0.0000 
     44 CA          9.7350  -36.4010   14.3400 C.3       8 GLP5        0.0000 
@<TRIPOS>BOND
@<TRIPOS>SUBSTRUCTURE
     1 ALC1       22 GROUP        1 X    ALC  0     ROOT ALC X 1
     2 SEC2        6 GROUP        1 X    SEC  0     **** SEC X 2
     3 ZIC7        1 GROUP        1 X    ZIC  0     **** ZIC X 5
     4 GLC5       14 GROUP        1 X    GLC  0     **** GLC X 6
     5 ALP1       24 GROUP        1 Y    ALP  0     ROOT ALP Y 8
     6 SEP2        8 GROUP        1 Y    SEP  0     **** SEP Y 9
     7 ZIP7        3 GROUP        1 Y    ZIP  0     **** ZIP Y 12
     8 GLP5       16 GROUP        1 Y    GLP  0     **** GLP Y 13
     9 ALL1       23 GROUP        1 Z    ALL  0     ROOT ALL Z 15
    10 SEL2        7 GROUP        1 Z    SEL  0     **** SEL Z 16
    11 ZIL7        2 GROUP        1 Z    ZIL  0     **** ZIL Z 19
    12 GLL5       15 GROUP        1 Z    GLL  0     **** GLL Z 20
@<TRIPOS>SET

