#    Name: 4awm_KDH_1_ligand
#    Modification time : Tue Mar 25 06:18:44 2014

@<TRIPOS>MOLECULE
4awm_KDH_1_ligand
   49    52     1     0     0
SMALL
NO_CHARGES


@<TRIPOS>ATOM
      1 O1         13.5850  -32.1570   16.3220 O.3       1 KDH911      0.0000 
      2 C3         12.5790  -32.2250   17.2250 C.ar      1 KDH911      0.0000 
      3 C6         11.3030  -31.7200   16.9390 C.ar      1 KDH911      0.0000 
      4 O7         11.0020  -31.1340   15.7460 O.3       1 KDH911      0.0000 
      5 C9         10.3180  -31.8120   17.9010 C.ar      1 KDH911      0.0000 
      6 O10         9.0670  -31.3420   17.6630 O.3       1 KDH911      0.0000 
      7 C12        10.5890  -32.3880   19.1280 C.ar      1 KDH911      0.0000 
      8 C14        11.8490  -32.8940   19.4150 C.ar      1 KDH911      0.0000 
      9 C15        12.1240  -33.5240   20.7320 C.3       1 KDH911      0.0000 
     10 C20        10.8110  -33.4030   22.8090 C.ar      1 KDH911      0.0000 
     11 C21        10.1280  -32.5980   23.7130 C.ar      1 KDH911      0.0000 
     12 C24         9.5350  -33.1600   24.8350 C.ar      1 KDH911      0.0000 
     13 C26         9.6190  -34.5390   25.0450 C.ar      1 KDH911      0.0000 
     14 C29        10.3080  -35.3450   24.1400 C.ar      1 KDH911      0.0000 
     15 C31        10.9060  -34.7790   23.0200 C.ar      1 KDH911      0.0000 
     16 C33        11.7120  -34.9950   20.6900 C.3       1 KDH911      0.0000 
     17 C36        10.0900  -35.2650   18.8830 C.2       1 KDH911      0.0000 
     18 C38         8.6970  -34.9830   18.4490 C.ar      1 KDH911      0.0000 
     19 C39         8.4910  -34.4370   17.1980 C.ar      1 KDH911      0.0000 
     20 C41         7.6240  -35.2710   19.3010 C.ar      1 KDH911      0.0000 
     21 C01        11.6750  -35.6520   22.0470 C.3       1 KDH911      0.0000 
     22 O01        11.3830  -32.7990   21.7210 O.3       1 KDH911      0.0000 
     23 O02         8.8710  -32.3520   25.7180 O.3       1 KDH911      0.0000 
     24 O03        10.4010  -36.6840   24.3660 O.3       1 KDH911      0.0000 
     25 C4         12.8470  -32.8140   18.4600 C.ar      1 KDH911      0.0000 
     26 O35        10.3600  -35.0940   20.2800 O.3       1 KDH911      0.0000 
     27 O37        10.9590  -35.6360   18.1270 O.2       1 KDH911      0.0000 
     28 C43         6.3210  -35.0100   18.8730 C.ar      1 KDH911      0.0000 
     29 O44         5.2530  -35.2870   19.6890 O.3       1 KDH911      0.0000 
     30 C46         6.1200  -34.4570   17.6090 C.ar      1 KDH911      0.0000 
     31 O47         4.8480  -34.1830   17.2060 O.3       1 KDH911      0.0000 
     32 C49         7.2010  -34.1720   16.7700 C.ar      1 KDH911      0.0000 
     33 O50         7.0470  -33.6180   15.5300 O.3       1 KDH911      0.0000 
     34 H           9.8427  -32.4439   19.8450 H         1 KDH911      0.0000 
     35 H          13.1823  -33.4719   20.9267 H         1 KDH911      0.0000 
     36 H          10.0623  -31.5838   23.5494 H         1 KDH911      0.0000 
     37 H           9.1711  -34.9587   25.8694 H         1 KDH911      0.0000 
     38 H          12.3478  -35.5450   20.0504 H         1 KDH911      0.0000 
     39 H           9.2903  -34.2274   16.5855 H         1 KDH911      0.0000 
     40 H           7.7947  -35.6681   20.2263 H         1 KDH911      0.0000 
     41 H          11.1877  -36.6217   21.9710 H         1 KDH911      0.0000 
     42 H          12.6896  -35.7920   22.4136 H         1 KDH911      0.0000 
     43 H          13.7845  -33.1862   18.6558 H         1 KDH911      0.0000 
     44 H           8.6608  -31.9981   17.0270 H         1 KDH911      0.0000 
     45 H           9.4484  -31.7746   26.2954 H         1 KDH911      0.0000 
     46 H           9.6893  -36.8827   25.0399 H         1 KDH911      0.0000 
     47 H           5.6361  -35.8167   20.4457 H         1 KDH911      0.0000 
     48 H           4.9335  -33.9093   16.2480 H         1 KDH911      0.0000 
     49 H           6.0581  -33.5575   15.3947 H         1 KDH911      0.0000 
@<TRIPOS>BOND
     1    2    1 1    
     2    3    2 ar   
     3   25    2 ar   
     4    4    3 1    
     5    5    3 ar   
     6    6    5 1    
     7    7    5 ar   
     8   44    6 1    
     9    8    7 ar   
    10   34    7 1    
    11    9    8 1    
    12   25    8 ar   
    13   16    9 1    
    14   22    9 1    
    15   35    9 1    
    16   11   10 ar   
    17   15   10 ar   
    18   22   10 1    
    19   12   11 ar   
    20   36   11 1    
    21   13   12 ar   
    22   23   12 1    
    23   14   13 ar   
    24   37   13 1    
    25   15   14 ar   
    26   24   14 1    
    27   21   15 1    
    28   21   16 1    
    29   26   16 1    
    30   38   16 1    
    31   18   17 1    
    32   26   17 1    
    33   27   17 2    
    34   19   18 ar   
    35   20   18 ar   
    36   32   19 ar   
    37   39   19 1    
    38   28   20 ar   
    39   40   20 1    
    40   41   21 1    
    41   42   21 1    
    42   45   23 1    
    43   46   24 1    
    44   43   25 1    
    45   29   28 1    
    46   30   28 ar   
    47   47   29 1    
    48   31   30 1    
    49   32   30 ar   
    50   48   31 1    
    51   33   32 1    
    52   49   33 1    
@<TRIPOS>SUBSTRUCTURE
     1 KDH911      1 GROUP   
@<TRIPOS>SET

