#    Name: 2v3o_I26_1_INTS_M
#    Modification time : Tue Mar 25 00:54:11 2014

@<TRIPOS>MOLECULE
2v3o_I26_1_INTS_M
   61     0     6     0     0
SMALL
NO_CHARGES


@<TRIPOS>ATOM
      1 O          15.4770   -9.8395   19.5895 O.2       1 ALC1        0.0000 
      2 O          15.5070  -11.2820   20.1570 O.2       5 ALL1        0.0000 
      3 O          15.4470   -8.3970   19.0220 O.2       3 ALP1        0.0000 
      4 CA         10.6040  -13.3300   21.4300 C.3       2 GLC5        0.0000 
      5 CA         12.4890  -12.3300   22.0390 C.3       6 GLL5        0.0000 
      6 CA          8.7190  -14.3300   20.8210 C.3       4 GLP5        0.0000 
      7 CA         10.1120   -9.2410   22.6975 C.3       2 GLC5        0.0000 
      8 CA         11.0380  -11.0150   23.5310 C.3       6 GLL5        0.0000 
      9 CA          9.1860   -7.4670   21.8640 C.3       4 GLP5        0.0000 
     10 O           9.0785  -11.9810   24.6270 O.2       1 ALC1        0.0000 
     11 O          10.2830  -12.1000   23.8380 O.2       5 ALL1        0.0000 
     12 O           7.8740  -11.8620   25.4160 O.2       3 ALP1        0.0000 
     13 O          10.3890  -13.5795   23.6315 O.2       1 ALC1        0.0000 
     14 O          10.4950  -15.0590   23.4250 O.2       3 ALP1        0.0000 
     15 O           9.4870   -9.7795   24.8500 O.2       1 ALC1        0.0000 
     16 O          10.7800   -9.8810   24.2370 O.2       5 ALL1        0.0000 
     17 O           8.1940   -9.6780   25.4630 O.2       3 ALP1        0.0000 
     18 CA         20.8870  -11.6265   14.8280 C.3       2 GLC5        0.0000 
     19 CA         20.4010  -12.4520   16.7290 C.3       6 GLL5        0.0000 
     20 CA         21.3730  -10.8010   12.9270 C.3       4 GLP5        0.0000 
     21 CA         22.4705  -14.1835   21.3585 C.3       2 GLC5        0.0000 
     22 CA         20.9390  -14.0180   22.9900 C.3       6 GLL5        0.0000 
     23 CA         24.0020  -14.3490   19.7270 C.3       4 GLP5        0.0000 
     24 CA         21.5680  -12.0880   23.1670 C.3       2 GLC5        0.0000 
     25 CA         22.1970  -10.1580   23.3440 C.3       4 GLP5        0.0000 
     26 CA         22.5835  -12.5120   26.3855 C.3       2 GLC5        0.0000 
     27 CA         20.8060  -13.2590   25.4240 C.3       6 GLL5        0.0000 
     28 CA         24.3610  -11.7650   27.3470 C.3       4 GLP5        0.0000 
     29 CA         21.5015  -11.7085   24.3840 C.3       2 GLC5        0.0000 
     30 CA         19.3555  -12.2835   26.1855 C.3       2 GLC5        0.0000 
     31 CA         17.9050  -11.3080   26.9470 C.3       4 GLP5        0.0000 
     32 CA         20.6620  -15.9405   26.8730 C.3       2 GLC5        0.0000 
     33 CA         19.9680  -15.4740   24.8920 C.3       6 GLL5        0.0000 
     34 CA         21.3560  -16.4070   28.8540 C.3       4 GLP5        0.0000 
     35 CA         13.4843  -12.5400   23.5435 C.3       2 GLC5        0.0000 
     36 CA         13.5980  -12.4020   21.2030 C.3       6 GLL5        0.0000 
     37 CA         13.9250  -12.7140   25.4660 C.3       4 GLP5        0.0000 
     38 CA         10.3176  -11.2951   21.2724 C.3       2 GLC5        0.0000 
     39 CA          8.9550  -11.2260   19.6160 C.3       4 GLP5        0.0000 
     40 CA         13.0488   -8.1227   21.7132 C.3       2 GLC5        0.0000 
     41 CA         12.9480   -9.9550   22.3970 C.3       6 GLL5        0.0000 
     42 CA         12.6000   -6.2630   21.4450 C.3       4 GLP5        0.0000 
     43 CA         13.0988  -11.6098   24.1004 C.3       2 GLC5        0.0000 
     44 CA         19.3558  -10.8377   18.5260 C.3       2 GLC5        0.0000 
     45 CA         18.3850  -12.5010   18.8960 C.3       6 GLL5        0.0000 
     46 CA         19.6330   -9.1110   18.0030 C.3       4 GLP5        0.0000 
     47 CA         20.1283  -10.7718   17.7315 C.3       2 GLC5        0.0000 
     48 CA         20.8460  -12.4130   18.1910 C.3       6 GLL5        0.0000 
     49 CA         22.2233  -13.2117   17.3910 C.3       2 GLC5        0.0000 
     50 CA         23.8230  -13.9910   17.3220 C.3       4 GLP5        0.0000 
     51 CA         20.0203  -14.1088   16.9335 C.3       2 GLC5        0.0000 
     52 CA         19.4170  -15.7850   16.4070 C.3       4 GLP5        0.0000 
     53 CA         20.2446  -11.4454   21.6247 C.3       2 GLC5        0.0000 
     54 CA         19.7720  -12.6280   19.2020 C.3       6 GLL5        0.0000 
     55 CA         20.8550   -9.9130   22.5930 C.3       4 GLP5        0.0000 
     56 CA         17.7562  -11.9514   23.0696 C.3       2 GLC5        0.0000 
     57 CA         17.9030  -13.0180   21.1740 C.3       6 GLL5        0.0000 
     58 CA         17.6860  -10.7400   24.3710 C.3       4 GLP5        0.0000 
     59 CA         14.7960  -10.4404   22.9518 C.3       2 GLC5        0.0000 
     60 CA         14.0470  -10.0100   21.5660 C.3       6 GLL5        0.0000 
     61 CA         16.3070  -10.1590   23.9860 C.3       4 GLP5        0.0000 
@<TRIPOS>BOND
@<TRIPOS>SUBSTRUCTURE
     1 ALC1        1 GROUP        1 X    ALC  0     ROOT ALC X 1
     2 GLC5        4 GROUP        1 X    GLC  0     **** GLC X 6
     3 ALP1        3 GROUP        1 Y    ALP  0     ROOT ALP Y 8
     4 GLP5        6 GROUP        1 Y    GLP  0     **** GLP Y 13
     5 ALL1        2 GROUP        1 Z    ALL  0     ROOT ALL Z 15
     6 GLL5        5 GROUP        1 Z    GLL  0     **** GLL Z 20
@<TRIPOS>SET

