#    Name: 2v3o_I26_1_ligand
#    Modification time : Tue Mar 25 00:54:11 2014

@<TRIPOS>MOLECULE
2v3o_I26_1_ligand
   66    67     1     0     0
SMALL
NO_CHARGES


@<TRIPOS>ATOM
      1 O17        15.9270  -14.0820   17.7970 O.co2     1 I261246     0.0000 
      2 C15        15.5900  -12.9160   18.1830 C.2       1 I261246     0.0000 
      3 O16        15.0290  -12.0450   17.4640 O.co2     1 I261246     0.0000 
      4 C13        15.9180  -12.5870   19.6060 C.3       1 I261246     0.0000 
      5 N14        15.5070  -11.2820   20.1570 N.pl3     1 I261246     0.0000 
      6 C1         14.3800  -11.2490   20.9830 C.ar      1 I261246     0.0000 
      7 C6         13.5980  -12.4020   21.2030 C.ar      1 I261246     0.0000 
      8 C4         12.4890  -12.3300   22.0390 C.ar      1 I261246     0.0000 
      9 C3         12.1560  -11.0970   22.6140 C.ar      1 I261246     0.0000 
     10 C18        11.0380  -11.0150   23.5310 C.2       1 I261246     0.0000 
     11 N20        10.2830  -12.1000   23.8380 N.pl3     1 I261246     0.0000 
     12 N19        10.7800   -9.8810   24.2370 N.pl3     1 I261246     0.0000 
     13 C5         12.9480   -9.9550   22.3970 C.ar      1 I261246     0.0000 
     14 C2         14.0470  -10.0100   21.5660 C.ar      1 I261246     0.0000 
     15 C11        17.4120  -12.7040   19.8940 C.ar      1 I261246     0.0000 
     16 C8         17.9030  -13.0180   21.1740 C.ar      1 I261246     0.0000 
     17 C9         18.3850  -12.5010   18.8960 C.ar      1 I261246     0.0000 
     18 C10        19.7720  -12.6280   19.2020 C.ar      1 I261246     0.0000 
     19 C21        20.8460  -12.4130   18.1910 C.3       1 I261246     0.0000 
     20 C22        20.4010  -12.4520   16.7290 C.3       1 I261246     0.0000 
     21 C12        20.2230  -12.9570   20.4900 C.ar      1 I261246     0.0000 
     22 C7         19.2710  -13.1630   21.4670 C.ar      1 I261246     0.0000 
     23 O23        19.6330  -13.4800   22.7670 O.3       1 I261246     0.0000 
     24 C24        20.9390  -14.0180   22.9900 C.3       1 I261246     0.0000 
     25 C25        21.0360  -14.4400   24.4710 C.3       1 I261246     0.0000 
     26 C26        20.8060  -13.2590   25.4240 C.3       1 I261246     0.0000 
     27 C27        22.4510  -14.9580   24.7200 C.3       1 I261246     0.0000 
     28 C28        19.9680  -15.4740   24.8920 C.3       1 I261246     0.0000 
     29 N29        19.4400  -16.4090   23.8880 N.4       1 I261246     0.0000 
     30 C31        19.4270  -17.7590   24.4920 C.3       1 I261246     0.0000 
     31 C30        18.0470  -16.0670   23.5090 C.3       1 I261246     0.0000 
     32 F20        17.0660  -13.2350   22.2160 F         1 I261246     0.0000 
     33 H          15.4537  -13.3819   20.2639 H         1 I261246     0.0000 
     34 H          16.0396  -10.4704   19.9265 H         1 I261246     0.0000 
     35 H          13.8521  -13.2805   20.7468 H         1 I261246     0.0000 
     36 H          11.9262  -13.1562   22.2325 H         1 I261246     0.0000 
     37 H          10.5468  -12.9584   23.3980 H         1 I261246     0.0000 
     38 H           9.5296  -11.9452   24.4771 H         1 I261246     0.0000 
     39 H          11.3826   -9.1036   24.0565 H         1 I261246     0.0000 
     40 H          10.0105   -9.9249   24.8742 H         1 I261246     0.0000 
     41 H          12.6941   -9.0735   22.8698 H         1 I261246     0.0000 
     42 H          14.6097   -9.1885   21.3707 H         1 I261246     0.0000 
     43 H          18.1026  -12.2606   17.9429 H         1 I261246     0.0000 
     44 H          21.6464  -13.1763   18.3290 H         1 I261246     0.0000 
     45 H          21.3409  -11.4315   18.3755 H         1 I261246     0.0000 
     46 H          21.2123  -13.0374   20.6832 H         1 I261246     0.0000 
     47 H          21.7214  -13.2855   22.8054 H         1 I261246     0.0000 
     48 H          21.1278  -14.9010   22.3839 H         1 I261246     0.0000 
     49 H          19.1168  -14.8949   25.3602 H         1 I261246     0.0000 
     50 H          20.3964  -16.0519   25.7647 H         1 I261246     0.0000 
     51 H          20.0642  -16.4179   23.0205 H         1 I261246     0.0000 
     52 H          21.1667  -12.3017   16.1036 H         1 I261246     0.0000 
     53 H          19.9943  -13.3332   16.4880 H         1 I261246     0.0000 
     54 H          19.7177  -11.7496   16.5299 H         1 I261246     0.0000 
     55 H          20.8694  -13.5374   26.3824 H         1 I261246     0.0000 
     56 H          21.4791  -12.5327   25.2846 H         1 I261246     0.0000 
     57 H          19.9025  -12.8496   25.2968 H         1 I261246     0.0000 
     58 H          23.1406  -14.2575   24.5364 H         1 I261246     0.0000 
     59 H          22.5773  -15.2525   25.6673 H         1 I261246     0.0000 
     60 H          22.6673  -15.7419   24.1380 H         1 I261246     0.0000 
     61 H          20.3432  -18.0528   24.7646 H         1 I261246     0.0000 
     62 H          18.8524  -17.7945   25.3097 H         1 I261246     0.0000 
     63 H          19.0756  -18.4467   23.8567 H         1 I261246     0.0000 
     64 H          17.9830  -15.1482   23.1195 H         1 I261246     0.0000 
     65 H          17.6814  -16.7006   22.8271 H         1 I261246     0.0000 
     66 H          17.4304  -16.0954   24.2958 H         1 I261246     0.0000 
@<TRIPOS>BOND
     1    2    1 ar   
     2    3    2 ar   
     3    4    2 1    
     4    5    4 1    
     5   15    4 1    
     6   33    4 1    
     7    6    5 1    
     8   34    5 1    
     9    7    6 ar   
    10   14    6 ar   
    11    8    7 ar   
    12   35    7 1    
    13    9    8 ar   
    14   36    8 1    
    15   10    9 1    
    16   13    9 ar   
    17   11   10 2    
    18   12   10 1    
    19   37   11 1    
    20   38   11 1    
    21   39   12 1    
    22   40   12 1    
    23   14   13 ar   
    24   41   13 1    
    25   42   14 1    
    26   16   15 ar   
    27   17   15 ar   
    28   22   16 ar   
    29   32   16 1    
    30   18   17 ar   
    31   43   17 1    
    32   19   18 1    
    33   21   18 ar   
    34   20   19 1    
    35   44   19 1    
    36   45   19 1    
    37   52   20 1    
    38   53   20 1    
    39   54   20 1    
    40   22   21 ar   
    41   46   21 1    
    42   23   22 1    
    43   24   23 1    
    44   25   24 1    
    45   47   24 1    
    46   48   24 1    
    47   26   25 1    
    48   27   25 1    
    49   28   25 1    
    50   55   26 1    
    51   56   26 1    
    52   57   26 1    
    53   58   27 1    
    54   59   27 1    
    55   60   27 1    
    56   29   28 1    
    57   49   28 1    
    58   50   28 1    
    59   30   29 1    
    60   31   29 1    
    61   51   29 1    
    62   61   30 1    
    63   62   30 1    
    64   63   30 1    
    65   64   31 1    
    66   65   31 1    
    67   66   31 1    
@<TRIPOS>SUBSTRUCTURE
     1 I261246     1 GROUP   
@<TRIPOS>SET

