#    Name: 3cis_ATP_7_INTS_M
#    Modification time : Mon Mar 24 21:36:23 2014

@<TRIPOS>MOLECULE
3cis_ATP_7_INTS_M
   94     0    15     0     0
SMALL
NO_CHARGES


@<TRIPOS>ATOM
      1 Zn         36.5745   42.6530  136.8245 Zn        4 ZIC7        0.0000 
      2 Zn         35.6940   43.1090  137.3410 Zn       14 ZIL7        0.0000 
      3 Zn         37.4550   42.1970  136.3080 Zn        9 ZIP7        0.0000 
      4 N          34.1075   43.2020  137.0840 N.am      2 SEC2        0.0000 
      5 N          35.6940   43.1090  137.3410 N.am     12 SEL2        0.0000 
      6 N          32.5210   43.2950  136.8270 N.am      7 SEP2        0.0000 
      7 N          35.9150   44.1565  140.8370 N.am      2 SEC2        0.0000 
      8 N          36.5120   44.2710  139.5160 N.am     12 SEL2        0.0000 
      9 N          35.3180   44.0420  142.1580 N.am      7 SEP2        0.0000 
     10 NZ         34.6500   44.0295  140.6035 N.4       3 LYC4        0.0000 
     11 NZ         33.9820   44.0170  139.0490 N.4      13 LYL4        0.0000 
     12 NZ         34.1620   43.7390  142.7330 N.4       8 LYP4        0.0000 
     13 N          34.6500   44.0295  140.6035 N.am      2 SEC2        0.0000 
     14 N          33.9820   44.0170  139.0490 N.am     12 SEL2        0.0000 
     15 N          33.5330   43.7820  140.5150 N.am      2 SEC2        0.0000 
     16 N          33.0840   43.5470  141.9810 N.am      7 SEP2        0.0000 
     17 N          33.0300   42.7305  139.0145 N.am      2 SEC2        0.0000 
     18 N          32.0780   41.4440  138.9800 N.am      7 SEP2        0.0000 
     19 N          33.2515   43.6560  137.9380 N.am      2 SEC2        0.0000 
     20 N          37.5790   39.4225  140.5725 N.am      2 SEC2        0.0000 
     21 N          37.2100   40.9010  141.0290 N.am     12 SEL2        0.0000 
     22 N          37.9480   37.9440  140.1160 N.am      7 SEP2        0.0000 
     23 Zn         37.5535   41.8390  137.4480 Zn        4 ZIC7        0.0000 
     24 Zn         37.6520   41.4810  138.5880 Zn       14 ZIL7        0.0000 
     25 N          39.0015   41.9390  138.9810 N.am      2 SEC2        0.0000 
     26 N          37.6520   41.4810  138.5880 N.am     12 SEL2        0.0000 
     27 N          40.3510   42.3970  139.3740 N.am      7 SEP2        0.0000 
     28 N          35.3700   42.9995  140.8965 N.am      2 SEC2        0.0000 
     29 N          35.4220   41.9570  139.6350 N.am     12 SEL2        0.0000 
     30 N          33.7500   41.7005  139.3075 N.am      2 SEC2        0.0000 
     31 N          32.8360   39.5660  137.1745 N.am      2 SEC2        0.0000 
     32 N          33.9950   38.9660  137.8350 N.am     12 SEL2        0.0000 
     33 N          31.6770   40.1660  136.5140 N.am      7 SEP2        0.0000 
     34 N          32.6160   38.1500  137.4150 N.am      2 SEC2        0.0000 
     35 N          31.2370   37.3340  136.9950 N.am      7 SEP2        0.0000 
     36 Zn         36.5905   41.3865  136.6050 Zn        4 ZIC7        0.0000 
     37 Zn         35.7260   40.5760  136.9020 Zn       14 ZIL7        0.0000 
     38 CA         36.3135   36.6770  139.7090 C.3       5 GLC5        0.0000 
     39 CA         35.8260   36.8240  137.6870 C.3      15 GLL5        0.0000 
     40 CA         36.8010   36.5300  141.7310 C.3      10 GLP5        0.0000 
     41 CA         37.3390   37.5230  138.3445 C.3       5 GLC5        0.0000 
     42 CA         38.8520   38.2220  139.0020 C.3      10 GLP5        0.0000 
     43 CA         34.6395   34.3145  135.7400 C.3       5 GLC5        0.0000 
     44 CA         35.8760   35.8030  136.5530 C.3      15 GLL5        0.0000 
     45 CA         33.4030   32.8260  134.9270 C.3      10 GLP5        0.0000 
     46 CA         38.0920   36.9145  137.5800 C.3       5 GLC5        0.0000 
     47 CA         37.3320   35.6070  136.1580 C.3      15 GLL5        0.0000 
     48 CA         38.4100   34.6545  132.9245 C.3       5 GLC5        0.0000 
     49 CA         37.1900   35.1140  134.7290 C.3      15 GLL5        0.0000 
     50 CA         39.6300   34.1950  131.1200 C.3      10 GLP5        0.0000 
     51 CA         35.2965   33.9700  134.8280 C.3       5 GLC5        0.0000 
     52 N          36.2955   32.9035  135.7635 N.am      2 SEC2        0.0000 
     53 N          36.8420   33.7300  134.7270 N.am     12 SEL2        0.0000 
     54 N          35.7490   32.0770  136.8000 N.am      7 SEP2        0.0000 
     55 O          37.2110   33.2235  133.4875 O.2       1 ALC1        0.0000 
     56 O          36.8420   33.7300  134.7270 O.2      11 ALL1        0.0000 
     57 O          37.5800   32.7170  132.2480 O.2       6 ALP1        0.0000 
     58 CA         34.5935   34.5345  133.8340 C.3       5 GLC5        0.0000 
     59 CA         36.0030   35.9240  134.2050 C.3      15 GLL5        0.0000 
     60 CA         33.1840   33.1450  133.4630 C.3      10 GLP5        0.0000 
     61 CA         34.2790   36.8440  133.9360 C.3       5 GLC5        0.0000 
     62 CA         32.5550   37.7640  133.6670 C.3      10 GLP5        0.0000 
     63 CA         35.2865   39.2800  133.0985 C.3       5 GLC5        0.0000 
     64 CA         37.0250   38.5800  131.9380 C.3      15 GLL5        0.0000 
     65 CA         33.5480   39.9800  134.2590 C.3      10 GLP5        0.0000 
     66 CA         36.3460   39.6250  128.7990 C.3       5 GLC5        0.0000 
     67 CA         37.1280   39.0300  130.6310 C.3      15 GLL5        0.0000 
     68 CA         35.5640   40.2200  126.9670 C.3      10 GLP5        0.0000 
     69 O          38.0095   40.8365  129.0965 O.2       1 ALC1        0.0000 
     70 O          37.6430   40.2250  130.3640 O.2      11 ALL1        0.0000 
     71 O          38.3760   41.4480  127.8290 O.2       6 ALP1        0.0000 
     72 N          37.1490   38.5560  128.2945 N.am      2 SEC2        0.0000 
     73 N          36.6980   38.2350  129.6410 N.am     12 SEL2        0.0000 
     74 N          37.6000   38.8770  126.9480 N.am      7 SEP2        0.0000 
     75 CA         36.0930   35.1675  130.2260 C.3       5 GLC5        0.0000 
     76 CA         36.1860   37.0420  129.9030 C.3      15 GLL5        0.0000 
     77 CA         36.0000   33.2930  130.5490 C.3      10 GLP5        0.0000 
     78 CA         37.4915   36.9120  128.3370 C.3       5 GLC5        0.0000 
     79 CA         38.7970   36.7820  126.7710 C.3      10 GLP5        0.0000 
     80 CA         35.8750   38.6310  128.4350 C.3       5 GLC5        0.0000 
     81 CA         34.9805   38.8225  130.2060 C.3       5 GLC5        0.0000 
     82 CA         33.7750   40.6030  130.5090 C.3      10 GLP5        0.0000 
     83 CA         34.3940   36.5010  129.9945 C.3       5 GLC5        0.0000 
     84 CA         32.6020   35.9600  130.0860 C.3      10 GLP5        0.0000 
     85 CA         36.2415   35.3120  131.3620 C.3       5 GLC5        0.0000 
     86 CA         36.4830   37.3310  132.1750 C.3      15 GLL5        0.0000 
     87 CA         34.5190   37.5475  132.9210 C.3       5 GLC5        0.0000 
     88 CA         36.4125   33.9550  137.2602 C.3       5 GLC5        0.0000 
     89 CA         36.2210   32.2050  138.1650 C.3      10 GLP5        0.0000 
     90 CA         38.9555   34.2843  135.3962 C.3       5 GLC5        0.0000 
     91 CA         40.6500   33.2080  135.3490 C.3      10 GLP5        0.0000 
     92 CA         38.6390   37.9748  132.7908 C.3       5 GLC5        0.0000 
     93 CA         40.5240   37.9940  133.5250 C.3      10 GLP5        0.0000 
     94 CA         35.4257   39.7040  130.8967 C.3       5 GLC5        0.0000 
@<TRIPOS>BOND
@<TRIPOS>SUBSTRUCTURE
     1 ALC1       55 GROUP        1 X    ALC  0     ROOT ALC X 1
     2 SEC2        4 GROUP        1 X    SEC  0     **** SEC X 2
     3 LYC4       10 GROUP        1 X    LYC  0     **** LYC X 4
     4 ZIC7        1 GROUP        1 X    ZIC  0     **** ZIC X 5
     5 GLC5       38 GROUP        1 X    GLC  0     **** GLC X 6
     6 ALP1       57 GROUP        1 Y    ALP  0     ROOT ALP Y 8
     7 SEP2        6 GROUP        1 Y    SEP  0     **** SEP Y 9
     8 LYP4       12 GROUP        1 Y    LYP  0     **** LYP Y 11
     9 ZIP7        3 GROUP        1 Y    ZIP  0     **** ZIP Y 12
    10 GLP5       40 GROUP        1 Y    GLP  0     **** GLP Y 13
    11 ALL1       56 GROUP        1 Z    ALL  0     ROOT ALL Z 15
    12 SEL2        5 GROUP        1 Z    SEL  0     **** SEL Z 16
    13 LYL4       11 GROUP        1 Z    LYL  0     **** LYL Z 18
    14 ZIL7        2 GROUP        1 Z    ZIL  0     **** ZIL Z 19
    15 GLL5       39 GROUP        1 Z    GLL  0     **** GLL Z 20
@<TRIPOS>SET

