#    Name: 3cis_ATP_7_ligand
#    Modification time : Mon Mar 24 21:36:23 2014

@<TRIPOS>MOLECULE
3cis_ATP_7_ligand
   43    45     1     0     0
SMALL
NO_CHARGES


@<TRIPOS>ATOM
      1 PG         35.4720   43.3820  138.9300 P.3       1 ATP2101     0.0000 
      2 O1G        35.6940   43.1090  137.3410 O.co2     1 ATP2101     0.0000 
      3 O2G        36.5120   44.2710  139.5160 O.co2     1 ATP2101     0.0000 
      4 O3G        33.9820   44.0170  139.0490 O.co2     1 ATP2101     0.0000 
      5 PB         36.7200   41.0250  139.6420 P.3       1 ATP2101     0.0000 
      6 O1B        37.2100   40.9010  141.0290 O.co2     1 ATP2101     0.0000 
      7 O2B        37.6520   41.4810  138.5880 O.co2     1 ATP2101     0.0000 
      8 O3B        35.4220   41.9570  139.6350 O.3       1 ATP2101     0.0000 
      9 PA         35.4020   39.4020  137.7350 P.3       1 ATP2101     0.0000 
     10 O1A        33.9950   38.9660  137.8350 O.co2     1 ATP2101     0.0000 
     11 O2A        35.7260   40.5760  136.9020 O.co2     1 ATP2101     0.0000 
     12 O3A        36.0590   39.6100  139.1980 O.3       1 ATP2101     0.0000 
     13 O5'        36.2230   38.1230  137.2350 O.3       1 ATP2101     0.0000 
     14 C5'        35.8260   36.8240  137.6870 C.3       1 ATP2101     0.0000 
     15 C4'        35.8760   35.8030  136.5530 C.3       1 ATP2101     0.0000 
     16 O4'        35.2250   36.3290  135.3690 O.3       1 ATP2101     0.0000 
     17 C3'        37.3320   35.6070  136.1580 C.3       1 ATP2101     0.0000 
     18 O3'        37.9200   34.5980  136.9820 O.3       1 ATP2101     0.0000 
     19 C2'        37.1900   35.1140  134.7290 C.3       1 ATP2101     0.0000 
     20 O2'        36.8420   33.7300  134.7270 O.3       1 ATP2101     0.0000 
     21 C1'        36.0030   35.9240  134.2050 C.3       1 ATP2101     0.0000 
     22 N9         36.4930   37.1350  133.4900 N.pl3     1 ATP2101     0.0000 
     23 C8         37.0180   38.2230  134.0570 C.2       1 ATP2101     0.0000 
     24 N7         37.3450   39.1050  133.1120 N.2       1 ATP2101     0.0000 
     25 C5         37.0250   38.5800  131.9380 C.ar      1 ATP2101     0.0000 
     26 C6         37.1280   39.0300  130.6310 C.ar      1 ATP2101     0.0000 
     27 N6         37.6430   40.2250  130.3640 N.pl3     1 ATP2101     0.0000 
     28 N1         36.6980   38.2350  129.6410 N.ar      1 ATP2101     0.0000 
     29 C2         36.1860   37.0420  129.9030 C.ar      1 ATP2101     0.0000 
     30 N3         36.0740   36.5870  131.1420 N.ar      1 ATP2101     0.0000 
     31 C4         36.4830   37.3310  132.1750 C.ar      1 ATP2101     0.0000 
     32 H          34.7983   36.8317  138.0854 H         1 ATP2101     0.0000 
     33 H          36.4817   36.4596  138.4946 H         1 ATP2101     0.0000 
     34 H          35.4726   34.8893  136.8604 H         1 ATP2101     0.0000 
     35 H          37.8151   36.5245  136.1642 H         1 ATP2101     0.0000 
     36 H          38.0379   35.3558  134.1850 H         1 ATP2101     0.0000 
     37 H          35.4297   35.3103  133.5591 H         1 ATP2101     0.0000 
     38 H          37.1435   38.3530  135.0191 H         1 ATP2101     0.0000 
     39 H          37.4797   40.9370  131.0469 H         1 ATP2101     0.0000 
     40 H          38.1474   40.3046  129.5042 H         1 ATP2101     0.0000 
     41 H          35.8560   36.4331  129.0974 H         1 ATP2101     0.0000 
     42 H          37.8563   33.7564  136.4456 H         1 ATP2101     0.0000 
     43 H          37.5263   33.2921  134.1439 H         1 ATP2101     0.0000 
@<TRIPOS>BOND
     1    2    1 ar   
     2    3    1 ar   
     3    4    1 ar   
     4    8    1 1    
     5    6    5 ar   
     6    7    5 ar   
     7    8    5 1    
     8   12    5 1    
     9   10    9 ar   
    10   11    9 ar   
    11   12    9 1    
    12   13    9 1    
    13   14   13 1    
    14   15   14 1    
    15   32   14 1    
    16   33   14 1    
    17   16   15 1    
    18   17   15 1    
    19   34   15 1    
    20   21   16 1    
    21   18   17 1    
    22   19   17 1    
    23   35   17 1    
    24   42   18 1    
    25   20   19 1    
    26   21   19 1    
    27   36   19 1    
    28   43   20 1    
    29   22   21 1    
    30   37   21 1    
    31   23   22 1    
    32   31   22 1    
    33   24   23 2    
    34   38   23 1    
    35   25   24 1    
    36   26   25 ar   
    37   31   25 ar   
    38   27   26 1    
    39   28   26 ar   
    40   39   27 1    
    41   40   27 1    
    42   29   28 ar   
    43   30   29 ar   
    44   41   29 1    
    45   31   30 ar   
@<TRIPOS>SUBSTRUCTURE
     1 ATP2101     1 GROUP   
@<TRIPOS>SET

