#    Name: 3tdv_GDP_2_INTS_M
#    Modification time : Mon Mar 24 19:57:21 2014

@<TRIPOS>MOLECULE
3tdv_GDP_2_INTS_M
   57     0    15     0     0
SMALL
NO_CHARGES


@<TRIPOS>ATOM
      1 N          31.7525  -20.1740  -45.2740 N.am      2 SEC2        0.0000 
      2 N          31.3840  -19.0070  -44.7130 N.am     12 SEL2        0.0000 
      3 N          32.1210  -21.3410  -45.8350 N.am      7 SEP2        0.0000 
      4 N          31.5750  -19.1080  -46.0905 N.am      2 SEC2        0.0000 
      5 N          31.7660  -19.2090  -47.4680 N.am      7 SEP2        0.0000 
      6 Zn         29.9270  -18.0495  -41.6560 Zn        4 ZIC7        0.0000 
      7 Zn         30.3320  -18.5210  -42.5070 Zn       14 ZIL7        0.0000 
      8 Zn         29.5220  -17.5780  -40.8050 Zn        9 ZIP7        0.0000 
      9 Zn         28.2230  -19.3410  -43.9570 Zn        4 ZIC7        0.0000 
     10 Zn         28.9230  -18.8510  -44.5650 Zn       14 ZIL7        0.0000 
     11 Zn         27.5230  -19.8310  -43.3490 Zn        9 ZIP7        0.0000 
     12 N          28.6955  -18.7640  -45.9660 N.am      2 SEC2        0.0000 
     13 N          28.9230  -18.8510  -44.5650 N.am     12 SEL2        0.0000 
     14 N          28.4680  -18.6770  -47.3670 N.am      7 SEP2        0.0000 
     15 NZ         27.0400  -16.2905  -44.8930 N.4       3 LYC4        0.0000 
     16 NZ         27.9860  -15.5160  -44.0990 N.4      13 LYL4        0.0000 
     17 NZ         26.1210  -16.2360  -46.7250 N.4       8 LYP4        0.0000 
     18 N          27.4765  -15.3585  -45.4255 N.am      2 SEC2        0.0000 
     19 N          27.9860  -15.5160  -44.0990 N.am     12 SEL2        0.0000 
     20 N          26.9670  -15.2010  -46.7520 N.am      7 SEP2        0.0000 
     21 N          27.0400  -16.2905  -44.8930 N.am      2 SEC2        0.0000 
     22 N          26.0940  -17.0650  -45.6870 N.am      7 SEP2        0.0000 
     23 Zn         29.4525  -16.7275  -41.4105 Zn        4 ZIC7        0.0000 
     24 Zn         29.3830  -15.8770  -42.0160 Zn       14 ZIL7        0.0000 
     25 CA         33.5725  -12.3000  -43.1065 C.3       5 GLC5        0.0000 
     26 CA         32.0750  -13.2390  -42.6690 C.3      15 GLL5        0.0000 
     27 CA         35.0700  -11.3610  -43.5440 C.3      10 GLP5        0.0000 
     28 CA         30.6060  -10.5985  -39.4165 C.3       5 GLC5        0.0000 
     29 CA         31.3490  -11.6290  -41.0980 C.3      15 GLL5        0.0000 
     30 CA         29.8630   -9.5680  -37.7350 C.3      10 GLP5        0.0000 
     31 CA         32.0055   -9.1960  -43.3830 C.3       5 GLC5        0.0000 
     32 CA         31.4500  -10.9920  -42.4830 C.3      15 GLL5        0.0000 
     33 CA         32.5610   -7.4000  -44.2830 C.3      10 GLP5        0.0000 
     34 N          27.1920  -10.6350  -44.6090 N.am      2 SEC2        0.0000 
     35 N          28.0390  -10.2610  -43.6370 N.am     12 SEL2        0.0000 
     36 N          26.3450  -11.0090  -45.5810 N.am      7 SEP2        0.0000 
     37 CA         28.1875   -7.9235  -44.6120 C.3       5 GLC5        0.0000 
     38 CA         28.2660   -9.1660  -42.8800 C.3      15 GLL5        0.0000 
     39 CA         28.1090   -6.6810  -46.3440 C.3      10 GLP5        0.0000 
     40 N          25.4875   -6.5525  -42.9170 N.am      2 SEC2        0.0000 
     41 N          26.3560   -7.7410  -42.9530 N.am     12 SEL2        0.0000 
     42 N          24.6190   -5.3640  -42.8810 N.am      7 SEP2        0.0000 
     43 O          27.0860   -5.9350  -41.0595 O.2       1 ALC1        0.0000 
     44 O          28.1290   -7.0750  -41.7040 O.2      11 ALL1        0.0000 
     45 O          26.0430   -4.7950  -40.4150 O.2       6 ALP1        0.0000 
     46 O          29.2050   -5.1090  -40.1970 O.2       1 ALC1        0.0000 
     47 O          29.9230   -6.2780  -40.4520 O.2      11 ALL1        0.0000 
     48 O          28.4870   -3.9400  -39.9420 O.2       6 ALP1        0.0000 
     49 CA         33.5518  -14.4322  -43.6970 C.3       5 GLC5        0.0000 
     50 CA         35.2370  -15.0250  -44.3180 C.3      10 GLP5        0.0000 
     51 CA         33.2347  -11.3358  -42.6672 C.3       5 GLC5        0.0000 
     52 CA         29.4902  -11.8720  -41.1824 C.3       5 GLC5        0.0000 
     53 CA         27.6120  -12.0630  -40.4960 C.3      10 GLP5        0.0000 
     54 CA         30.0425   -8.2110  -43.7095 C.3       5 GLC5        0.0000 
     55 CA         29.6300   -9.2920  -42.3320 C.3      15 GLL5        0.0000 
     56 CA         31.1370   -7.1930  -44.8130 C.3      10 GLP5        0.0000 
     57 CA         28.2800  -10.6460  -41.5510 C.3       5 GLC5        0.0000 
@<TRIPOS>BOND
@<TRIPOS>SUBSTRUCTURE
     1 ALC1       43 GROUP        1 X    ALC  0     ROOT ALC X 1
     2 SEC2        1 GROUP        1 X    SEC  0     **** SEC X 2
     3 LYC4       15 GROUP        1 X    LYC  0     **** LYC X 4
     4 ZIC7        6 GROUP        1 X    ZIC  0     **** ZIC X 5
     5 GLC5       25 GROUP        1 X    GLC  0     **** GLC X 6
     6 ALP1       45 GROUP        1 Y    ALP  0     ROOT ALP Y 8
     7 SEP2        3 GROUP        1 Y    SEP  0     **** SEP Y 9
     8 LYP4       17 GROUP        1 Y    LYP  0     **** LYP Y 11
     9 ZIP7        8 GROUP        1 Y    ZIP  0     **** ZIP Y 12
    10 GLP5       27 GROUP        1 Y    GLP  0     **** GLP Y 13
    11 ALL1       44 GROUP        1 Z    ALL  0     ROOT ALL Z 15
    12 SEL2        2 GROUP        1 Z    SEL  0     **** SEL Z 16
    13 LYL4       16 GROUP        1 Z    LYL  0     **** LYL Z 18
    14 ZIL7        7 GROUP        1 Z    ZIL  0     **** ZIL Z 19
    15 GLL5       26 GROUP        1 Z    GLL  0     **** GLL Z 20
@<TRIPOS>SET

