#    Name: 3tdv_GDP_2_ligand
#    Modification time : Mon Mar 24 19:57:21 2014

@<TRIPOS>MOLECULE
3tdv_GDP_2_ligand
   40    42     1     0     0
SMALL
NO_CHARGES


@<TRIPOS>ATOM
      1 PB         30.2200  -18.3010  -44.0030 P.3       1 GDP500      0.0000 
      2 O1B        31.3840  -19.0070  -44.7130 O.co2     1 GDP500      0.0000 
      3 O2B        30.3320  -18.5210  -42.5070 O.co2     1 GDP500      0.0000 
      4 O3B        28.9230  -18.8510  -44.5650 O.co2     1 GDP500      0.0000 
      5 O3A        30.2640  -16.7270  -44.3250 O.3       1 GDP500      0.0000 
      6 PA         29.3950  -15.6360  -43.5090 P.3       1 GDP500      0.0000 
      7 O1A        27.9860  -15.5160  -44.0990 O.co2     1 GDP500      0.0000 
      8 O2A        29.3830  -15.8770  -42.0160 O.co2     1 GDP500      0.0000 
      9 O5'        30.2680  -14.3220  -43.8000 O.3       1 GDP500      0.0000 
     10 C5'        31.6580  -14.4400  -43.4830 C.3       1 GDP500      0.0000 
     11 C4'        32.0750  -13.2390  -42.6690 C.3       1 GDP500      0.0000 
     12 O4'        31.7890  -12.0510  -43.3980 O.3       1 GDP500      0.0000 
     13 C3'        31.2250  -13.1110  -41.4110 C.3       1 GDP500      0.0000 
     14 O3'        31.6900  -14.0100  -40.3950 O.3       1 GDP500      0.0000 
     15 C2'        31.3490  -11.6290  -41.0980 C.3       1 GDP500      0.0000 
     16 O2'        32.5420  -11.3320  -40.3460 O.3       1 GDP500      0.0000 
     17 C1'        31.4500  -10.9920  -42.4830 C.3       1 GDP500      0.0000 
     18 N9         30.1150  -10.4350  -42.8060 N.pl3     1 GDP500      0.0000 
     19 C8         29.1560  -11.0180  -43.5640 C.2       1 GDP500      0.0000 
     20 N7         28.0390  -10.2610  -43.6370 N.2       1 GDP500      0.0000 
     21 C5         28.2660   -9.1660  -42.8800 C.2       1 GDP500      0.0000 
     22 C6         27.5220   -7.9500  -42.5200 C.2       1 GDP500      0.0000 
     23 O6         26.3560   -7.7410  -42.9530 O.2       1 GDP500      0.0000 
     24 N1         28.1290   -7.0750  -41.7040 N.am      1 GDP500      0.0000 
     25 C2         29.3810   -7.2330  -41.2480 C.2       1 GDP500      0.0000 
     26 N2         29.9230   -6.2780  -40.4520 N.pl3     1 GDP500      0.0000 
     27 N3         30.1280   -8.3220  -41.5350 N.2       1 GDP500      0.0000 
     28 C4         29.6300   -9.2920  -42.3320 C.2       1 GDP500      0.0000 
     29 H          32.2742  -14.4744  -44.3860 H         1 GDP500      0.0000 
     30 H          31.8610  -15.3405  -42.8963 H         1 GDP500      0.0000 
     31 H          33.0885  -13.3002  -42.3953 H         1 GDP500      0.0000 
     32 H          30.2069  -13.3001  -41.7125 H         1 GDP500      0.0000 
     33 H          30.4619  -11.2940  -40.6433 H         1 GDP500      0.0000 
     34 H          32.1805  -10.2363  -42.4527 H         1 GDP500      0.0000 
     35 H          29.2620  -11.8926  -44.0098 H         1 GDP500      0.0000 
     36 H          27.5865   -6.2058  -41.4010 H         1 GDP500      0.0000 
     37 H          29.3621   -5.4650  -40.2958 H         1 GDP500      0.0000 
     38 H          30.8356   -6.4714  -40.0917 H         1 GDP500      0.0000 
     39 H          31.0022  -13.9600  -39.6708 H         1 GDP500      0.0000 
     40 H          32.8542  -12.2154  -39.9966 H         1 GDP500      0.0000 
@<TRIPOS>BOND
     1    2    1 ar   
     2    3    1 ar   
     3    4    1 ar   
     4    5    1 1    
     5    6    5 1    
     6    7    6 ar   
     7    8    6 ar   
     8    9    6 1    
     9   10    9 1    
    10   11   10 1    
    11   29   10 1    
    12   30   10 1    
    13   12   11 1    
    14   13   11 1    
    15   31   11 1    
    16   17   12 1    
    17   14   13 1    
    18   15   13 1    
    19   32   13 1    
    20   39   14 1    
    21   16   15 1    
    22   17   15 1    
    23   33   15 1    
    24   40   16 1    
    25   18   17 1    
    26   34   17 1    
    27   19   18 1    
    28   28   18 1    
    29   20   19 2    
    30   35   19 1    
    31   21   20 1    
    32   22   21 1    
    33   28   21 2    
    34   23   22 2    
    35   24   22 am   
    36   25   24 1    
    37   36   24 1    
    38   26   25 1    
    39   27   25 2    
    40   37   26 1    
    41   38   26 1    
    42   28   27 1    
@<TRIPOS>SUBSTRUCTURE
     1 GDP500      1 GROUP   
@<TRIPOS>SET

