#    Name: 4D9W_1_CAVITY_N1_ALL.mol2
#    Modification time : Mon Mar 10 13:33:14 2014

@<TRIPOS>MOLECULE
4D9W_1_CAVITY_N1_ALL.mol2
   77     0     7     0     0
SMALL
NO_CHARGES


@<TRIPOS>ATOM
      1 N           9.2392   45.2645   -1.8153 N.2       2 ALA2        0.0000 
      2 OG         14.4774   43.7958   -7.1916 O.2       1 SER1        0.0000 
      3 O          13.2557   44.0238   -6.3517 O.2       2 ALA2        0.0000 
      4 O          12.3854   43.6950   -7.5283 O.2       2 ALA2        0.0000 
      5 O          11.1637   43.9230   -6.6884 O.2       2 ALA2        0.0000 
      6 DU         11.5150   43.3662   -8.7049 H         7 CUB7        0.0000 
      7 O          10.2933   43.5942   -7.8650 O.2       2 ALA2        0.0000 
      8 O           9.4230   43.2654   -9.0416 O.2       2 ALA2        0.0000 
      9 N           9.2445   43.8189   -1.4152 N.2       2 ALA2        0.0000 
     10 CZ          8.0228   44.0468   -0.5753 C.ar      5 PHE5        0.0000 
     11 O           8.3742   43.4901   -2.5919 O.2       2 ALA2        0.0000 
     12 CA          7.1525   43.7180   -1.7519 C.3       6 GLY6        0.0000 
     13 CA          5.9308   43.9460   -0.9120 C.3       6 GLY6        0.0000 
     14 CA         13.6123   42.0213   -7.9682 C.3       6 GLY6        0.0000 
     15 O          12.3906   42.2493   -7.1282 O.2       2 ALA2        0.0000 
     16 O          11.1689   42.4773   -6.2883 O.2       2 ALA2        0.0000 
     17 O           9.9473   42.7053   -5.4484 O.2       2 ALA2        0.0000 
     18 O           8.7256   42.9333   -4.6084 O.2       2 ALA2        0.0000 
     19 DU          7.5039   43.1613   -3.7685 H         7 CUB7        0.0000 
     20 CA          6.2822   43.3892   -2.9285 C.3       6 GLY6        0.0000 
     21 CA          5.0605   43.6172   -2.0886 C.3       6 GLY6        0.0000 
     22 DU         12.7420   41.6925   -9.1448 H         7 CUB7        0.0000 
     23 OG         11.5203   41.9205   -8.3049 O.2       1 SER1        0.0000 
     24 N          10.2986   42.1485   -7.4649 N.2       2 ALA2        0.0000 
     25 N           9.0769   42.3765   -6.6250 N.2       2 ALA2        0.0000 
     26 O           7.8553   42.6045   -5.7850 O.2       2 ALA2        0.0000 
     27 CA          6.6336   42.8325   -4.9451 C.3       6 GLY6        0.0000 
     28 CZ         11.8717   41.3637  -10.3214 C.ar      5 PHE5        0.0000 
     29 OG         10.6500   41.5917   -9.4815 O.2       1 SER1        0.0000 
     30 CZ          9.2498   42.3732   -1.0152 C.ar      5 PHE5        0.0000 
     31 CZ          8.0281   42.6012   -0.1752 C.ar      5 PHE5        0.0000 
     32 CA          8.3795   42.0444   -2.1918 C.3       6 GLY6        0.0000 
     33 CA          7.1578   42.2724   -1.3518 C.3       6 GLY6        0.0000 
     34 CA         13.6176   40.5757   -7.5681 C.3       6 GLY6        0.0000 
     35 N          12.3959   40.8037   -6.7282 N.2       2 ALA2        0.0000 
     36 N          11.1742   41.0317   -5.8882 N.2       2 ALA2        0.0000 
     37 N           9.9525   41.2596   -5.0483 N.2       2 ALA2        0.0000 
     38 N           8.7309   41.4876   -4.2083 N.2       2 ALA2        0.0000 
     39 CA          7.5092   41.7156   -3.3684 C.3       6 GLY6        0.0000 
     40 CA          6.2875   41.9436   -2.5285 C.3       6 GLY6        0.0000 
     41 OG         12.7473   40.2469   -8.7447 O.2       1 SER1        0.0000 
     42 OG         11.5256   40.4749   -7.9048 O.2       1 SER1        0.0000 
     43 N          10.3039   40.7029   -7.0649 N.2       2 ALA2        0.0000 
     44 CA          6.6388   41.3868   -4.5450 C.3       6 GLY6        0.0000 
     45 O           5.4172   41.6148   -3.7051 O.2       2 ALA2        0.0000 
     46 CA         11.3471   41.0284   -0.2784 C.3       6 GLY6        0.0000 
     47 N          10.4768   40.6996   -1.4550 N.2       2 ALA2        0.0000 
     48 CA          9.2551   40.9275   -0.6151 C.3       6 GLY6        0.0000 
     49 N           9.6064   40.3708   -2.6317 N.2       2 ALA2        0.0000 
     50 CA          8.3848   40.5987   -1.7917 C.3       6 GLY6        0.0000 
     51 CA         13.6229   39.1300   -7.1680 C.3       6 GLY6        0.0000 
     52 N          12.4012   39.3580   -6.3281 N.2       2 ALA2        0.0000 
     53 N          11.1795   39.5860   -5.4882 N.2       2 ALA2        0.0000 
     54 N           9.9578   39.8140   -4.6482 N.2       2 ALA2        0.0000 
     55 N           8.7361   40.0420   -3.8083 N.2       2 ALA2        0.0000 
     56 CA          7.5144   40.2699   -2.9683 C.3       6 GLY6        0.0000 
     57 OG         12.7526   38.8012   -8.3447 O.2       1 SER1        0.0000 
     58 OD1        11.5309   39.0292   -7.5047 O.3       3 ASP3        0.0000 
     59 N          10.3092   39.2572   -6.6648 N.2       2 ALA2        0.0000 
     60 CA         10.1307   39.8107    0.9616 C.3       6 GLY6        0.0000 
     61 NZ         11.7037   39.0259   -1.8949 N.2       4 LYS4        0.0000 
     62 N          10.4820   39.2539   -1.0550 N.2       2 ALA2        0.0000 
     63 CA          9.2604   39.4819   -0.2150 C.3       6 GLY6        0.0000 
     64 NZ         10.8334   38.6971   -3.0715 N.2       4 LYS4        0.0000 
     65 CA          9.6117   38.9251   -2.2316 C.3       6 GLY6        0.0000 
     66 N           9.9631   38.3683   -4.2481 N.2       2 ALA2        0.0000 
     67 O           8.7414   38.5963   -3.4082 O.2       2 ALA2        0.0000 
     68 O           7.5197   38.8243   -2.5683 O.2       2 ALA2        0.0000 
     69 CA         10.1360   38.3650    1.3617 C.3       6 GLY6        0.0000 
     70 CA         10.4873   37.8083   -0.6549 C.3       6 GLY6        0.0000 
     71 CA          9.2656   38.0362    0.1851 C.3       6 GLY6        0.0000 
     72 NZ          9.6170   37.4795   -1.8315 N.2       4 LYS4        0.0000 
     73 CA          8.3953   37.7074   -0.9916 C.3       6 GLY6        0.0000 
     74 O           8.7467   37.1507   -3.0081 O.2       2 ALA2        0.0000 
     75 CA         10.4926   36.3626   -0.2548 C.3       6 GLY6        0.0000 
     76 CA          9.6223   36.0338   -1.4314 C.3       6 GLY6        0.0000 
     77 CA          8.4006   36.2618   -0.5915 C.3       6 GLY6        0.0000 
@<TRIPOS>BOND
@<TRIPOS>SUBSTRUCTURE
     1 SER1        2 GROUP   
     2 ALA2        1 GROUP   
     3 ASP3       58 GROUP   
     4 LYS4       61 GROUP   
     5 PHE5       10 GROUP   
     6 GLY6       12 GROUP   
     7 CUB7        6 GROUP   
@<TRIPOS>SET

