#    Name: 4d9w_X32_1_INTS_M
#    Modification time : Tue Mar 25 09:28:52 2014

@<TRIPOS>MOLECULE
4d9w_X32_1_INTS_M
   64     0    12     0     0
SMALL
NO_CHARGES


@<TRIPOS>ATOM
      1 CA         12.0745   40.9065  -11.5530 C.3       4 GLC5        0.0000 
      2 CA         13.8170   41.9030  -11.0500 C.3      12 GLL5        0.0000 
      3 CA         10.3320   39.9100  -12.0560 C.3       8 GLP5        0.0000 
      4 O          10.9225   39.6595   -9.0840 O.2       1 ALC1        0.0000 
      5 O          12.1950   40.3330   -8.2000 O.2       9 ALL1        0.0000 
      6 O           9.6500   38.9860   -9.9680 O.2       5 ALP1        0.0000 
      7 CA         14.1280   40.2515   -6.6025 C.3       4 GLC5        0.0000 
      8 CA         12.0840   40.3840   -6.7690 C.3      12 GLL5        0.0000 
      9 CA         16.1720   40.1190   -6.4360 C.3       8 GLP5        0.0000 
     10 Zn         10.1020   37.4065   -6.8570 Zn        3 ZIC7        0.0000 
     11 Zn         10.2270   38.3620   -6.6060 Zn       11 ZIL7        0.0000 
     12 Zn          9.9770   36.4510   -7.1080 Zn        7 ZIP7        0.0000 
     13 N           9.0570   39.0890   -7.0155 N.am      2 SEC2        0.0000 
     14 N          10.2270   38.3620   -6.6060 N.am     10 SEL2        0.0000 
     15 N           7.8870   39.8160   -7.4250 N.am      6 SEP2        0.0000 
     16 N          13.4525   37.0380   -5.5660 N.am      2 SEC2        0.0000 
     17 N          12.6530   37.7930   -6.2610 N.am     10 SEL2        0.0000 
     18 N          14.2520   36.2830   -4.8710 N.am      6 SEP2        0.0000 
     19 CA         10.3770   36.7265   -4.1925 C.3       4 GLC5        0.0000 
     20 CA         10.1820   38.7660   -3.6820 C.3      12 GLL5        0.0000 
     21 CA         10.5720   34.6870   -4.7030 C.3       8 GLP5        0.0000 
     22 N           6.4180   38.9255   -3.7725 N.am      2 SEC2        0.0000 
     23 N           7.8320   39.0430   -3.9340 N.am     10 SEL2        0.0000 
     24 N           5.0040   38.8080   -3.6110 N.am      6 SEP2        0.0000 
     25 N           6.9550   37.9080   -3.7315 N.am      2 SEC2        0.0000 
     26 N           6.0780   36.7730   -3.5290 N.am      6 SEP2        0.0000 
     27 CA         10.0125   36.3030    0.5065 C.3       4 GLC5        0.0000 
     28 CA          9.3110   36.8430   -1.3540 C.3      12 GLL5        0.0000 
     29 CA         10.7140   35.7630    2.3670 C.3       8 GLP5        0.0000 
     30 CA          9.6350   35.3165   -2.6225 C.3       4 GLC5        0.0000 
     31 CA          9.9590   33.7900   -3.8910 C.3       8 GLP5        0.0000 
     32 CA          7.5625   35.9690   -0.7375 C.3       4 GLC5        0.0000 
     33 CA          5.8140   35.0950   -0.1210 C.3       8 GLP5        0.0000 
     34 CA          9.4795   40.1485    1.7410 C.3       4 GLC5        0.0000 
     35 CA          9.8510   38.7850    0.1550 C.3      12 GLL5        0.0000 
     36 CA          9.1080   41.5120    3.3270 C.3       8 GLP5        0.0000 
     37 CA         11.1990   39.7800    1.0385 C.3       4 GLC5        0.0000 
     38 CA         12.5470   40.7750    1.9220 C.3       8 GLP5        0.0000 
     39 CA         10.2825   37.2740    1.2610 C.3       4 GLC5        0.0000 
     40 O          10.5230   41.4690   -3.6725 O.2       1 ALC1        0.0000 
     41 O           9.1240   40.8760   -4.2210 O.2       9 ALL1        0.0000 
     42 O          11.9220   42.0620   -3.1240 O.2       5 ALP1        0.0000 
     43 CA          7.2930   40.6080   -5.7325 C.3       4 GLC5        0.0000 
     44 CA          7.9450   41.6900   -4.5330 C.3      12 GLL5        0.0000 
     45 CA          6.6410   39.5260   -6.9320 C.3       8 GLP5        0.0000 
     46 CA         11.5830   43.5405   -0.9700 C.3       4 GLC5        0.0000 
     47 CA          9.7070   43.8050   -0.9230 C.3      12 GLL5        0.0000 
     48 CA         13.4590   43.2760   -1.0170 C.3       8 GLP5        0.0000 
     49 CA         11.4920   44.5235   -1.8810 C.3       4 GLC5        0.0000 
     50 CA          9.6670   45.1360   -1.3420 C.3      12 GLL5        0.0000 
     51 CA         13.3170   43.9110   -2.4200 C.3       8 GLP5        0.0000 
     52 N          10.5980   43.4705   -5.0355 N.am      2 SEC2        0.0000 
     53 N           9.4770   42.9390   -5.8390 N.am     10 SEL2        0.0000 
     54 N          11.7190   44.0020   -4.2320 N.am      6 SEP2        0.0000 
     55 CA         18.9833   39.7690  -10.8637 C.3       4 GLC5        0.0000 
     56 CA         17.5610   41.1810  -11.1480 C.3      12 GLL5        0.0000 
     57 CA         20.3410   38.6750   -9.9620 C.3       8 GLP5        0.0000 
     58 CA          7.9748   39.0824   -0.4516 C.3       4 GLC5        0.0000 
     59 CA          9.5010   38.3580   -1.2610 C.3      12 GLL5        0.0000 
     60 CA          6.3210   39.9720   -0.3270 C.3       8 GLP5        0.0000 
     61 CA          7.3159   41.3790   -1.2901 C.3       4 GLC5        0.0000 
     62 CA          7.2660   42.1950   -3.2740 C.3      12 GLL5        0.0000 
     63 CA         10.7145   45.6478    0.2893 C.3       4 GLC5        0.0000 
     64 CA         11.7420   46.8250    1.7110 C.3       8 GLP5        0.0000 
@<TRIPOS>BOND
@<TRIPOS>SUBSTRUCTURE
     1 ALC1        4 GROUP        1 X    ALC  0     ROOT ALC X 1
     2 SEC2       13 GROUP        1 X    SEC  0     **** SEC X 2
     3 ZIC7       10 GROUP        1 X    ZIC  0     **** ZIC X 5
     4 GLC5        1 GROUP        1 X    GLC  0     **** GLC X 6
     5 ALP1        6 GROUP        1 Y    ALP  0     ROOT ALP Y 8
     6 SEP2       15 GROUP        1 Y    SEP  0     **** SEP Y 9
     7 ZIP7       12 GROUP        1 Y    ZIP  0     **** ZIP Y 12
     8 GLP5        3 GROUP        1 Y    GLP  0     **** GLP Y 13
     9 ALL1        5 GROUP        1 Z    ALL  0     ROOT ALL Z 15
    10 SEL2       14 GROUP        1 Z    SEL  0     **** SEL Z 16
    11 ZIL7       11 GROUP        1 Z    ZIL  0     **** ZIL Z 19
    12 GLL5        2 GROUP        1 Z    GLL  0     **** GLL Z 20
@<TRIPOS>SET

