#    Name: 4d9w_X32_1_ligand
#    Modification time : Tue Mar 25 09:28:52 2014

@<TRIPOS>MOLECULE
4d9w_X32_1_ligand
   64    65     1     0     0
SMALL
NO_CHARGES


@<TRIPOS>ATOM
      1 C3         15.3020   40.8060  -12.7410 C.ar      1 X32401      0.0000 
      2 C2         16.5540   40.3640  -13.1670 C.ar      1 X32401      0.0000 
      3 C1         17.6900   40.5450  -12.3830 C.ar      1 X32401      0.0000 
      4 C6         17.5610   41.1810  -11.1480 C.ar      1 X32401      0.0000 
      5 C5         16.3100   41.6140  -10.7130 C.ar      1 X32401      0.0000 
      6 C4         15.1760   41.4250  -11.5070 C.ar      1 X32401      0.0000 
      7 C7         13.8170   41.9030  -11.0500 C.3       1 X32401      0.0000 
      8 O8         13.0180   40.9880  -10.2990 O.3       1 X32401      0.0000 
      9 C9         12.9890   41.1360   -8.8730 C.2       1 X32401      0.0000 
     10 O22        13.7190   41.9660   -8.3330 O.2       1 X32401      0.0000 
     11 N10        12.1950   40.3330   -8.2000 N.am      1 X32401      0.0000 
     12 C11        12.0840   40.3840   -6.7690 C.3       1 X32401      0.0000 
     13 P12        11.5540   38.8070   -6.0750 P.3       1 X32401      0.0000 
     14 O24        10.2270   38.3620   -6.6060 O.co2     1 X32401      0.0000 
     15 O23        12.6530   37.7930   -6.2610 O.co2     1 X32401      0.0000 
     16 N13        11.3380   39.2210   -4.4730 N.3       1 X32401      0.0000 
     17 C14        10.1820   38.7660   -3.6820 C.3       1 X32401      0.0000 
     18 C15         8.9430   39.5830   -3.9520 C.2       1 X32401      0.0000 
     19 O29         7.8320   39.0430   -3.9340 O.2       1 X32401      0.0000 
     20 C25        10.5710   38.8860   -2.2150 C.3       1 X32401      0.0000 
     21 C26         9.5010   38.3580   -1.2610 C.3       1 X32401      0.0000 
     22 C27         9.3110   36.8430   -1.3540 C.3       1 X32401      0.0000 
     23 C28         9.8510   38.7850    0.1550 C.3       1 X32401      0.0000 
     24 N16         9.1240   40.8760   -4.2210 N.am      1 X32401      0.0000 
     25 C17         7.9450   41.6900   -4.5330 C.3       1 X32401      0.0000 
     26 C18         8.2660   42.7730   -5.5140 C.2       1 X32401      0.0000 
     27 O37         7.3100   43.4150   -6.0090 O.co2     1 X32401      0.0000 
     28 C30         7.2660   42.1950   -3.2740 C.3       1 X32401      0.0000 
     29 C31         8.1250   43.2370   -2.6110 C.ar      1 X32401      0.0000 
     30 C36         8.0610   44.5700   -3.0230 C.ar      1 X32401      0.0000 
     31 C32         8.9260   42.8560   -1.5640 C.ar      1 X32401      0.0000 
     32 C35         8.8460   45.5240   -2.3940 C.ar      1 X32401      0.0000 
     33 C33         9.7070   43.8050   -0.9230 C.ar      1 X32401      0.0000 
     34 C34         9.6670   45.1360   -1.3420 C.ar      1 X32401      0.0000 
     35 O19         9.4770   42.9390   -5.8390 O.co2     1 X32401      0.0000 
     36 H          14.4802   40.6720  -13.3406 H         1 X32401      0.0000 
     37 H          16.6395   39.8915  -14.0856 H         1 X32401      0.0000 
     38 H          18.6006   40.2191  -12.7043 H         1 X32401      0.0000 
     39 H          18.3897   41.3299  -10.5591 H         1 X32401      0.0000 
     40 H          16.2186   42.0783   -9.7970 H         1 X32401      0.0000 
     41 H          13.2589   42.2524  -11.9691 H         1 X32401      0.0000 
     42 H          13.9772   42.8582  -10.4667 H         1 X32401      0.0000 
     43 H          11.5996   39.6108   -8.6783 H         1 X32401      0.0000 
     44 H          11.3205   41.0508   -6.3827 H         1 X32401      0.0000 
     45 H          13.0130   40.5476   -6.2335 H         1 X32401      0.0000 
     46 H           9.9824   37.7272   -3.8850 H         1 X32401      0.0000 
     47 H          10.7685   39.9423   -1.9798 H         1 X32401      0.0000 
     48 H          11.5060   38.3323   -2.0437 H         1 X32401      0.0000 
     49 H           8.5524   38.8405   -1.5248 H         1 X32401      0.0000 
     50 H          10.0251   41.3416   -4.2256 H         1 X32401      0.0000 
     51 H           7.1994   41.0095   -5.0367 H         1 X32401      0.0000 
     52 H           7.1078   41.3608   -2.5925 H         1 X32401      0.0000 
     53 H           6.3008   42.6258   -3.5351 H         1 X32401      0.0000 
     54 H           7.4331   44.8379   -3.7897 H         1 X32401      0.0000 
     55 H           8.9511   41.8763   -1.2527 H         1 X32401      0.0000 
     56 H           8.8223   46.4999   -2.6987 H         1 X32401      0.0000 
     57 H          10.3153   43.5339   -0.1410 H         1 X32401      0.0000 
     58 H          10.2545   45.8373   -0.8636 H         1 X32401      0.0000 
     59 H          10.1530   36.3491   -1.1369 H         1 X32401      0.0000 
     60 H           8.6086   36.5172   -0.7211 H         1 X32401      0.0000 
     61 H           9.0330   36.5592   -2.2717 H         1 X32401      0.0000 
     62 H          10.7376   38.4235    0.4435 H         1 X32401      0.0000 
     63 H           9.8979   39.7801    0.2420 H         1 X32401      0.0000 
     64 H           9.1741   38.4644    0.8176 H         1 X32401      0.0000 
@<TRIPOS>BOND
     1    2    1 ar   
     2    6    1 ar   
     3   36    1 1    
     4    3    2 ar   
     5   37    2 1    
     6    4    3 ar   
     7   38    3 1    
     8    5    4 ar   
     9   39    4 1    
    10    6    5 ar   
    11   40    5 1    
    12    7    6 1    
    13    8    7 1    
    14   41    7 1    
    15   42    7 1    
    16    9    8 1    
    17   10    9 2    
    18   11    9 am   
    19   12   11 1    
    20   43   11 1    
    21   13   12 1    
    22   44   12 1    
    23   45   12 1    
    24   14   13 ar   
    25   15   13 ar   
    26   16   13 1    
    27   17   16 1    
    28   18   17 1    
    29   20   17 1    
    30   46   17 1    
    31   19   18 2    
    32   24   18 am   
    33   21   20 1    
    34   47   20 1    
    35   48   20 1    
    36   22   21 1    
    37   23   21 1    
    38   49   21 1    
    39   59   22 1    
    40   60   22 1    
    41   61   22 1    
    42   62   23 1    
    43   63   23 1    
    44   64   23 1    
    45   25   24 1    
    46   50   24 1    
    47   26   25 1    
    48   28   25 1    
    49   51   25 1    
    50   27   26 ar   
    51   35   26 ar   
    52   29   28 1    
    53   52   28 1    
    54   53   28 1    
    55   30   29 ar   
    56   31   29 ar   
    57   32   30 ar   
    58   54   30 1    
    59   33   31 ar   
    60   55   31 1    
    61   34   32 ar   
    62   56   32 1    
    63   34   33 ar   
    64   57   33 1    
    65   58   34 1    
@<TRIPOS>SUBSTRUCTURE
     1 X32401      1 GROUP   
@<TRIPOS>SET

