#    Name: 3bu5_ATP_1_INTS_M
#    Modification time : Mon Mar 24 20:04:29 2014

@<TRIPOS>MOLECULE
3bu5_ATP_1_INTS_M
   60     0    15     0     0
SMALL
NO_CHARGES


@<TRIPOS>ATOM
      1 NZ          3.1710   10.3810   23.2055 N.4       3 LYC4        0.0000 
      2 NZ          4.6850   10.5610   24.1510 N.4      13 LYL4        0.0000 
      3 NZ          1.6570   10.2010   22.2600 N.4       8 LYP4        0.0000 
      4 N           4.1415    8.0190   25.4115 N.am      2 SEC2        0.0000 
      5 N           4.5750    9.0110   26.1510 N.am     12 SEL2        0.0000 
      6 N           3.7080    7.0270   24.6720 N.am      7 SEP2        0.0000 
      7 Zn          1.8105    7.1030   26.2260 Zn        4 ZIC7        0.0000 
      8 Zn          1.3440    8.1150   26.5110 Zn       14 ZIL7        0.0000 
      9 Zn          2.2770    6.0910   25.9410 Zn        9 ZIP7        0.0000 
     10 N           2.1110    9.8730   23.5215 N.am      2 SEC2        0.0000 
     11 N           2.5650    9.5450   24.7830 N.am     12 SEL2        0.0000 
     12 N           1.6570   10.2010   22.2600 N.am      7 SEP2        0.0000 
     13 NZ          1.1670    8.8940   22.1930 N.4       3 LYC4        0.0000 
     14 NZ          0.6770    7.5870   22.1260 N.4      13 LYL4        0.0000 
     15 N           1.1670    8.8940   22.1930 N.am      2 SEC2        0.0000 
     16 N           0.6770    7.5870   22.1260 N.am     12 SEL2        0.0000 
     17 Zn          1.5530    6.1975   25.1510 Zn        4 ZIC7        0.0000 
     18 Zn          0.8290    6.3040   24.3610 Zn       14 ZIL7        0.0000 
     19 CA         -2.8175    8.9340   23.5155 C.3       5 GLC5        0.0000 
     20 CA         -2.1370    7.2080   24.7810 C.3      15 GLL5        0.0000 
     21 CA         -3.4980   10.6600   22.2500 C.3      10 GLP5        0.0000 
     22 CA         -1.4535    4.0590   22.9975 C.3       5 GLC5        0.0000 
     23 CA         -2.7450    4.8060   24.2420 C.3      15 GLL5        0.0000 
     24 CA         -0.1620    3.3120   21.7530 C.3      10 GLP5        0.0000 
     25 O          -3.2335    2.7470   25.6345 O.2       1 ALC1        0.0000 
     26 O          -2.2540    3.9640   25.3130 O.2      11 ALL1        0.0000 
     27 O          -4.2130    1.5300   25.9560 O.2       6 ALP1        0.0000 
     28 CA         -2.7235    3.3105   22.2480 C.3       5 GLC5        0.0000 
     29 CA         -3.9350    4.2530   23.4610 C.3      15 GLL5        0.0000 
     30 CA         -1.5120    2.3680   21.0350 C.3      10 GLP5        0.0000 
     31 N          -4.6680    2.0030   23.5890 N.am      2 SEC2        0.0000 
     32 N          -4.8850    3.5760   24.3010 N.am     12 SEL2        0.0000 
     33 N          -4.4510    0.4300   22.8770 N.am      7 SEP2        0.0000 
     34 O          -4.5490    2.5530   25.1285 O.2       1 ALC1        0.0000 
     35 O          -4.8850    3.5760   24.3010 O.2      11 ALL1        0.0000 
     36 CA         -3.5515    3.6425   16.9275 C.3       5 GLC5        0.0000 
     37 CA         -3.8740    5.3950   17.8470 C.3      15 GLL5        0.0000 
     38 CA         -3.2290    1.8900   16.0080 C.3      10 GLP5        0.0000 
     39 O          -3.3785    5.5565   15.4940 O.2       1 ALC1        0.0000 
     40 O          -3.0570    5.7820   16.8290 O.2      11 ALL1        0.0000 
     41 O          -3.7000    5.3310   14.1590 O.2       6 ALP1        0.0000 
     42 N          -5.4835    3.8630   16.6010 N.am      2 SEC2        0.0000 
     43 N          -5.0140    4.6950   17.6280 N.am     12 SEL2        0.0000 
     44 N          -5.9530    3.0310   15.5740 N.am      7 SEP2        0.0000 
     45 CA         -7.1830    5.8655   18.9550 C.3       5 GLC5        0.0000 
     46 CA         -5.8260    4.3260   18.6400 C.3      15 GLL5        0.0000 
     47 CA         -8.5400    7.4050   19.2700 C.3      10 GLP5        0.0000 
     48 CA         -5.7335    6.2820   17.5520 C.3       5 GLC5        0.0000 
     49 CA         -5.6410    8.2380   16.4640 C.3      10 GLP5        0.0000 
     50 CA         -7.3535    4.9145   17.2990 C.3       5 GLC5        0.0000 
     51 CA         -8.8810    5.5030   15.9580 C.3      10 GLP5        0.0000 
     52 CA         -5.1590    2.9260   17.7375 C.3       5 GLC5        0.0000 
     53 CA         -4.4920    1.5260   16.8350 C.3      10 GLP5        0.0000 
     54 CA         -6.0660    2.5940   20.0135 C.3       5 GLC5        0.0000 
     55 CA         -6.3060    0.8620   21.3870 C.3      10 GLP5        0.0000 
     56 CA         -2.9330    2.7088   24.1043 C.3       5 GLC5        0.0000 
     57 CA         -2.5260    0.8880   24.3570 C.3      10 GLP5        0.0000 
     58 CA         -4.6772    6.9020   17.5087 C.3       5 GLC5        0.0000 
     59 CA         -3.5530    5.7370   19.2600 C.3      15 GLL5        0.0000 
     60 CA         -2.7677    3.9407   20.4115 C.3       5 GLC5        0.0000 
@<TRIPOS>BOND
@<TRIPOS>SUBSTRUCTURE
     1 ALC1       25 GROUP        1 X    ALC  0     ROOT ALC X 1
     2 SEC2        4 GROUP        1 X    SEC  0     **** SEC X 2
     3 LYC4        1 GROUP        1 X    LYC  0     **** LYC X 4
     4 ZIC7        7 GROUP        1 X    ZIC  0     **** ZIC X 5
     5 GLC5       19 GROUP        1 X    GLC  0     **** GLC X 6
     6 ALP1       27 GROUP        1 Y    ALP  0     ROOT ALP Y 8
     7 SEP2        6 GROUP        1 Y    SEP  0     **** SEP Y 9
     8 LYP4        3 GROUP        1 Y    LYP  0     **** LYP Y 11
     9 ZIP7        9 GROUP        1 Y    ZIP  0     **** ZIP Y 12
    10 GLP5       21 GROUP        1 Y    GLP  0     **** GLP Y 13
    11 ALL1       26 GROUP        1 Z    ALL  0     ROOT ALL Z 15
    12 SEL2        5 GROUP        1 Z    SEL  0     **** SEL Z 16
    13 LYL4        2 GROUP        1 Z    LYL  0     **** LYL Z 18
    14 ZIL7        8 GROUP        1 Z    ZIL  0     **** ZIL Z 19
    15 GLL5       20 GROUP        1 Z    GLL  0     **** GLL Z 20
@<TRIPOS>SET

