#    Name: 3bu5_ATP_1_ligand
#    Modification time : Mon Mar 24 20:04:30 2014

@<TRIPOS>MOLECULE
3bu5_ATP_1_ligand
   43    45     1     0     0
SMALL
NO_CHARGES


@<TRIPOS>ATOM
      1 PG          3.9320   10.1420   25.3880 P.3       1 ATP300      0.0000 
      2 O1G         4.6850   10.5610   24.1510 O.co2     1 ATP300      0.0000 
      3 O2G         3.4860   11.2960   26.2650 O.co2     1 ATP300      0.0000 
      4 O3G         4.5750    9.0110   26.1510 O.co2     1 ATP300      0.0000 
      5 PB          1.1820    9.2850   25.5770 P.3       1 ATP300      0.0000 
      6 O1B         1.3440    8.1150   26.5110 O.co2     1 ATP300      0.0000 
      7 O2B         0.6380   10.5860   26.1160 O.co2     1 ATP300      0.0000 
      8 O3B         2.5650    9.5450   24.7830 O.3       1 ATP300      0.0000 
      9 PA          0.2070    7.4290   23.5580 P.3       1 ATP300      0.0000 
     10 O1A         0.6770    7.5870   22.1260 O.co2     1 ATP300      0.0000 
     11 O2A         0.8290    6.3040   24.3610 O.co2     1 ATP300      0.0000 
     12 O3A         0.2700    8.8810   24.2950 O.3       1 ATP300      0.0000 
     13 O5'        -1.3990    7.2450   23.5520 O.3       1 ATP300      0.0000 
     14 C5'        -2.1370    7.2080   24.7810 C.3       1 ATP300      0.0000 
     15 C4'        -3.2550    6.1680   24.7050 C.3       1 ATP300      0.0000 
     16 O4'        -4.2600    6.5700   23.7490 O.3       1 ATP300      0.0000 
     17 C3'        -2.7450    4.8060   24.2420 C.3       1 ATP300      0.0000 
     18 O3'        -2.2540    3.9640   25.3130 O.3       1 ATP300      0.0000 
     19 C2'        -3.9350    4.2530   23.4610 C.3       1 ATP300      0.0000 
     20 O2'        -4.8850    3.5760   24.3010 O.3       1 ATP300      0.0000 
     21 C1'        -4.5770    5.4970   22.8510 C.3       1 ATP300      0.0000 
     22 N9         -3.9910    5.7250   21.4880 N.pl3     1 ATP300      0.0000 
     23 C8         -2.8340    6.3750   21.2090 C.2       1 ATP300      0.0000 
     24 N7         -2.5560    6.3980   19.8790 N.2       1 ATP300      0.0000 
     25 C5         -3.5530    5.7370   19.2600 C.ar      1 ATP300      0.0000 
     26 C6         -3.8740    5.3950   17.8470 C.ar      1 ATP300      0.0000 
     27 N6         -3.0570    5.7820   16.8290 N.pl3     1 ATP300      0.0000 
     28 N1         -5.0140    4.6950   17.6280 N.ar      1 ATP300      0.0000 
     29 C2         -5.8260    4.3260   18.6400 C.ar      1 ATP300      0.0000 
     30 N3         -5.5990    4.5860   19.9430 N.ar      1 ATP300      0.0000 
     31 C4         -4.4940    5.2900   20.3160 C.ar      1 ATP300      0.0000 
     32 H          -2.5983    8.1798   25.0042 H         1 ATP300      0.0000 
     33 H          -1.4925    6.9453   25.6311 H         1 ATP300      0.0000 
     34 H          -3.6941    6.0476   25.6802 H         1 ATP300      0.0000 
     35 H          -1.9637    5.0173   23.4977 H         1 ATP300      0.0000 
     36 H          -3.5689    3.6521   22.6657 H         1 ATP300      0.0000 
     37 H          -5.6222    5.3306   22.7856 H         1 ATP300      0.0000 
     38 H          -2.2548    6.7877   21.8971 H         1 ATP300      0.0000 
     39 H          -3.3366    5.5033   15.9102 H         1 ATP300      0.0000 
     40 H          -2.2493    6.3108   17.0898 H         1 ATP300      0.0000 
     41 H          -6.7204    3.7844   18.3882 H         1 ATP300      0.0000 
     42 H          -2.9812    3.2961   25.4710 H         1 ATP300      0.0000 
     43 H          -4.3574    2.8670   24.7689 H         1 ATP300      0.0000 
@<TRIPOS>BOND
     1    2    1 ar   
     2    3    1 ar   
     3    4    1 ar   
     4    8    1 1    
     5    6    5 ar   
     6    7    5 ar   
     7    8    5 1    
     8   12    5 1    
     9   10    9 ar   
    10   11    9 ar   
    11   12    9 1    
    12   13    9 1    
    13   14   13 1    
    14   15   14 1    
    15   32   14 1    
    16   33   14 1    
    17   16   15 1    
    18   17   15 1    
    19   34   15 1    
    20   21   16 1    
    21   18   17 1    
    22   19   17 1    
    23   35   17 1    
    24   42   18 1    
    25   20   19 1    
    26   21   19 1    
    27   36   19 1    
    28   43   20 1    
    29   22   21 1    
    30   37   21 1    
    31   23   22 1    
    32   31   22 1    
    33   24   23 2    
    34   38   23 1    
    35   25   24 1    
    36   26   25 ar   
    37   31   25 ar   
    38   27   26 1    
    39   28   26 ar   
    40   39   27 1    
    41   40   27 1    
    42   29   28 ar   
    43   30   29 ar   
    44   41   29 1    
    45   31   30 ar   
@<TRIPOS>SUBSTRUCTURE
     1 ATP300      1 GROUP   
@<TRIPOS>SET

