#    Name: 1uyc_PU7_1_INTS_M
#    Modification time : Tue Mar 25 07:18:11 2014

@<TRIPOS>MOLECULE
1uyc_PU7_1_INTS_M
   57     0     6     0     0
SMALL
NO_CHARGES


@<TRIPOS>ATOM
      1 CA          6.8075   10.6005   25.0510 C.3       2 GLC5        0.0000 
      2 CA          7.7380   10.0170   23.0910 C.3       6 GLL5        0.0000 
      3 CA          5.8770   11.1840   27.0110 C.3       4 GLP5        0.0000 
      4 CA          9.6300    9.6975   23.0525 C.3       2 GLC5        0.0000 
      5 CA         11.5220    9.3780   23.0140 C.3       4 GLP5        0.0000 
      6 CA          8.7255   11.2450   21.9575 C.3       2 GLC5        0.0000 
      7 CA          9.7130   12.4730   20.8240 C.3       4 GLP5        0.0000 
      8 CA          4.6895   15.9755   27.5965 C.3       2 GLC5        0.0000 
      9 CA          4.8610   16.0970   25.6550 C.3       6 GLL5        0.0000 
     10 CA          4.5180   15.8540   29.5380 C.3       4 GLP5        0.0000 
     11 CA          4.6270   16.4825   23.7550 C.3       2 GLC5        0.0000 
     12 CA          4.3930   16.8680   21.8550 C.3       4 GLP5        0.0000 
     13 CA          3.4550   17.1970   25.0115 C.3       2 GLC5        0.0000 
     14 CA          2.0490   18.2970   24.3680 C.3       4 GLP5        0.0000 
     15 CA          5.4705   17.7045   25.9270 C.3       2 GLC5        0.0000 
     16 CA          6.0800   19.3120   26.1990 C.3       4 GLP5        0.0000 
     17 CA          0.0130   10.0495   22.8210 C.3       2 GLC5        0.0000 
     18 CA          0.1980   10.6660   24.8270 C.3       6 GLL5        0.0000 
     19 CA         -0.1720    9.4330   20.8150 C.3       4 GLP5        0.0000 
     20 CA         -2.3625    9.2875   25.6505 C.3       2 GLC5        0.0000 
     21 CA         -1.1490   10.8710   25.0860 C.3       6 GLL5        0.0000 
     22 CA         -3.5760    7.7040   26.2150 C.3       4 GLP5        0.0000 
     23 CA         -2.1225   12.5530   25.9425 C.3       2 GLC5        0.0000 
     24 CA         -3.0960   14.2350   26.7990 C.3       4 GLP5        0.0000 
     25 O          -3.4280   11.7255   24.2555 O.2       1 ALC1        0.0000 
     26 O          -2.0300   11.5510   24.1910 O.2       5 ALL1        0.0000 
     27 O          -4.8260   11.9000   24.3200 O.2       3 ALP1        0.0000 
     28 CA          1.7235   11.1825   26.8325 C.3       2 GLC5        0.0000 
     29 CA          0.9590    9.9560   25.7260 C.3       6 GLL5        0.0000 
     30 CA          2.4880   12.4090   27.9390 C.3       4 GLP5        0.0000 
     31 CA         -2.2015    8.7040   26.6785 C.3       2 GLC5        0.0000 
     32 CA         -0.8270    9.7040   27.1420 C.3       6 GLL5        0.0000 
     33 CA         -1.6645    8.2920   28.6380 C.3       2 GLC5        0.0000 
     34 CA         -2.5020    6.8800   30.1340 C.3       4 GLP5        0.0000 
     35 CA          0.4965   10.6660   28.2735 C.3       2 GLC5        0.0000 
     36 CA          1.8200   11.6280   29.4050 C.3       4 GLP5        0.0000 
     37 CA          2.9300   10.8205   26.8590 C.3       2 GLC5        0.0000 
     38 CA          3.3720    9.2320   25.7790 C.3       6 GLL5        0.0000 
     39 CA          4.6245   10.2080   26.3950 C.3       2 GLC5        0.0000 
     40 CA          4.8595    8.3875   26.9120 C.3       2 GLC5        0.0000 
     41 CA          3.4270    7.7050   25.6300 C.3       6 GLL5        0.0000 
     42 CA          6.2920    9.0700   28.1940 C.3       4 GLP5        0.0000 
     43 CA          6.0815   11.6355   25.3178 C.3       2 GLC5        0.0000 
     44 CA          5.8380   11.5810   23.4170 C.3       6 GLL5        0.0000 
     45 CA          5.5975   12.4550   21.9633 C.3       2 GLC5        0.0000 
     46 CA          6.7340   12.5930   23.8320 C.3       6 GLL5        0.0000 
     47 CA          4.9090   12.8230   20.3020 C.3       4 GLP5        0.0000 
     48 CA          5.6967   12.4795   25.7840 C.3       2 GLC5        0.0000 
     49 CA          6.2120   13.7390   24.4690 C.3       6 GLL5        0.0000 
     50 CA          5.2127   13.2990   22.4295 C.3       2 GLC5        0.0000 
     51 CA          3.4385   12.8550   26.1992 C.3       2 GLC5        0.0000 
     52 CA          3.9570   12.7910   24.2740 C.3       6 GLL5        0.0000 
     53 CA          5.0395   11.7070   25.4838 C.3       2 GLC5        0.0000 
     54 CA          4.3670   12.1200   21.9446 C.3       2 GLC5        0.0000 
     55 CA          4.4470   11.6690   23.6390 C.3       6 GLL5        0.0000 
     56 CA          0.4267   12.2432   26.2168 C.3       2 GLC5        0.0000 
     57 CA          1.3290   13.7180   27.4770 C.3       4 GLP5        0.0000 
@<TRIPOS>BOND
@<TRIPOS>SUBSTRUCTURE
     1 ALC1       25 GROUP        1 X    ALC  0     ROOT ALC X 1
     2 GLC5        1 GROUP        1 X    GLC  0     **** GLC X 6
     3 ALP1       27 GROUP        1 Y    ALP  0     ROOT ALP Y 8
     4 GLP5        3 GROUP        1 Y    GLP  0     **** GLP Y 13
     5 ALL1       26 GROUP        1 Z    ALL  0     ROOT ALL Z 15
     6 GLL5        2 GROUP        1 Z    GLL  0     **** GLL Z 20
@<TRIPOS>SET

