#    Name: 1uyc_PU7_1_ligand
#    Modification time : Tue Mar 25 07:18:11 2014

@<TRIPOS>MOLECULE
1uyc_PU7_1_ligand
   48    50     1     0     0
SMALL
NO_CHARGES


@<TRIPOS>ATOM
      1 C19         7.7380   10.0170   23.0910 C.3       1 PU71224     0.0000 
      2 C5          6.7340   12.5930   23.8320 C.ar      1 PU71224     0.0000 
      3 O20         6.3690   10.4460   22.7950 O.3       1 PU71224     0.0000 
      4 C6          5.8380   11.5810   23.4170 C.ar      1 PU71224     0.0000 
      5 C4          6.2120   13.7390   24.4690 C.ar      1 PU71224     0.0000 
      6 C3          4.8210   13.8110   24.6450 C.ar      1 PU71224     0.0000 
      7 O2          4.1810   14.9090   25.2820 O.3       1 PU71224     0.0000 
      8 C8          4.8610   16.0970   25.6550 C.3       1 PU71224     0.0000 
      9 C2          3.9570   12.7910   24.2740 C.ar      1 PU71224     0.0000 
     10 C1          4.4470   11.6690   23.6390 C.ar      1 PU71224     0.0000 
     11 C9          3.4480   10.6040   23.2180 C.3       1 PU71224     0.0000 
     12 C10         2.1830   10.4840   24.0560 C.2       1 PU71224     0.0000 
     13 N1          0.9770   11.0060   23.7820 N.2       1 PU71224     0.0000 
     14 C11         0.1980   10.6660   24.8270 C.ar      1 PU71224     0.0000 
     15 C13        -1.1490   10.8710   25.0860 C.ar      1 PU71224     0.0000 
     16 N5         -2.0300   11.5510   24.1910 N.pl3     1 PU71224     0.0000 
     17 C12         0.9590    9.9560   25.7260 C.ar      1 PU71224     0.0000 
     18 N4          0.4920    9.5090   26.8940 N.ar      1 PU71224     0.0000 
     19 C14        -0.8270    9.7040   27.1420 C.ar      1 PU71224     0.0000 
     20 N3         -1.6940   10.4430   26.2530 N.ar      1 PU71224     0.0000 
     21 N2          2.1600    9.8720   25.2240 N.pl3     1 PU71224     0.0000 
     22 C15         3.3720    9.2320   25.7790 C.3       1 PU71224     0.0000 
     23 C16         3.4270    7.7050   25.6300 C.3       1 PU71224     0.0000 
     24 C17         3.9250    7.0200   24.3570 C.3       1 PU71224     0.0000 
     25 C18         5.3200    7.2640   23.7080 C.3       1 PU71224     0.0000 
     26 H           7.7284   12.4964   23.6750 H         1 PU71224     0.0000 
     27 H           6.8186   14.4772   24.7849 H         1 PU71224     0.0000 
     28 H           2.9495   12.8751   24.4745 H         1 PU71224     0.0000 
     29 H           3.9636    9.6142   23.2092 H         1 PU71224     0.0000 
     30 H           3.1552   10.7885   22.1569 H         1 PU71224     0.0000 
     31 H          -1.6237   11.8791   23.3381 H         1 PU71224     0.0000 
     32 H          -2.9791   11.6420   24.4923 H         1 PU71224     0.0000 
     33 H          -1.2721    9.3163   28.0067 H         1 PU71224     0.0000 
     34 H           3.4682    9.4719   26.8605 H         1 PU71224     0.0000 
     35 H           4.2806    9.6538   25.2962 H         1 PU71224     0.0000 
     36 H           2.3845    7.2995   25.8587 H         1 PU71224     0.0000 
     37 H           4.0341    7.2957   26.5060 H         1 PU71224     0.0000 
     38 H           3.1421    7.1979   23.5337 H         1 PU71224     0.0000 
     39 H           3.8250    5.8844   24.5076 H         1 PU71224     0.0000 
     40 H           8.4068   10.7236   22.8598 H         1 PU71224     0.0000 
     41 H           7.8592    9.8047   24.0607 H         1 PU71224     0.0000 
     42 H           7.9892    9.1964   22.5777 H         1 PU71224     0.0000 
     43 H           5.6004   15.9139   26.3029 H         1 PU71224     0.0000 
     44 H           5.2698   16.5545   24.8653 H         1 PU71224     0.0000 
     45 H           4.2468   16.7556   26.0897 H         1 PU71224     0.0000 
     46 H           6.0658    7.0303   24.3318 H         1 PU71224     0.0000 
     47 H           5.4462    6.7153   22.8816 H         1 PU71224     0.0000 
     48 H           5.4457    8.2210   23.4464 H         1 PU71224     0.0000 
@<TRIPOS>BOND
     1    3    1 1    
     2   40    1 1    
     3   41    1 1    
     4   42    1 1    
     5    4    2 ar   
     6    5    2 ar   
     7   26    2 1    
     8    4    3 1    
     9   10    4 ar   
    10    6    5 ar   
    11   27    5 1    
    12    7    6 1    
    13    9    6 ar   
    14    8    7 1    
    15   43    8 1    
    16   44    8 1    
    17   45    8 1    
    18   10    9 ar   
    19   28    9 1    
    20   11   10 1    
    21   12   11 1    
    22   29   11 1    
    23   30   11 1    
    24   13   12 2    
    25   21   12 1    
    26   14   13 1    
    27   15   14 ar   
    28   17   14 ar   
    29   16   15 1    
    30   20   15 ar   
    31   31   16 1    
    32   32   16 1    
    33   18   17 ar   
    34   21   17 1    
    35   19   18 ar   
    36   20   19 ar   
    37   33   19 1    
    38   22   21 1    
    39   23   22 1    
    40   34   22 1    
    41   35   22 1    
    42   24   23 1    
    43   36   23 1    
    44   37   23 1    
    45   25   24 1    
    46   38   24 1    
    47   39   24 1    
    48   46   25 1    
    49   47   25 1    
    50   48   25 1    
@<TRIPOS>SUBSTRUCTURE
     1 PU71224     1 GROUP   
@<TRIPOS>SET

