#    Name: 2hny_NVP_1_INTS_M
#    Modification time : Tue Mar 25 16:50:51 2014

@<TRIPOS>MOLECULE
2hny_NVP_1_INTS_M
   50     0     3     0     0
SMALL
NO_CHARGES


@<TRIPOS>ATOM
      1 CA          4.2695  -41.7545   21.9840 C.3       1 GLC5        0.0000 
      2 CA          2.9380  -40.0510   21.5440 C.3       3 GLL5        0.0000 
      3 CA          5.6010  -43.4580   22.4240 C.3       2 GLP5        0.0000 
      4 CA          4.5730  -39.5025   22.7285 C.3       1 GLC5        0.0000 
      5 CA          6.2080  -38.9540   23.9130 C.3       2 GLP5        0.0000 
      6 CA          2.5160  -39.7255   23.4400 C.3       1 GLC5        0.0000 
      7 CA          2.0940  -39.4000   25.3360 C.3       2 GLP5        0.0000 
      8 CA          1.9845  -41.8015   22.4920 C.3       1 GLC5        0.0000 
      9 CA          1.0310  -43.5520   23.4400 C.3       2 GLP5        0.0000 
     10 CA         -0.2965  -39.6410   20.5805 C.3       1 GLC5        0.0000 
     11 CA          1.8250  -40.1150   20.5580 C.3       3 GLL5        0.0000 
     12 CA         -2.4180  -39.1670   20.6030 C.3       2 GLP5        0.0000 
     13 CA          0.6540  -41.4855   20.3125 C.3       1 GLC5        0.0000 
     14 CA         -0.5170  -42.8560   20.0670 C.3       2 GLP5        0.0000 
     15 CA          5.0320  -35.2085   20.5705 C.3       1 GLC5        0.0000 
     16 CA          5.2440  -36.1100   22.1910 C.3       3 GLL5        0.0000 
     17 CA          4.8200  -34.3070   18.9500 C.3       2 GLP5        0.0000 
     18 CA          4.7465  -35.8770   25.3330 C.3       1 GLC5        0.0000 
     19 CA          3.1300  -34.6360   24.9900 C.3       3 GLL5        0.0000 
     20 CA          6.3630  -37.1180   25.6760 C.3       2 GLP5        0.0000 
     21 CA          1.9200  -36.1170   25.7180 C.3       1 GLC5        0.0000 
     22 CA          0.7100  -37.5980   26.4460 C.3       2 GLP5        0.0000 
     23 CA          3.4725  -33.0950   25.9845 C.3       1 GLC5        0.0000 
     24 CA          3.8150  -31.5540   26.9790 C.3       2 GLP5        0.0000 
     25 CA          1.7845  -33.2930   24.5570 C.3       1 GLC5        0.0000 
     26 CA          0.4390  -31.9500   24.1240 C.3       2 GLP5        0.0000 
     27 CA          4.6285  -37.8955   22.9000 C.3       1 GLC5        0.0000 
     28 CA          3.0490  -36.8370   21.8870 C.3       3 GLL5        0.0000 
     29 CA          1.5650  -35.3475   17.8205 C.3       1 GLC5        0.0000 
     30 CA          0.1390  -36.5980   18.3420 C.3       3 GLL5        0.0000 
     31 CA          2.9910  -34.0970   17.2990 C.3       2 GLP5        0.0000 
     32 CA         -0.3145  -38.3615   17.5460 C.3       1 GLC5        0.0000 
     33 CA         -0.7680  -40.1250   16.7500 C.3       2 GLP5        0.0000 
     34 CA          3.6760  -40.5938   19.7091 C.3       1 GLC5        0.0000 
     35 CA          2.6920  -38.9130   20.6210 C.3       3 GLL5        0.0000 
     36 CA          5.0320  -41.3890   18.5980 C.3       2 GLP5        0.0000 
     37 CA          6.8578  -34.7225   22.6602 C.3       1 GLC5        0.0000 
     38 CA          8.6570  -33.7070   22.5610 C.3       2 GLP5        0.0000 
     39 CA          5.2539  -37.2542   23.5806 C.3       1 GLC5        0.0000 
     40 CA          2.6925  -35.0477   21.0625 C.3       1 GLC5        0.0000 
     41 CA          2.5610  -33.6260   19.6840 C.3       2 GLP5        0.0000 
     42 CA          2.4590  -37.9347   23.8885 C.3       1 GLC5        0.0000 
     43 CA          1.5835  -35.1280   20.2203 C.3       1 GLC5        0.0000 
     44 CA          1.1100  -37.0070   20.4260 C.3       3 GLL5        0.0000 
     45 CA         -0.9060  -37.8985   20.6797 C.3       1 GLC5        0.0000 
     46 CA          0.8297  -34.6955   19.6525 C.3       1 GLC5        0.0000 
     47 CA         -0.9060  -35.6800   20.3150 C.3       3 GLL5        0.0000 
     48 CA         -2.8623  -36.0620   19.2535 C.3       1 GLC5        0.0000 
     49 CA         -4.8230  -36.3590   18.8860 C.3       2 GLP5        0.0000 
     50 CA         -1.3996  -37.6743   19.7923 C.3       1 GLC5        0.0000 
@<TRIPOS>BOND
@<TRIPOS>SUBSTRUCTURE
     1 GLC5        1 GROUP        1 X    GLC  0     ROOT GLC X 6
     2 GLP5        3 GROUP        1 Y    GLP  0     ROOT GLP Y 13
     3 GLL5        2 GROUP        1 Z    GLL  0     ROOT GLL Z 20
@<TRIPOS>SET

