#    Name: 2hny_NVP_1_ligand
#    Modification time : Tue Mar 25 16:50:51 2014

@<TRIPOS>MOLECULE
2hny_NVP_1_ligand
   34    37     1     0     0
SMALL
NO_CHARGES


@<TRIPOS>ATOM
      1 N1          2.1040  -37.6880   21.2250 N.pl3     1 NVP999      0.0000 
      2 CA          2.6920  -38.9130   20.6210 C.3       1 NVP999      0.0000 
      3 CB          2.9380  -40.0510   21.5440 C.3       1 NVP999      0.0000 
      4 CC          1.8250  -40.1150   20.5580 C.3       1 NVP999      0.0000 
      5 N3          4.3470  -36.8340   21.4840 N.ar      1 NVP999      0.0000 
      6 C4          5.2440  -36.1100   22.1910 C.ar      1 NVP999      0.0000 
      7 C5          4.8730  -35.3660   23.3280 C.ar      1 NVP999      0.0000 
      8 C6          3.5410  -35.3710   23.7370 C.ar      1 NVP999      0.0000 
      9 CD          3.1300  -34.6360   24.9900 C.3       1 NVP999      0.0000 
     10 C2          3.0490  -36.8370   21.8870 C.ar      1 NVP999      0.0000 
     11 C7          2.5990  -36.1020   22.9950 C.ar      1 NVP999      0.0000 
     12 N8          1.1940  -36.0450   23.3340 N.am      1 NVP999      0.0000 
     13 C9          0.0590  -36.0960   22.6100 C.2       1 NVP999      0.0000 
     14 OE         -1.0460  -36.0110   23.1520 O.2       1 NVP999      0.0000 
     15 C10         0.1020  -36.2530   21.0870 C.ar      1 NVP999      0.0000 
     16 C15         1.1100  -37.0070   20.4260 C.ar      1 NVP999      0.0000 
     17 C11        -0.9060  -35.6800   20.3150 C.ar      1 NVP999      0.0000 
     18 C12        -0.8970  -35.8500   18.9270 C.ar      1 NVP999      0.0000 
     19 C13         0.1390  -36.5980   18.3420 C.ar      1 NVP999      0.0000 
     20 N14         1.1260  -37.1670   19.0800 N.ar      1 NVP999      0.0000 
     21 H           3.3286  -38.9662   19.9101 H         1 NVP999      0.0000 
     22 H           2.5750  -39.8353   22.3986 H         1 NVP999      0.0000 
     23 H           3.6698  -40.5626   21.2101 H         1 NVP999      0.0000 
     24 H           2.1013  -40.6549   19.8219 H         1 NVP999      0.0000 
     25 H           1.0066  -39.9276   21.0104 H         1 NVP999      0.0000 
     26 H           6.2497  -36.0862   21.9043 H         1 NVP999      0.0000 
     27 H           5.5745  -34.8334   23.8400 H         1 NVP999      0.0000 
     28 H           1.0508  -35.9344   24.4458 H         1 NVP999      0.0000 
     29 H          -1.6516  -35.1361   20.7597 H         1 NVP999      0.0000 
     30 H          -1.6257  -35.4409   18.3484 H         1 NVP999      0.0000 
     31 H           0.1312  -36.7083   17.3009 H         1 NVP999      0.0000 
     32 H           3.6044  -34.9853   25.7980 H         1 NVP999      0.0000 
     33 H           3.3329  -33.6586   24.9307 H         1 NVP999      0.0000 
     34 H           2.1493  -34.7216   25.1660 H         1 NVP999      0.0000 
@<TRIPOS>BOND
     1    2    1 1    
     2   10    1 1    
     3   16    1 1    
     4    3    2 1    
     5    4    2 1    
     6   21    2 1    
     7    4    3 1    
     8   22    3 1    
     9   23    3 1    
    10   24    4 1    
    11   25    4 1    
    12    6    5 ar   
    13   10    5 ar   
    14    7    6 ar   
    15   26    6 1    
    16    8    7 ar   
    17   27    7 1    
    18    9    8 1    
    19   11    8 ar   
    20   32    9 1    
    21   33    9 1    
    22   34    9 1    
    23   11   10 ar   
    24   12   11 1    
    25   13   12 am   
    26   28   12 1    
    27   14   13 2    
    28   15   13 1    
    29   16   15 ar   
    30   17   15 ar   
    31   20   16 ar   
    32   18   17 ar   
    33   29   17 1    
    34   19   18 ar   
    35   30   18 1    
    36   20   19 ar   
    37   31   19 1    
@<TRIPOS>SUBSTRUCTURE
     1 NVP999      1 GROUP   
@<TRIPOS>SET

