#    Name: 3gye_FMN_1_INTS_M
#    Modification time : Tue Mar 25 13:14:06 2014

@<TRIPOS>MOLECULE
3gye_FMN_1_INTS_M
   69     0     9     0     0
SMALL
NO_CHARGES


@<TRIPOS>ATOM
      1 N          54.8600  -16.2825  -14.5785 N.am      2 SEC2        0.0000 
      2 N          54.3500  -17.6380  -15.2510 N.am      8 SEL2        0.0000 
      3 N          55.3700  -14.9270  -13.9060 N.am      5 SEP2        0.0000 
      4 N          55.9435  -16.0530  -14.7545 N.am      2 SEC2        0.0000 
      5 N          56.5170  -17.1790  -15.6030 N.am      8 SEL2        0.0000 
      6 O          56.3465  -18.1220  -18.2495 O.2       1 ALC1        0.0000 
      7 O          55.4280  -18.2600  -17.2910 O.2       7 ALL1        0.0000 
      8 O          57.2650  -17.9840  -19.2080 O.2       4 ALP1        0.0000 
      9 N          53.3140  -19.9370  -19.6105 N.am      2 SEC2        0.0000 
     10 N          54.1700  -19.0450  -19.0020 N.am      8 SEL2        0.0000 
     11 N          52.4580  -20.8290  -20.2190 N.am      5 SEP2        0.0000 
     12 N          52.1980  -20.0655  -18.8415 N.am      2 SEC2        0.0000 
     13 N          51.9380  -19.3020  -17.4640 N.am      8 SEL2        0.0000 
     14 CA         45.5180  -20.4620  -16.1675 C.3       3 GLC5        0.0000 
     15 CA         47.1030  -19.8230  -17.1130 C.3       9 GLL5        0.0000 
     16 CA         43.9330  -21.1010  -15.2220 C.3       6 GLP5        0.0000 
     17 CA         45.3930  -19.2125  -14.5490 C.3       3 GLC5        0.0000 
     18 CA         47.2220  -18.5680  -14.4530 C.3       9 GLL5        0.0000 
     19 CA         43.5640  -19.8570  -14.6450 C.3       6 GLP5        0.0000 
     20 N          53.9660  -15.1540  -14.2070 N.am      2 SEC2        0.0000 
     21 N          52.5620  -15.3810  -14.5080 N.am      8 SEL2        0.0000 
     22 O          52.4640  -15.6500  -15.9020 O.2       1 ALC1        0.0000 
     23 O          52.5620  -15.3810  -14.5080 O.2       7 ALL1        0.0000 
     24 O          52.3660  -15.9190  -17.2960 O.2       4 ALP1        0.0000 
     25 CA         53.8875  -15.0940  -12.4455 C.3       3 GLC5        0.0000 
     26 CA         51.6900  -15.4380  -12.2800 C.3       9 GLL5        0.0000 
     27 CA         56.0850  -14.7500  -12.6110 C.3       6 GLP5        0.0000 
     28 N          54.1895  -15.1935  -12.8330 N.am      2 SEC2        0.0000 
     29 N          53.0090  -15.4600  -11.7600 N.am      8 SEL2        0.0000 
     30 O          53.6780  -14.9195  -10.6195 O.2       1 ALC1        0.0000 
     31 O          53.0090  -15.4600  -11.7600 O.2       7 ALL1        0.0000 
     32 O          54.3470  -14.3790   -9.4790 O.2       4 ALP1        0.0000 
     33 CA         51.5775  -17.6555   -9.9160 C.3       3 GLC5        0.0000 
     34 CA         50.7360  -16.1040  -11.2860 C.3       9 GLL5        0.0000 
     35 CA         52.4190  -19.2070   -8.5460 C.3       6 GLP5        0.0000 
     36 CA         48.8190  -16.3815   -9.1950 C.3       3 GLC5        0.0000 
     37 CA         50.4100  -15.1830  -10.0980 C.3       9 GLL5        0.0000 
     38 CA         47.2280  -17.5800   -8.2920 C.3       6 GLP5        0.0000 
     39 CA         50.3180  -13.5900   -8.8845 C.3       3 GLC5        0.0000 
     40 CA         50.2260  -11.9970   -7.6710 C.3       6 GLP5        0.0000 
     41 N          46.8450  -14.7710   -8.3780 N.am      2 SEC2        0.0000 
     42 N          47.7330  -13.9690   -8.9480 N.am      8 SEL2        0.0000 
     43 N          45.9570  -15.5730   -7.8080 N.am      5 SEP2        0.0000 
     44 N          47.7950  -12.8750   -8.0980 N.am      2 SEC2        0.0000 
     45 N          47.8570  -11.7810   -7.2480 N.am      5 SEP2        0.0000 
     46 N          46.5595  -14.5280  -12.0855 N.am      2 SEC2        0.0000 
     47 N          47.4660  -14.9580  -11.1550 N.am      8 SEL2        0.0000 
     48 N          45.6530  -14.0980  -13.0160 N.am      5 SEP2        0.0000 
     49 N          46.2665  -15.6105  -11.1665 N.am      2 SEC2        0.0000 
     50 N          45.0670  -16.2630  -11.1780 N.am      5 SEP2        0.0000 
     51 N          47.7330  -12.0705  -12.2995 N.am      2 SEC2        0.0000 
     52 N          47.8110  -12.4880  -10.9480 N.am      8 SEL2        0.0000 
     53 N          47.6550  -11.6530  -13.6510 N.am      5 SEP2        0.0000 
     54 N          46.7320  -13.2930  -11.9820 N.am      2 SEC2        0.0000 
     55 CA         50.8505  -18.2698  -18.3060 C.3       3 GLC5        0.0000 
     56 CA         50.7890  -19.2180  -16.7040 C.3       9 GLL5        0.0000 
     57 CA         51.5130  -17.0600  -19.6650 C.3       6 GLP5        0.0000 
     58 CA         47.8443  -17.6223  -16.8188 C.3       3 GLC5        0.0000 
     59 CA         48.4260  -19.6640  -16.4120 C.3       9 GLL5        0.0000 
     60 CA         47.9240  -15.5010  -16.8750 C.3       6 GLP5        0.0000 
     61 CA         48.3434  -21.5009  -17.4770 C.3       3 GLC5        0.0000 
     62 CA         48.6320  -23.2390  -17.9970 C.3       6 GLP5        0.0000 
     63 CA         48.3459  -17.0871  -15.8045 C.3       3 GLC5        0.0000 
     64 CA         48.4770  -19.0490  -15.1430 C.3       9 GLL5        0.0000 
     65 CA         51.3477  -14.2230  -13.9760 C.3       3 GLC5        0.0000 
     66 CA         51.7030  -16.1060  -13.6520 C.3       9 GLL5        0.0000 
     67 CA         50.9990  -12.6740  -14.9860 C.3       6 GLP5        0.0000 
     68 CA         51.6508  -13.7880  -11.3338 C.3       3 GLC5        0.0000 
     69 CA         52.4900  -12.0990  -11.7270 C.3       6 GLP5        0.0000 
@<TRIPOS>BOND
@<TRIPOS>SUBSTRUCTURE
     1 ALC1        6 GROUP        1 X    ALC  0     ROOT ALC X 1
     2 SEC2        1 GROUP        1 X    SEC  0     **** SEC X 2
     3 GLC5       14 GROUP        1 X    GLC  0     **** GLC X 6
     4 ALP1        8 GROUP        1 Y    ALP  0     ROOT ALP Y 8
     5 SEP2        3 GROUP        1 Y    SEP  0     **** SEP Y 9
     6 GLP5       16 GROUP        1 Y    GLP  0     **** GLP Y 13
     7 ALL1        7 GROUP        1 Z    ALL  0     ROOT ALL Z 15
     8 SEL2        2 GROUP        1 Z    SEL  0     **** SEL Z 16
     9 GLL5       15 GROUP        1 Z    GLL  0     **** GLL Z 20
@<TRIPOS>SET

