#    Name: 3gye_FMN_1_ligand
#    Modification time : Tue Mar 25 13:14:07 2014

@<TRIPOS>MOLECULE
3gye_FMN_1_ligand
   50    52     1     0     0
SMALL
NO_CHARGES


@<TRIPOS>ATOM
      1 N1         54.3500  -17.6380  -15.2510 N.2       1 FMN321      0.0000 
      2 C2         55.4750  -17.6710  -16.0320 C.2       1 FMN321      0.0000 
      3 O2         56.5170  -17.1790  -15.6030 O.2       1 FMN321      0.0000 
      4 N3         55.4280  -18.2600  -17.2910 N.am      1 FMN321      0.0000 
      5 C4         54.2690  -18.8120  -17.7850 C.2       1 FMN321      0.0000 
      6 O4         54.1700  -19.0450  -19.0020 O.2       1 FMN321      0.0000 
      7 C4A        53.1290  -18.7660  -17.0020 C.2       1 FMN321      0.0000 
      8 N5         51.9380  -19.3020  -17.4640 N.2       1 FMN321      0.0000 
      9 C5A        50.7890  -19.2180  -16.7040 C.ar      1 FMN321      0.0000 
     10 C6         49.5870  -19.7410  -17.1900 C.ar      1 FMN321      0.0000 
     11 C7         48.4260  -19.6640  -16.4120 C.ar      1 FMN321      0.0000 
     12 C7M        47.1030  -19.8230  -17.1130 C.3       1 FMN321      0.0000 
     13 C8         48.4770  -19.0490  -15.1430 C.ar      1 FMN321      0.0000 
     14 C8M        47.2220  -18.5680  -14.4530 C.3       1 FMN321      0.0000 
     15 C9         49.6860  -18.5380  -14.6700 C.ar      1 FMN321      0.0000 
     16 C9A        50.8410  -18.6150  -15.4370 C.ar      1 FMN321      0.0000 
     17 N10        52.0440  -18.1160  -14.9570 N.pl3     1 FMN321      0.0000 
     18 C10        53.1760  -18.1670  -15.7400 C.2       1 FMN321      0.0000 
     19 C1'        52.1790  -17.5640  -13.5730 C.3       1 FMN321      0.0000 
     20 C2'        51.7030  -16.1060  -13.6520 C.3       1 FMN321      0.0000 
     21 O2'        52.5620  -15.3810  -14.5080 O.3       1 FMN321      0.0000 
     22 C3'        51.6900  -15.4380  -12.2800 C.3       1 FMN321      0.0000 
     23 O3'        53.0090  -15.4600  -11.7600 O.3       1 FMN321      0.0000 
     24 C4'        50.7360  -16.1040  -11.2860 C.3       1 FMN321      0.0000 
     25 O4'        49.5350  -16.4840  -11.9330 O.3       1 FMN321      0.0000 
     26 C5'        50.4100  -15.1830  -10.0980 C.3       1 FMN321      0.0000 
     27 O5'        49.7290  -14.0200  -10.5590 O.3       1 FMN321      0.0000 
     28 P          48.1380  -13.8430  -10.3750 P.3       1 FMN321      0.0000 
     29 O1P        47.7330  -13.9690   -8.9480 O.co2     1 FMN321      0.0000 
     30 O2P        47.4660  -14.9580  -11.1550 O.co2     1 FMN321      0.0000 
     31 O3P        47.8110  -12.4880  -10.9480 O.co2     1 FMN321      0.0000 
     32 H          56.2947  -18.2803  -17.8686 H         1 FMN321      0.0000 
     33 H          49.5552  -20.1808  -18.1155 H         1 FMN321      0.0000 
     34 H          49.7195  -18.0966  -13.7355 H         1 FMN321      0.0000 
     35 H          53.2034  -17.5796  -13.2592 H         1 FMN321      0.0000 
     36 H          51.5499  -18.0995  -12.8906 H         1 FMN321      0.0000 
     37 H          50.6880  -16.1088  -14.0338 H         1 FMN321      0.0000 
     38 H          51.3615  -14.4048  -12.4179 H         1 FMN321      0.0000 
     39 H          51.2454  -16.9838  -10.8796 H         1 FMN321      0.0000 
     40 H          51.3571  -14.9360   -9.6044 H         1 FMN321      0.0000 
     41 H          49.8036  -15.7611   -9.3910 H         1 FMN321      0.0000 
     42 H          46.9695  -19.1254  -17.8169 H         1 FMN321      0.0000 
     43 H          47.0259  -20.7125  -17.5635 H         1 FMN321      0.0000 
     44 H          46.3346  -19.7488  -16.4773 H         1 FMN321      0.0000 
     45 H          47.4220  -18.1528  -13.5655 H         1 FMN321      0.0000 
     46 H          46.7397  -17.8807  -14.9961 H         1 FMN321      0.0000 
     47 H          46.5787  -19.3158  -14.2885 H         1 FMN321      0.0000 
     48 H          52.3129  -15.6723  -15.4316 H         1 FMN321      0.0000 
     49 H          52.8965  -15.4162  -10.7673 H         1 FMN321      0.0000 
     50 H          48.8042  -16.1735  -11.3250 H         1 FMN321      0.0000 
@<TRIPOS>BOND
     1    2    1 1    
     2   18    1 2    
     3    3    2 2    
     4    4    2 am   
     5    5    4 am   
     6   32    4 1    
     7    6    5 2    
     8    7    5 1    
     9    8    7 2    
    10   18    7 1    
    11    9    8 1    
    12   10    9 ar   
    13   16    9 ar   
    14   11   10 ar   
    15   33   10 1    
    16   12   11 1    
    17   13   11 ar   
    18   42   12 1    
    19   43   12 1    
    20   44   12 1    
    21   14   13 1    
    22   15   13 ar   
    23   45   14 1    
    24   46   14 1    
    25   47   14 1    
    26   16   15 ar   
    27   34   15 1    
    28   17   16 1    
    29   18   17 1    
    30   19   17 1    
    31   20   19 1    
    32   35   19 1    
    33   36   19 1    
    34   21   20 1    
    35   22   20 1    
    36   37   20 1    
    37   48   21 1    
    38   23   22 1    
    39   24   22 1    
    40   38   22 1    
    41   49   23 1    
    42   25   24 1    
    43   26   24 1    
    44   39   24 1    
    45   50   25 1    
    46   27   26 1    
    47   40   26 1    
    48   41   26 1    
    49   28   27 1    
    50   29   28 ar   
    51   30   28 ar   
    52   31   28 ar   
@<TRIPOS>SUBSTRUCTURE
     1 FMN321      1 GROUP   
@<TRIPOS>SET

