#    Name: 2DB3_1_CAVITY_N1_ALL.mol2
#    Modification time : Tue Mar 11 08:23:10 2014

@<TRIPOS>MOLECULE
2DB3_1_CAVITY_N1_ALL.mol2
   98     0     7     0     0
SMALL
NO_CHARGES


@<TRIPOS>ATOM
      1 N          47.5852   81.3826   44.4553 N.2       2 ALA2        0.0000 
      2 N          46.9633   82.4509   43.6055 N.2       2 ALA2        0.0000 
      3 CZ         46.3415   83.5191   42.7558 C.ar      5 PHE5        0.0000 
      4 O          42.3793   77.3456   43.1899 O.2       2 ALA2        0.0000 
      5 CA         47.9363   78.7168   40.8469 C.3       6 GLY6        0.0000 
      6 O          47.3144   79.7851   39.9972 O.2       2 ALA2        0.0000 
      7 O          50.3052   82.5125   43.8852 O.2       2 ALA2        0.0000 
      8 N          49.6833   83.5807   43.0355 N.2       2 ALA2        0.0000 
      9 CA         49.1793   80.1703   41.7647 C.3       6 GLY6        0.0000 
     10 CZ         48.5574   81.2386   40.9149 C.ar      5 PHE5        0.0000 
     11 N          51.3944   81.4799   39.1420 N.2       2 ALA2        0.0000 
     12 CA         50.9255   88.6244   43.1715 C.3       6 GLY6        0.0000 
     13 CA         53.1422   82.7538   42.1123 C.3       6 GLY6        0.0000 
     14 N          52.5204   83.8220   41.2626 N.2       2 ALA2        0.0000 
     15 N          50.4215   85.2140   41.9007 N.2       2 ALA2        0.0000 
     16 N          52.2863   85.5992   43.6682 N.2       2 ALA2        0.0000 
     17 CA         50.1874   86.9912   44.3063 C.3       6 GLY6        0.0000 
     18 N          49.5655   88.0595   43.4565 N.2       2 ALA2        0.0000 
     19 NZ         44.8652   80.2527   45.0254 N.2       4 LYS4        0.0000 
     20 NZ         44.2434   81.3210   44.1756 N.2       4 LYS4        0.0000 
     21 CA         43.2345   78.0902   40.8523 C.3       6 GLY6        0.0000 
     22 N          47.4674   85.8613   44.8763 N.2       2 ALA2        0.0000 
     23 N          46.8455   86.9296   44.0266 N.2       2 ALA2        0.0000 
     24 N          46.2237   87.9978   43.1769 N.2       2 ALA2        0.0000 
     25 CZ         50.5393   80.7353   41.4796 C.ar      5 PHE5        0.0000 
     26 CZ         49.9174   81.8036   40.6299 C.ar      5 PHE5        0.0000 
     27 O          50.9263   85.0343   43.9532 O.2       2 ALA2        0.0000 
     28 N          50.3044   86.1026   43.1035 N.2       2 ALA2        0.0000 
     29 O          48.7104   87.3148   45.7941 O.2       2 ALA2        0.0000 
     30 N          48.0885   88.3831   44.9443 N.2       2 ALA2        0.0000 
     31 N          47.4666   89.4514   44.0946 N.2       2 ALA2        0.0000 
     32 OD1        44.2441   77.7308   44.9573 O.3       3 ASP3        0.0000 
     33 NZ         43.6223   78.7991   44.1076 N.2       4 LYS4        0.0000 
     34 NZ         43.0004   79.8674   43.2579 N.2       4 LYS4        0.0000 
     35 NZ         42.3785   80.9357   42.4081 N.2       4 LYS4        0.0000 
     36 CA         44.3612   76.8423   43.7546 C.3       6 GLY6        0.0000 
     37 O          43.7393   77.9105   42.9048 O.2       2 ALA2        0.0000 
     38 OG         43.1174   78.9788   42.0551 O.2       1 SER1        0.0000 
     39 OG         42.4956   80.0471   41.2053 O.2       1 SER1        0.0000 
     40 NZ         41.8737   81.1154   40.3556 N.2       4 LYS4        0.0000 
     41 N          52.4033   84.7106   42.4654 N.2       2 ALA2        0.0000 
     42 NZ         42.2615   81.8243   43.6109 N.2       4 LYS4        0.0000 
     43 CZ         50.6563   79.8467   40.2768 C.ar      5 PHE5        0.0000 
     44 CA         47.7022   80.4940   43.2525 C.3       6 GLY6        0.0000 
     45 CZ         47.0804   81.5623   42.4027 C.ar      5 PHE5        0.0000 
     46 CA         48.4411   78.5371   42.8994 C.3       6 GLY6        0.0000 
     47 CA         47.8193   79.6054   42.0497 C.3       6 GLY6        0.0000 
     48 CZ         47.1974   80.6737   41.2000 C.ar      5 PHE5        0.0000 
     49 CA         46.9641   78.8607   44.3873 C.3       6 GLY6        0.0000 
     50 CA         46.3423   79.9290   43.5375 C.3       6 GLY6        0.0000 
     51 OG         45.7204   80.9973   42.6878 O.2       1 SER1        0.0000 
     52 CZ         53.2593   81.8652   40.9095 C.ar      5 PHE5        0.0000 
     53 O          52.6374   82.9335   40.0598 O.2       2 ALA2        0.0000 
     54 N          47.5844   84.9727   43.6735 N.2       2 ALA2        0.0000 
     55 N          46.9626   86.0410   42.8238 N.2       2 ALA2        0.0000 
     56 N          48.3233   83.0158   43.3205 N.2       2 ALA2        0.0000 
     57 CZ         48.4404   82.1272   42.1177 C.ar      5 PHE5        0.0000 
     58 N          47.3504   86.7499   46.0791 N.2       2 ALA2        0.0000 
     59 N          46.7285   87.8182   45.2294 N.2       2 ALA2        0.0000 
     60 N          46.1066   88.8864   44.3797 N.2       2 ALA2        0.0000 
     61 CA         50.4222   81.6239   42.6824 C.3       6 GLY6        0.0000 
     62 CZ         49.8004   82.6922   41.8327 C.ar      5 PHE5        0.0000 
     63 CA         46.2252   80.8176   44.7403 C.3       6 GLY6        0.0000 
     64 O          45.6034   81.8859   43.8906 O.2       2 ALA2        0.0000 
     65 OG         44.9815   82.9542   43.0408 O.2       1 SER1        0.0000 
     66 N          51.0433   84.1457   42.7504 N.2       2 ALA2        0.0000 
     67 O          46.2244   84.4077   43.9586 O.2       2 ALA2        0.0000 
     68 N          48.9444   85.5376   43.3885 N.2       2 ALA2        0.0000 
     69 NZ         40.9015   81.2593   43.8960 N.2       4 LYS4        0.0000 
     70 N          48.8274   86.4262   44.5913 N.2       2 ALA2        0.0000 
     71 N          48.2055   87.4945   43.7416 N.2       2 ALA2        0.0000 
     72 N          47.0812   77.9721   43.1845 N.2       2 ALA2        0.0000 
     73 CA         46.4593   79.0404   42.3347 C.3       6 GLY6        0.0000 
     74 OG         45.8374   80.1087   41.4850 O.2       1 SER1        0.0000 
     75 CA         45.9545   79.2201   40.2822 C.3       6 GLY6        0.0000 
     76 OG         45.3326   80.2884   39.4325 O.2       1 SER1        0.0000 
     77 N          49.4485   88.9481   44.6593 N.2       2 ALA2        0.0000 
     78 NZ         43.6215   82.3892   43.3259 N.2       4 LYS4        0.0000 
     79 N          45.6041   78.2958   44.6723 N.2       2 ALA2        0.0000 
     80 NZ         44.9823   79.3641   43.8226 N.2       4 LYS4        0.0000 
     81 DU         44.3604   80.4324   42.9728 H         7 CUB7        0.0000 
     82 OG         43.7385   81.5006   42.1231 O.2       1 SER1        0.0000 
     83 O          42.2623   78.2342   44.3926 O.2       2 ALA2        0.0000 
     84 OG         41.6404   79.3025   43.5429 O.2       1 SER1        0.0000 
     85 OG         41.0185   80.3708   42.6932 O.2       1 SER1        0.0000 
     86 O          45.7212   77.4072   43.4695 O.2       2 ALA2        0.0000 
     87 O          45.0993   78.4755   42.6198 O.2       2 ALA2        0.0000 
     88 CA         44.4774   79.5438   41.7700 C.3       6 GLY6        0.0000 
     89 OG         43.8556   80.6121   40.9203 O.2       1 SER1        0.0000 
     90 OG         43.2337   81.6803   40.0706 O.2       1 SER1        0.0000 
     91 CA         51.7822   82.1888   42.3974 C.3       6 GLY6        0.0000 
     92 CZ         51.1604   83.2571   41.5476 C.ar      5 PHE5        0.0000 
     93 O          43.9726   79.7235   39.7175 O.2       2 ALA2        0.0000 
     94 N          46.6115   88.7068   46.4322 N.2       2 ALA2        0.0000 
     95 CZ         51.8993   81.3002   41.1946 C.ar      5 PHE5        0.0000 
     96 CZ         51.2774   82.3685   40.3448 C.ar      5 PHE5        0.0000 
     97 CA         49.2963   79.2817   40.5619 C.3       6 GLY6        0.0000 
     98 O          48.6744   80.3500   39.7121 O.2       2 ALA2        0.0000 
@<TRIPOS>BOND
@<TRIPOS>SUBSTRUCTURE
     1 SER1       38 GROUP   
     2 ALA2        1 GROUP   
     3 ASP3       32 GROUP   
     4 LYS4       19 GROUP   
     5 PHE5        3 GROUP   
     6 GLY6        5 GROUP   
     7 CUB7       81 GROUP   
@<TRIPOS>SET

