#    Name: 2db3_ANP_1_INTS_M
#    Modification time : Tue Mar 25 09:53:14 2014

@<TRIPOS>MOLECULE
2db3_ANP_1_INTS_M
   88     0    15     0     0
SMALL
NO_CHARGES


@<TRIPOS>ATOM
      1 NZ         41.9990   71.3710   43.3865 N.4       3 LYC4        0.0000 
      2 NZ         41.2540   71.7320   44.5460 N.4      13 LYL4        0.0000 
      3 NZ         42.7440   71.0100   42.2270 N.4       8 LYP4        0.0000 
      4 N          41.9990   71.3710   43.3865 N.am      2 SEC2        0.0000 
      5 N          41.2540   71.7320   44.5460 N.am     12 SEL2        0.0000 
      6 N          42.7440   71.0100   42.2270 N.am      7 SEP2        0.0000 
      7 N          39.8735   71.5800   45.4245 N.am      2 SEC2        0.0000 
      8 N          38.4930   71.4280   46.3030 N.am      7 SEP2        0.0000 
      9 N          40.2225   70.9975   44.1140 N.am      2 SEC2        0.0000 
     10 N          39.1910   70.2630   43.6820 N.am      7 SEP2        0.0000 
     11 NZ         40.1970   74.0810   47.6585 N.4       3 LYC4        0.0000 
     12 NZ         40.9310   73.2680   46.4830 N.4      13 LYL4        0.0000 
     13 NZ         39.6910   73.7760   49.4940 N.4       8 LYP4        0.0000 
     14 NZ         41.7435   74.9795   46.9045 N.4       3 LYC4        0.0000 
     15 NZ         42.5560   76.6910   47.3260 N.4       8 LYP4        0.0000 
     16 N          40.1970   74.0810   47.6585 N.am      2 SEC2        0.0000 
     17 N          40.9310   73.2680   46.4830 N.am     12 SEL2        0.0000 
     18 N          39.4630   74.8940   48.8340 N.am      7 SEP2        0.0000 
     19 N          40.5640   73.0015   47.6700 N.am      2 SEC2        0.0000 
     20 N          40.1970   72.7350   48.8570 N.am      7 SEP2        0.0000 
     21 N          39.7120   72.3480   46.3930 N.am      2 SEC2        0.0000 
     22 Zn         39.3680   74.2280   43.3780 Zn        4 ZIC7        0.0000 
     23 Zn         39.7440   73.7860   44.3140 Zn       14 ZIL7        0.0000 
     24 Zn         38.9920   74.6700   42.4420 Zn        9 ZIP7        0.0000 
     25 Zn         40.1650   74.8175   42.3455 Zn        4 ZIC7        0.0000 
     26 Zn         41.3380   74.9650   42.2490 Zn       14 ZIL7        0.0000 
     27 NZ         43.1375   72.4300   42.2415 N.4       3 LYC4        0.0000 
     28 NZ         43.5310   73.8500   42.2560 N.4      13 LYL4        0.0000 
     29 N          44.9555   73.9990   42.9640 N.am      2 SEC2        0.0000 
     30 N          43.5310   73.8500   42.2560 N.am     12 SEL2        0.0000 
     31 N          46.3800   74.1480   43.6720 N.am      7 SEP2        0.0000 
     32 N          43.6915   74.4725   40.9025 N.am      2 SEC2        0.0000 
     33 N          43.8520   75.0950   39.5490 N.am      7 SEP2        0.0000 
     34 N          43.1375   72.4300   42.2415 N.am      2 SEC2        0.0000 
     35 N          41.8870   77.2140   40.1040 N.am      2 SEC2        0.0000 
     36 N          42.2720   77.8320   41.4410 N.am     12 SEL2        0.0000 
     37 N          41.5020   76.5960   38.7670 N.am      7 SEP2        0.0000 
     38 NZ         42.1140   77.3225   45.5995 N.4       3 LYC4        0.0000 
     39 NZ         41.6720   77.9540   43.8730 N.4      13 LYL4        0.0000 
     40 N          44.6520   75.9650   42.2115 N.am      2 SEC2        0.0000 
     41 N          43.2300   76.1800   43.0170 N.am     12 SEL2        0.0000 
     42 N          46.0740   75.7500   41.4060 N.am      7 SEP2        0.0000 
     43 CA         45.1040   76.6160   45.0030 C.3       5 GLC5        0.0000 
     44 CA         44.7620   78.3590   44.1960 C.3      15 GLL5        0.0000 
     45 CA         45.4460   74.8730   45.8100 C.3      10 GLP5        0.0000 
     46 CA         45.2420   77.4380   42.2060 C.3       5 GLC5        0.0000 
     47 CA         45.7220   76.5170   40.2160 C.3      10 GLP5        0.0000 
     48 N          45.1470   83.0955   45.8510 N.am      2 SEC2        0.0000 
     49 N          44.5070   81.9770   44.9800 N.am     12 SEL2        0.0000 
     50 N          45.7870   84.2140   46.7220 N.am      7 SEP2        0.0000 
     51 O          43.7985   80.9805   46.0710 O.2       1 ALC1        0.0000 
     52 O          44.5070   81.9770   44.9800 O.2      11 ALL1        0.0000 
     53 O          43.0900   79.9840   47.1620 O.2       6 ALP1        0.0000 
     54 O          43.4545   81.9725   45.7610 O.2       1 ALC1        0.0000 
     55 O          42.4020   81.9680   46.5420 O.2       6 ALP1        0.0000 
     56 O          45.1750   83.0795   41.3685 O.2       1 ALC1        0.0000 
     57 O          45.0280   82.8410   42.6690 O.2      11 ALL1        0.0000 
     58 O          45.3220   83.3180   40.0680 O.2       6 ALP1        0.0000 
     59 CA         47.3850   80.3340   44.6830 C.3       5 GLC5        0.0000 
     60 CA         46.4330   81.1180   42.9520 C.3      15 GLL5        0.0000 
     61 CA         48.3370   79.5500   46.4140 C.3      10 GLP5        0.0000 
     62 N          47.2430   79.2215   38.4155 N.am      2 SEC2        0.0000 
     63 N          47.6440   80.0200   39.6110 N.am     12 SEL2        0.0000 
     64 N          46.8420   78.4230   37.2200 N.am      7 SEP2        0.0000 
     65 CA         50.2000   82.4435   38.5720 C.3       5 GLC5        0.0000 
     66 CA         49.9930   80.7290   39.4800 C.3      15 GLL5        0.0000 
     67 CA         50.4070   84.1580   37.6640 C.3      10 GLP5        0.0000 
     68 O          51.5515   80.0620   37.7270 O.2       1 ALC1        0.0000 
     69 O          50.1570   80.2280   38.2340 O.2      11 ALL1        0.0000 
     70 O          52.9460   79.8960   37.2200 O.2       6 ALP1        0.0000 
     71 O          49.5355   79.2385   37.2900 O.2       1 ALC1        0.0000 
     72 O          48.9140   78.2490   36.3460 O.2       6 ALP1        0.0000 
     73 CA         52.0990   81.7365   43.0125 C.3       5 GLC5        0.0000 
     74 CA         50.7070   81.8320   41.4040 C.3      15 GLL5        0.0000 
     75 CA         53.4910   81.6410   44.6210 C.3      10 GLP5        0.0000 
     76 CA         51.0700   83.4100   39.9295 C.3       5 GLC5        0.0000 
     77 CA         51.4330   84.9880   38.4550 C.3      10 GLP5        0.0000 
     78 CA         50.4685   80.8150   43.0915 C.3       5 GLC5        0.0000 
     79 CA         50.2300   79.7980   44.7790 C.3      10 GLP5        0.0000 
     80 CA         49.3495   80.4415   43.0860 C.3       5 GLC5        0.0000 
     81 CA         48.4690   81.0850   41.3930 C.3      15 GLL5        0.0000 
     82 CA         46.6423   79.3167   45.4000 C.3       5 GLC5        0.0000 
     83 CA         45.1330   79.8080   44.5760 C.3      15 GLL5        0.0000 
     84 CA         46.1467   82.4022   41.1940 C.3       5 GLC5        0.0000 
     85 CA         46.5640   83.5170   39.5100 C.3      10 GLP5        0.0000 
     86 CA         49.8010   78.7078   39.6613 C.3       5 GLC5        0.0000 
     87 CA         48.7230   80.6000   40.1110 C.3      15 GLL5        0.0000 
     88 CA         50.2440   76.7510   39.5270 C.3      10 GLP5        0.0000 
@<TRIPOS>BOND
@<TRIPOS>SUBSTRUCTURE
     1 ALC1       51 GROUP        1 X    ALC  0     ROOT ALC X 1
     2 SEC2        4 GROUP        1 X    SEC  0     **** SEC X 2
     3 LYC4        1 GROUP        1 X    LYC  0     **** LYC X 4
     4 ZIC7       22 GROUP        1 X    ZIC  0     **** ZIC X 5
     5 GLC5       43 GROUP        1 X    GLC  0     **** GLC X 6
     6 ALP1       53 GROUP        1 Y    ALP  0     ROOT ALP Y 8
     7 SEP2        6 GROUP        1 Y    SEP  0     **** SEP Y 9
     8 LYP4        3 GROUP        1 Y    LYP  0     **** LYP Y 11
     9 ZIP7       24 GROUP        1 Y    ZIP  0     **** ZIP Y 12
    10 GLP5       45 GROUP        1 Y    GLP  0     **** GLP Y 13
    11 ALL1       52 GROUP        1 Z    ALL  0     ROOT ALL Z 15
    12 SEL2        5 GROUP        1 Z    SEL  0     **** SEL Z 16
    13 LYL4        2 GROUP        1 Z    LYL  0     **** LYL Z 18
    14 ZIL7       23 GROUP        1 Z    ZIL  0     **** ZIL Z 19
    15 GLL5       44 GROUP        1 Z    GLL  0     **** GLL Z 20
@<TRIPOS>SET

