#    Name: 2db3_ANP_1_ligand
#    Modification time : Tue Mar 25 09:53:14 2014

@<TRIPOS>MOLECULE
2db3_ANP_1_ligand
   43    45     1     0     0
SMALL
NO_CHARGES


@<TRIPOS>ATOM
      1 PG         40.9060   73.1420   44.9960 P.3       1 ANP2901     0.0000 
      2 O1G        41.2540   71.7320   44.5460 O.co2     1 ANP2901     0.0000 
      3 O2G        40.9310   73.2680   46.4830 O.co2     1 ANP2901     0.0000 
      4 O3G        39.7440   73.7860   44.3140 O.co2     1 ANP2901     0.0000 
      5 PB         42.5820   74.6920   43.0090 P.3       1 ANP2901     0.0000 
      6 O1B        41.3380   74.9650   42.2490 O.co2     1 ANP2901     0.0000 
      7 O2B        43.5310   73.8500   42.2560 O.co2     1 ANP2901     0.0000 
      8 N3B        42.0840   74.1790   44.4420 N.4       1 ANP2901     0.0000 
      9 PA         42.7300   77.6620   42.8550 P.3       1 ANP2901     0.0000 
     10 O1A        42.2720   77.8320   41.4410 O.co2     1 ANP2901     0.0000 
     11 O2A        41.6720   77.9540   43.8730 O.co2     1 ANP2901     0.0000 
     12 O3A        43.2300   76.1800   43.0170 O.3       1 ANP2901     0.0000 
     13 O5'        44.1250   78.4040   42.8960 O.3       1 ANP2901     0.0000 
     14 C5'        44.7620   78.3590   44.1960 C.3       1 ANP2901     0.0000 
     15 C4'        45.1330   79.8080   44.5760 C.3       1 ANP2901     0.0000 
     16 O4'        46.3680   80.1280   43.9720 O.3       1 ANP2901     0.0000 
     17 C3'        44.3280   80.9190   44.0620 C.3       1 ANP2901     0.0000 
     18 O3'        44.5070   81.9770   44.9800 O.3       1 ANP2901     0.0000 
     19 C2'        45.0260   81.4570   42.8040 C.3       1 ANP2901     0.0000 
     20 O2'        45.0280   82.8410   42.6690 O.3       1 ANP2901     0.0000 
     21 C1'        46.4330   81.1180   42.9520 C.3       1 ANP2901     0.0000 
     22 N9         47.1880   80.7800   41.6530 N.pl3     1 ANP2901     0.0000 
     23 C8         46.7100   80.1350   40.5670 C.2       1 ANP2901     0.0000 
     24 N7         47.6440   80.0200   39.6110 N.2       1 ANP2901     0.0000 
     25 C5         48.7230   80.6000   40.1110 C.ar      1 ANP2901     0.0000 
     26 C6         49.9930   80.7290   39.4800 C.ar      1 ANP2901     0.0000 
     27 N6         50.1570   80.2280   38.2340 N.pl3     1 ANP2901     0.0000 
     28 N1         51.0080   81.3670   40.1600 N.ar      1 ANP2901     0.0000 
     29 C2         50.7070   81.8320   41.4040 C.ar      1 ANP2901     0.0000 
     30 N3         49.4950   81.7110   42.0120 N.ar      1 ANP2901     0.0000 
     31 C4         48.4690   81.0850   41.3930 C.ar      1 ANP2901     0.0000 
     32 H          45.6734   77.7760   44.1766 H         1 ANP2901     0.0000 
     33 H          44.0950   77.9755   44.9569 H         1 ANP2901     0.0000 
     34 H          45.2378   79.8921   45.6424 H         1 ANP2901     0.0000 
     35 H          43.3670   80.6845   43.8668 H         1 ANP2901     0.0000 
     36 H          44.6410   80.9481   41.9507 H         1 ANP2901     0.0000 
     37 H          46.9210   82.0272   43.4016 H         1 ANP2901     0.0000 
     38 H          45.7872   79.7926   40.4910 H         1 ANP2901     0.0000 
     39 H          51.0562   80.3663   37.8190 H         1 ANP2901     0.0000 
     40 H          49.3644   79.7638   37.8386 H         1 ANP2901     0.0000 
     41 H          51.4856   82.3326   41.9470 H         1 ANP2901     0.0000 
     42 H          44.0312   81.6834   45.8091 H         1 ANP2901     0.0000 
     43 H          45.1701   83.0055   41.6929 H         1 ANP2901     0.0000 
@<TRIPOS>BOND
     1    2    1 ar   
     2    3    1 ar   
     3    4    1 ar   
     4    8    1 1    
     5    6    5 ar   
     6    7    5 ar   
     7    8    5 1    
     8   12    5 1    
     9   10    9 ar   
    10   11    9 ar   
    11   12    9 1    
    12   13    9 1    
    13   14   13 1    
    14   15   14 1    
    15   32   14 1    
    16   33   14 1    
    17   16   15 1    
    18   17   15 1    
    19   34   15 1    
    20   21   16 1    
    21   18   17 1    
    22   19   17 1    
    23   35   17 1    
    24   42   18 1    
    25   20   19 1    
    26   21   19 1    
    27   36   19 1    
    28   43   20 1    
    29   22   21 1    
    30   37   21 1    
    31   23   22 1    
    32   31   22 1    
    33   24   23 2    
    34   38   23 1    
    35   25   24 1    
    36   26   25 ar   
    37   31   25 ar   
    38   27   26 1    
    39   28   26 ar   
    40   39   27 1    
    41   40   27 1    
    42   29   28 ar   
    43   30   29 ar   
    44   41   29 1    
    45   31   30 ar   
@<TRIPOS>SUBSTRUCTURE
     1 ANP2901     1 GROUP   
@<TRIPOS>SET

