#    Name: 1q5m_NAP_2_INTS_M
#    Modification time : Mon Mar 24 23:06:34 2014

@<TRIPOS>MOLECULE
1q5m_NAP_2_INTS_M
  108     0    12     0     0
SMALL
NO_CHARGES


@<TRIPOS>ATOM
      1 N          41.2745   11.2300    1.8445 N.am      2 SEC2        0.0000 
      2 N          40.2280   10.7980    0.8730 N.am     10 SEL2        0.0000 
      3 N          42.3210   11.6620    2.8160 N.am      6 SEP2        0.0000 
      4 N          38.9755   11.2875    1.5520 N.am      2 SEC2        0.0000 
      5 N          37.7230   11.7770    2.2310 N.am      6 SEP2        0.0000 
      6 N          42.4395   10.0225   -2.4470 N.am      2 SEC2        0.0000 
      7 N          41.6070   10.3260   -1.1770 N.am     10 SEL2        0.0000 
      8 N          43.2720    9.7190   -3.7170 N.am      6 SEP2        0.0000 
      9 CA         39.6460   11.6760   -4.3900 C.3       4 GLC5        0.0000 
     10 CA         39.5990   12.4430   -2.4660 C.3      12 GLL5        0.0000 
     11 CA         39.6930   10.9090   -6.3140 C.3       8 GLP5        0.0000 
     12 N          45.3755   14.7005   -3.8130 N.am      2 SEC2        0.0000 
     13 N          44.1030   15.5850   -3.5820 N.am     10 SEL2        0.0000 
     14 N          46.6480   13.8160   -4.0440 N.am      6 SEP2        0.0000 
     15 CA         44.8260   18.4060   -4.5820 C.3       4 GLC5        0.0000 
     16 CA         44.8430   17.8640   -2.8120 C.3      12 GLL5        0.0000 
     17 CA         44.8090   18.9480   -6.3520 C.3       8 GLP5        0.0000 
     18 O          47.1865   18.6665   -2.5545 O.2       1 ALC1        0.0000 
     19 O          46.1170   17.7030   -2.9120 O.2       9 ALL1        0.0000 
     20 O          48.2560   19.6300   -2.1970 O.2       5 ALP1        0.0000 
     21 O          46.9530   16.5480   -2.9155 O.2       1 ALC1        0.0000 
     22 O          47.7890   15.3930   -2.9190 O.2       5 ALP1        0.0000 
     23 N          45.1300   20.1380   -2.1565 N.am      2 SEC2        0.0000 
     24 N          44.2660   19.0760   -2.3890 N.am     10 SEL2        0.0000 
     25 N          45.9940   21.2000   -1.9240 N.am      6 SEP2        0.0000 
     26 CA         42.6615   18.4825   -0.4375 C.3       4 GLC5        0.0000 
     27 CA         42.9020   19.1690   -2.1760 C.3      12 GLL5        0.0000 
     28 CA         42.4210   17.7960    1.3010 C.3       8 GLP5        0.0000 
     29 CA         43.1400   18.9885   -4.1575 C.3       4 GLC5        0.0000 
     30 CA         43.3780   18.8080   -6.1390 C.3       8 GLP5        0.0000 
     31 CA         42.5045   17.4175   -0.8085 C.3       4 GLC5        0.0000 
     32 CA         42.5880   17.0390   -2.9180 C.3      12 GLL5        0.0000 
     33 N          37.5380    7.9250    1.0540 N.am      2 SEC2        0.0000 
     34 N          37.5390    8.3730   -0.3120 N.am     10 SEL2        0.0000 
     35 N          37.5370    7.4770    2.4200 N.am      6 SEP2        0.0000 
     36 N          40.0640    7.2505    0.7390 N.am      2 SEC2        0.0000 
     37 N          39.7280    7.4750   -0.8070 N.am     10 SEL2        0.0000 
     38 N          40.4000    7.0260    2.2850 N.am      6 SEP2        0.0000 
     39 CA         42.7575    6.1885   -1.2750 C.3       4 GLC5        0.0000 
     40 CA         40.8100    7.1740   -1.6640 C.3      12 GLL5        0.0000 
     41 CA         44.7050    5.2030   -0.8860 C.3       8 GLP5        0.0000 
     42 CA         42.1220    4.4395   -1.6965 C.3       4 GLC5        0.0000 
     43 CA         40.6950    5.8500   -2.3540 C.3      12 GLL5        0.0000 
     44 CA         43.5490    3.0290   -1.0390 C.3       8 GLP5        0.0000 
     45 N          39.0185    5.8825   -5.7870 N.am      2 SEC2        0.0000 
     46 N          39.6190    6.2820   -4.4520 N.am     10 SEL2        0.0000 
     47 N          38.4180    5.4830   -7.1220 N.am      6 SEP2        0.0000 
     48 CA         38.6760    2.7950   -4.4810 C.3       4 GLC5        0.0000 
     49 CA         39.5570    4.0580   -3.3260 C.3      12 GLL5        0.0000 
     50 CA         37.7950    1.5320   -5.6360 C.3       8 GLP5        0.0000 
     51 N          40.9230    4.5040   -5.7060 N.am      2 SEC2        0.0000 
     52 N          40.6370    3.6890   -4.2230 N.am     10 SEL2        0.0000 
     53 N          41.2090    5.3190   -7.1890 N.am      6 SEP2        0.0000 
     54 O          41.0865    2.4205   -3.9775 O.2       1 ALC1        0.0000 
     55 O          40.6370    3.6890   -4.2230 O.2       9 ALL1        0.0000 
     56 O          41.5360    1.1520   -3.7320 O.2       5 ALP1        0.0000 
     57 CA         40.2955    3.8490    0.0065 C.3       4 GLC5        0.0000 
     58 CA         39.9410    3.6600   -1.8800 C.3      12 GLL5        0.0000 
     59 CA         40.6500    4.0380    1.8930 C.3       8 GLP5        0.0000 
     60 CA         41.7450    3.3445   -1.4595 C.3       4 GLC5        0.0000 
     61 CA         39.1500    0.2370   -1.3880 C.3       4 GLC5        0.0000 
     62 CA         38.5510    2.1350   -0.4650 C.3      12 GLL5        0.0000 
     63 CA         39.7490   -1.6610   -2.3110 C.3       8 GLP5        0.0000 
     64 N          35.7225   -0.6805   -0.1015 N.am      2 SEC2        0.0000 
     65 N          36.1550    0.1960    1.2830 N.am     10 SEL2        0.0000 
     66 N          35.2900   -1.5570   -1.4860 N.am      6 SEP2        0.0000 
     67 N          36.0490   -0.7740    2.4070 N.am      2 SEC2        0.0000 
     68 N          35.9430   -1.7440    3.5310 N.am      6 SEP2        0.0000 
     69 O          38.5650   -1.4655    1.6390 O.2       1 ALC1        0.0000 
     70 O          38.2980   -0.3600    0.8050 O.2       9 ALL1        0.0000 
     71 O          38.8320   -2.5710    2.4730 O.2       5 ALP1        0.0000 
     72 O          39.6615    0.0425    0.4155 O.2       1 ALC1        0.0000 
     73 O          41.0250    0.4450    0.0260 O.2       5 ALP1        0.0000 
     74 NZ         38.8960   13.3280   -7.4120 N.4       3 LYC4        0.0000 
     75 NZ         39.8090   14.3350   -7.3520 N.4      11 LYL4        0.0000 
     76 NZ         37.9830   12.3210   -7.4720 N.4       7 LYP4        0.0000 
     77 N          38.8960   13.3280   -7.4120 N.am      2 SEC2        0.0000 
     78 N          39.8090   14.3350   -7.3520 N.am     10 SEL2        0.0000 
     79 N          37.9830   12.3210   -7.4720 N.am      6 SEP2        0.0000 
     80 N          40.7435   13.8265   -8.3325 N.am      2 SEC2        0.0000 
     81 N          41.6780   13.3180   -9.3130 N.am      6 SEP2        0.0000 
     82 N          42.2995   15.8155   -7.4750 N.am      2 SEC2        0.0000 
     83 N          41.1260   16.4210   -7.2820 N.am     10 SEL2        0.0000 
     84 N          43.4730   15.2100   -7.6680 N.am      6 SEP2        0.0000 
     85 N          41.2735   17.1735   -8.4275 N.am      2 SEC2        0.0000 
     86 N          41.4210   17.9260   -9.5730 N.am      6 SEP2        0.0000 
     87 N          40.8505   17.7005   -6.4500 N.am      2 SEC2        0.0000 
     88 N          40.5750   18.9800   -5.6180 N.am      6 SEP2        0.0000 
     89 CA         37.1883   13.2235   -3.8895 C.3       4 GLC5        0.0000 
     90 CA         38.6640   14.3050   -3.8750 C.3      12 GLL5        0.0000 
     91 CA         35.4870   12.3420   -4.5830 C.3       8 GLP5        0.0000 
     92 CA         39.4763   12.7865   -5.2510 C.3       4 GLC5        0.0000 
     93 CA         43.5687   15.2435   -1.9145 C.3       4 GLC5        0.0000 
     94 CA         43.8810   13.5390   -0.8400 C.3       8 GLP5        0.0000 
     95 CA         45.3385   17.3092   -1.2560 C.3       4 GLC5        0.0000 
     96 CA         43.9250   16.8570   -3.0600 C.3      12 GLL5        0.0000 
     97 CA         46.2930   17.2580    0.4240 C.3       8 GLP5        0.0000 
     98 CA         43.3173   17.8780   -4.5640 C.3       4 GLC5        0.0000 
     99 CA         40.9982    7.9410   -3.4995 C.3       4 GLC5        0.0000 
    100 CA         41.2440    9.3700   -4.9900 C.3       8 GLP5        0.0000 
    101 CA         38.0270    5.0450   -4.4383 C.3       4 GLC5        0.0000 
    102 CA         39.5530    5.5420   -3.2110 C.3      12 GLL5        0.0000 
    103 CA         36.4990    5.2900   -5.6080 C.3       8 GLP5        0.0000 
    104 CA         41.3773    5.3500   -4.3026 C.3       4 GLC5        0.0000 
    105 CA         42.9140    5.8230   -5.5510 C.3       8 GLP5        0.0000 
    106 CA         39.3175    3.0260    0.9007 C.3       4 GLC5        0.0000 
    107 CA         39.0099    4.0311    0.9426 C.3       4 GLC5        0.0000 
    108 CA         38.0270    4.4880   -0.4830 C.3      12 GLL5        0.0000 
@<TRIPOS>BOND
@<TRIPOS>SUBSTRUCTURE
     1 ALC1       18 GROUP        1 X    ALC  0     ROOT ALC X 1
     2 SEC2        1 GROUP        1 X    SEC  0     **** SEC X 2
     3 LYC4       74 GROUP        1 X    LYC  0     **** LYC X 4
     4 GLC5        9 GROUP        1 X    GLC  0     **** GLC X 6
     5 ALP1       20 GROUP        1 Y    ALP  0     ROOT ALP Y 8
     6 SEP2        3 GROUP        1 Y    SEP  0     **** SEP Y 9
     7 LYP4       76 GROUP        1 Y    LYP  0     **** LYP Y 11
     8 GLP5       11 GROUP        1 Y    GLP  0     **** GLP Y 13
     9 ALL1       19 GROUP        1 Z    ALL  0     ROOT ALL Z 15
    10 SEL2        2 GROUP        1 Z    SEL  0     **** SEL Z 16
    11 LYL4       75 GROUP        1 Z    LYL  0     **** LYL Z 18
    12 GLL5       10 GROUP        1 Z    GLL  0     **** GLL Z 20
@<TRIPOS>SET

