#    Name: 1q5m_NAP_2_ligand
#    Modification time : Mon Mar 24 23:06:35 2014

@<TRIPOS>MOLECULE
1q5m_NAP_2_ligand
   73    77     1     0     0
SMALL
NO_CHARGES


@<TRIPOS>ATOM
      1 PA         40.3560   10.7700   -0.6030 P.3       1 NAP1004     0.0000 
      2 O1A        40.2280   10.7980    0.8730 O.co2     1 NAP1004     0.0000 
      3 O2A        41.6070   10.3260   -1.1770 O.co2     1 NAP1004     0.0000 
      4 O5B        39.8780   12.1690   -1.1240 O.3       1 NAP1004     0.0000 
      5 C5B        39.5990   12.4430   -2.4660 C.3       1 NAP1004     0.0000 
      6 C4B        39.1150   13.9050   -2.5170 C.3       1 NAP1004     0.0000 
      7 O4B        40.2320   14.7610   -2.1940 O.3       1 NAP1004     0.0000 
      8 C3B        38.6640   14.3050   -3.8750 C.3       1 NAP1004     0.0000 
      9 O3B        37.5200   15.1810   -3.8340 O.3       1 NAP1004     0.0000 
     10 C2B        39.8550   15.0230   -4.5010 C.3       1 NAP1004     0.0000 
     11 O2B        39.4530   15.9910   -5.4920 O.3       1 NAP1004     0.0000 
     12 C1B        40.4200   15.7310   -3.2690 C.3       1 NAP1004     0.0000 
     13 N9A        41.8660   15.9290   -3.3280 N.pl3     1 NAP1004     0.0000 
     14 C8A        42.8790   15.0780   -3.7110 C.2       1 NAP1004     0.0000 
     15 N7A        44.1030   15.5850   -3.5820 N.2       1 NAP1004     0.0000 
     16 C5A        43.9250   16.8570   -3.0600 C.ar      1 NAP1004     0.0000 
     17 C6A        44.8430   17.8640   -2.8120 C.ar      1 NAP1004     0.0000 
     18 N6A        46.1170   17.7030   -2.9120 N.pl3     1 NAP1004     0.0000 
     19 N1A        44.2660   19.0760   -2.3890 N.ar      1 NAP1004     0.0000 
     20 C2A        42.9020   19.1690   -2.1760 C.ar      1 NAP1004     0.0000 
     21 N3A        42.0020   18.1890   -2.4580 N.ar      1 NAP1004     0.0000 
     22 C4A        42.5880   17.0390   -2.9180 C.ar      1 NAP1004     0.0000 
     23 O3         39.1370    9.9110   -1.2620 O.3       1 NAP1004     0.0000 
     24 PN         38.5500    8.4580   -1.2730 P.3       1 NAP1004     0.0000 
     25 O1N        37.5390    8.3730   -0.3120 O.co2     1 NAP1004     0.0000 
     26 O2N        38.2870    8.2500   -2.7530 O.co2     1 NAP1004     0.0000 
     27 O5D        39.7280    7.4750   -0.8070 O.3       1 NAP1004     0.0000 
     28 C5D        40.8100    7.1740   -1.6640 C.3       1 NAP1004     0.0000 
     29 C4D        40.6950    5.8500   -2.3540 C.3       1 NAP1004     0.0000 
     30 O4D        40.6490    4.7970   -1.3260 O.3       1 NAP1004     0.0000 
     31 C3D        39.5530    5.5420   -3.2110 C.3       1 NAP1004     0.0000 
     32 O3D        39.6190    6.2820   -4.4520 O.3       1 NAP1004     0.0000 
     33 C2D        39.5570    4.0580   -3.3260 C.3       1 NAP1004     0.0000 
     34 O2D        40.6370    3.6890   -4.2230 O.3       1 NAP1004     0.0000 
     35 C1D        39.9410    3.6600   -1.8800 C.3       1 NAP1004     0.0000 
     36 N1N        38.7610    3.4310   -0.9480 N.pl3     1 NAP1004     0.0000 
     37 C2N        38.5510    2.1350   -0.4650 C.ar      1 NAP1004     0.0000 
     38 C3N        37.4190    1.8930    0.2820 C.ar      1 NAP1004     0.0000 
     39 C7N        37.3070    0.4820    0.8140 C.2       1 NAP1004     0.0000 
     40 O7N        36.1550    0.1960    1.2830 O.2       1 NAP1004     0.0000 
     41 N7N        38.2980   -0.3600    0.8050 N.am      1 NAP1004     0.0000 
     42 C4N        36.5460    2.8860    0.6740 C.ar      1 NAP1004     0.0000 
     43 C5N        36.8790    4.2350    0.2610 C.ar      1 NAP1004     0.0000 
     44 C6N        38.0270    4.4880   -0.4830 C.ar      1 NAP1004     0.0000 
     45 P2B        39.7940   15.8050   -7.0470 P.3       1 NAP1004     0.0000 
     46 O1X        39.8090   14.3350   -7.3520 O.co2     1 NAP1004     0.0000 
     47 O2X        38.6150   16.5500   -7.6750 O.co2     1 NAP1004     0.0000 
     48 O3X        41.1260   16.4210   -7.2820 O.co2     1 NAP1004     0.0000 
     49 H          38.8028   11.8262   -2.8698 H         1 NAP1004     0.0000 
     50 H          40.4725   12.3707   -3.1057 H         1 NAP1004     0.0000 
     51 H          38.3281   14.0356   -1.8119 H         1 NAP1004     0.0000 
     52 H          38.4768   13.4238   -4.4583 H         1 NAP1004     0.0000 
     53 H          40.5497   14.3167   -4.8244 H         1 NAP1004     0.0000 
     54 H          39.8928   16.6012   -3.0715 H         1 NAP1004     0.0000 
     55 H          42.6857   14.1559   -4.0560 H         1 NAP1004     0.0000 
     56 H          46.4268   16.7826   -3.1503 H         1 NAP1004     0.0000 
     57 H          46.6776   18.5134   -2.7419 H         1 NAP1004     0.0000 
     58 H          42.5377   20.0828   -1.7584 H         1 NAP1004     0.0000 
     59 H          41.7805    7.1840   -1.1057 H         1 NAP1004     0.0000 
     60 H          40.9295    7.9598   -2.4526 H         1 NAP1004     0.0000 
     61 H          41.6286    5.6604   -2.9230 H         1 NAP1004     0.0000 
     62 H          38.6462    5.8234   -2.6459 H         1 NAP1004     0.0000 
     63 H          38.6419    3.6943   -3.5582 H         1 NAP1004     0.0000 
     64 H          40.5682    2.8102   -1.8977 H         1 NAP1004     0.0000 
     65 H          39.2221    1.3978   -0.6654 H         1 NAP1004     0.0000 
     66 H          38.1129   -1.2616    1.1960 H         1 NAP1004     0.0000 
     67 H          39.1537   -0.0282    0.4079 H         1 NAP1004     0.0000 
     68 H          35.7245    2.7207    1.2106 H         1 NAP1004     0.0000 
     69 H          36.2460    4.9927    0.5325 H         1 NAP1004     0.0000 
     70 H          38.3095    5.4542   -0.6740 H         1 NAP1004     0.0000 
     71 H          37.7709   15.9611   -4.4070 H         1 NAP1004     0.0000 
     72 H          39.0994    7.1193   -4.2818 H         1 NAP1004     0.0000 
     73 H          40.8563    2.7421   -3.9880 H         1 NAP1004     0.0000 
@<TRIPOS>BOND
     1    2    1 ar   
     2    3    1 ar   
     3    4    1 1    
     4   23    1 1    
     5    5    4 1    
     6    6    5 1    
     7   49    5 1    
     8   50    5 1    
     9    7    6 1    
    10    8    6 1    
    11   51    6 1    
    12   12    7 1    
    13    9    8 1    
    14   10    8 1    
    15   52    8 1    
    16   71    9 1    
    17   11   10 1    
    18   12   10 1    
    19   53   10 1    
    20   45   11 1    
    21   13   12 1    
    22   54   12 1    
    23   14   13 1    
    24   22   13 1    
    25   15   14 2    
    26   55   14 1    
    27   16   15 1    
    28   17   16 ar   
    29   22   16 ar   
    30   18   17 1    
    31   19   17 ar   
    32   56   18 1    
    33   57   18 1    
    34   20   19 ar   
    35   21   20 ar   
    36   58   20 1    
    37   22   21 ar   
    38   24   23 1    
    39   25   24 ar   
    40   26   24 ar   
    41   27   24 1    
    42   28   27 1    
    43   29   28 1    
    44   59   28 1    
    45   60   28 1    
    46   30   29 1    
    47   31   29 1    
    48   61   29 1    
    49   35   30 1    
    50   32   31 1    
    51   33   31 1    
    52   62   31 1    
    53   72   32 1    
    54   34   33 1    
    55   35   33 1    
    56   63   33 1    
    57   73   34 1    
    58   36   35 1    
    59   64   35 1    
    60   37   36 ar   
    61   44   36 ar   
    62   38   37 ar   
    63   65   37 1    
    64   39   38 1    
    65   42   38 ar   
    66   40   39 2    
    67   41   39 am   
    68   66   41 1    
    69   67   41 1    
    70   43   42 ar   
    71   68   42 1    
    72   44   43 ar   
    73   69   43 1    
    74   70   44 1    
    75   46   45 ar   
    76   47   45 ar   
    77   48   45 ar   
@<TRIPOS>SUBSTRUCTURE
     1 NAP1004     1 GROUP   
@<TRIPOS>SET

