#    Name: 3k3h_BYE_1_INTS_M
#    Modification time : Mon Mar 24 18:09:15 2014

@<TRIPOS>MOLECULE
3k3h_BYE_1_INTS_M
   44     0     6     0     0
SMALL
NO_CHARGES


@<TRIPOS>ATOM
      1 CA         80.6265   53.0395   40.3045 C.3       2 GLC5        0.0000 
      2 CA         80.6460   51.0480   39.6930 C.3       6 GLL5        0.0000 
      3 CA         80.6070   55.0310   40.9160 C.3       4 GLP5        0.0000 
      4 CA         72.1935   55.6900   38.0985 C.3       2 GLC5        0.0000 
      5 CA         72.4730   55.5060   40.2650 C.3       6 GLL5        0.0000 
      6 CA         71.9140   55.8740   35.9320 C.3       4 GLP5        0.0000 
      7 CA         71.9270   57.5565   39.6760 C.3       2 GLC5        0.0000 
      8 CA         71.3810   59.6070   39.0870 C.3       4 GLP5        0.0000 
      9 CA         74.9060   58.1625   40.1265 C.3       2 GLC5        0.0000 
     10 CA         74.2860   56.5550   39.5190 C.3       6 GLL5        0.0000 
     11 CA         75.5260   59.7700   40.7340 C.3       4 GLP5        0.0000 
     12 CA         72.8335   58.0810   39.3030 C.3       2 GLC5        0.0000 
     13 N          74.4175   52.9145   46.2165 N.am      1 SEC2        0.0000 
     14 N          75.4860   52.0920   45.6680 N.am      5 SEL2        0.0000 
     15 N          73.3490   53.7370   46.7650 N.am      3 SEP2        0.0000 
     16 CA         73.3590   51.5310   41.5515 C.3       2 GLC5        0.0000 
     17 CA         73.9960   53.3530   41.3370 C.3       6 GLL5        0.0000 
     18 CA         72.7220   49.7090   41.7660 C.3       4 GLP5        0.0000 
     19 CA         74.8370   56.8235   44.0400 C.3       2 GLC5        0.0000 
     20 CA         74.5870   55.6410   42.1770 C.3       6 GLL5        0.0000 
     21 CA         75.0870   58.0060   45.9030 C.3       4 GLP5        0.0000 
     22 CA         75.0565   57.7055   41.4555 C.3       2 GLC5        0.0000 
     23 CA         77.1160   47.8300   39.0420 C.3       2 GLC5        0.0000 
     24 CA         76.5210   49.3210   40.2000 C.3       6 GLL5        0.0000 
     25 CA         77.7110   46.3390   37.8840 C.3       4 GLP5        0.0000 
     26 CA         77.4045   47.9185   41.5425 C.3       2 GLC5        0.0000 
     27 CA         78.2880   46.5160   42.8850 C.3       4 GLP5        0.0000 
     28 CA         75.2080   49.1460   41.0015 C.3       2 GLC5        0.0000 
     29 CA         73.8950   48.9710   41.8030 C.3       4 GLP5        0.0000 
     30 CA         78.0595   48.1510   38.6450 C.3       2 GLC5        0.0000 
     31 CA         78.0880   50.0110   40.0220 C.3       6 GLL5        0.0000 
     32 CA         78.8388   52.6658   41.3952 C.3       2 GLC5        0.0000 
     33 CA         78.7250   50.6300   41.0910 C.3       6 GLL5        0.0000 
     34 CA         78.3130   54.4430   41.7830 C.3       4 GLP5        0.0000 
     35 CA         74.1905   55.5005   37.6718 C.3       2 GLC5        0.0000 
     36 CA         74.3570   55.2520   35.9380 C.3       4 GLP5        0.0000 
     37 CA         71.9960   56.4485   40.6330 C.3       2 GLC5        0.0000 
     38 CA         70.2920   56.9070   41.4800 C.3       4 GLP5        0.0000 
     39 CA         77.5920   52.9252   42.5040 C.3       2 GLC5        0.0000 
     40 CA         76.9670   51.4020   42.5380 C.3       6 GLL5        0.0000 
     41 CA         75.7890   55.4543   39.1749 C.3       2 GLC5        0.0000 
     42 CA         74.5880   54.7140   40.9600 C.3       6 GLL5        0.0000 
     43 CA         77.2720   55.6770   38.1670 C.3       4 GLP5        0.0000 
     44 CA         76.3762   54.6401   41.7229 C.3       2 GLC5        0.0000 
@<TRIPOS>BOND
@<TRIPOS>SUBSTRUCTURE
     1 SEC2       13 GROUP        1 X    SEC  0     ROOT SEC X 2
     2 GLC5        1 GROUP        1 X    GLC  0     **** GLC X 6
     3 SEP2       15 GROUP        1 Y    SEP  0     ROOT SEP Y 9
     4 GLP5        3 GROUP        1 Y    GLP  0     **** GLP Y 13
     5 SEL2       14 GROUP        1 Z    SEL  0     ROOT SEL Z 16
     6 GLL5        2 GROUP        1 Z    GLL  0     **** GLL Z 20
@<TRIPOS>SET

