#    Name: 3k3h_BYE_1_ligand
#    Modification time : Mon Mar 24 18:09:15 2014

@<TRIPOS>MOLECULE
3k3h_BYE_1_ligand
   39    41     1     0     0
SMALL
NO_CHARGES


@<TRIPOS>ATOM
      1 C2         78.0880   50.0110   40.0220 C.ar      1 BYE600      0.0000 
      2 C3         78.7280   49.9150   38.7900 C.ar      1 BYE600      0.0000 
      3 C4         80.0090   50.4320   38.6230 C.ar      1 BYE600      0.0000 
      4 C5         80.6460   51.0480   39.6930 C.ar      1 BYE600      0.0000 
      5 F5         72.4730   55.5060   40.2650 F         1 BYE600      0.0000 
      6 C6         80.0040   51.1470   40.9240 C.ar      1 BYE600      0.0000 
      7 F6         73.7690   54.5420   38.7430 F         1 BYE600      0.0000 
      8 C7         78.7250   50.6300   41.0910 C.ar      1 BYE600      0.0000 
      9 F7         74.2860   56.5550   39.5190 F         1 BYE600      0.0000 
     10 N8         78.1300   50.7570   42.3010 N.pl3     1 BYE600      0.0000 
     11 N9         78.6290   50.3750   43.3820 N.2       1 BYE600      0.0000 
     12 C10        77.8650   50.7350   44.4380 C.2       1 BYE600      0.0000 
     13 C11        76.9670   51.4020   42.5380 C.2       1 BYE600      0.0000 
     14 C12        76.7750   51.4130   43.9120 C.2       1 BYE600      0.0000 
     15 N13        76.0560   52.0070   41.7300 N.pl3     1 BYE600      0.0000 
     16 C14        74.9650   52.6270   42.2560 C.2       1 BYE600      0.0000 
     17 N15        74.7600   52.6490   43.6000 N.2       1 BYE600      0.0000 
     18 C16        75.6620   52.0460   44.4520 C.2       1 BYE600      0.0000 
     19 O17        75.4860   52.0920   45.6680 O.2       1 BYE600      0.0000 
     20 C18        73.9960   53.3530   41.3370 C.3       1 BYE600      0.0000 
     21 C19        74.5880   54.7140   40.9600 C.3       1 BYE600      0.0000 
     22 C20        74.5870   55.6410   42.1770 C.3       1 BYE600      0.0000 
     23 C21        73.7550   55.3440   39.8410 C.3       1 BYE600      0.0000 
     24 CL1        76.5210   49.3210   40.2000 C.3       1 BYE600      0.0000 
     25 H          78.2516   49.4595   37.9988 H         1 BYE600      0.0000 
     26 H          80.4796   50.3582   37.7145 H         1 BYE600      0.0000 
     27 H          81.5934   51.4318   39.5765 H         1 BYE600      0.0000 
     28 H          80.4800   51.6058   41.7142 H         1 BYE600      0.0000 
     29 H          78.0224   50.5692   45.3532 H         1 BYE600      0.0000 
     30 H          76.1946   51.9960   40.6962 H         1 BYE600      0.0000 
     31 H          73.0537   53.5034   41.8469 H         1 BYE600      0.0000 
     32 H          73.8408   52.7709   40.4384 H         1 BYE600      0.0000 
     33 H          75.5905   54.5809   40.6183 H         1 BYE600      0.0000 
     34 H          75.1262   55.2651   42.9306 H         1 BYE600      0.0000 
     35 H          74.9714   56.5384   41.9606 H         1 BYE600      0.0000 
     36 H          73.6626   55.7946   42.5261 H         1 BYE600      0.0000 
     37 H          76.5255   48.3376   40.0188 H         1 BYE600      0.0000 
     38 H          76.1626   49.4469   41.1251 H         1 BYE600      0.0000 
     39 H          75.8607   49.7319   39.5714 H         1 BYE600      0.0000 
@<TRIPOS>BOND
     1    2    1 ar   
     2    8    1 ar   
     3   24    1 1    
     4    3    2 ar   
     5   25    2 1    
     6    4    3 ar   
     7   26    3 1    
     8    6    4 ar   
     9   27    4 1    
    10   23    5 1    
    11    8    6 ar   
    12   28    6 1    
    13   23    7 1    
    14   10    8 1    
    15   23    9 1    
    16   11   10 1    
    17   13   10 1    
    18   12   11 2    
    19   14   12 1    
    20   29   12 1    
    21   14   13 2    
    22   15   13 1    
    23   18   14 1    
    24   16   15 1    
    25   30   15 1    
    26   17   16 2    
    27   20   16 1    
    28   18   17 1    
    29   19   18 2    
    30   21   20 1    
    31   31   20 1    
    32   32   20 1    
    33   22   21 1    
    34   23   21 1    
    35   33   21 1    
    36   34   22 1    
    37   35   22 1    
    38   36   22 1    
    39   37   24 1    
    40   38   24 1    
    41   39   24 1    
@<TRIPOS>SUBSTRUCTURE
     1 BYE600      1 GROUP   
@<TRIPOS>SET

