#    Name: 3w2w_ATP_2_INTS_M
#    Modification time : Tue Mar 25 02:08:20 2014

@<TRIPOS>MOLECULE
3w2w_ATP_2_INTS_M
   68     0    12     0     0
SMALL
NO_CHARGES


@<TRIPOS>ATOM
      1 NZ         14.5770   45.1685   14.1670 N.4       2 LYC4        0.0000 
      2 NZ         14.8040   44.2930   15.8330 N.4      10 LYL4        0.0000 
      3 NZ         14.3500   46.0440   12.5010 N.4       6 LYP4        0.0000 
      4 NZ         14.7690   44.1180   17.1635 N.4       2 LYC4        0.0000 
      5 NZ         14.7340   43.9430   18.4940 N.4       6 LYP4        0.0000 
      6 N          14.7690   44.1180   17.1635 N.am      1 SEC2        0.0000 
      7 N          14.8040   44.2930   15.8330 N.am      9 SEL2        0.0000 
      8 N          14.7340   43.9430   18.4940 N.am      5 SEP2        0.0000 
      9 NZ         17.4465   45.7265   14.9185 N.4       2 LYC4        0.0000 
     10 NZ         16.3350   44.8480   13.9450 N.4      10 LYL4        0.0000 
     11 NZ         18.5580   46.6050   15.8920 N.4       6 LYP4        0.0000 
     12 NZ         15.3425   45.4460   13.2230 N.4       2 LYC4        0.0000 
     13 N          17.1955   44.2035   12.9590 N.am      1 SEC2        0.0000 
     14 N          16.3350   44.8480   13.9450 N.am      9 SEL2        0.0000 
     15 N          18.0560   43.5590   11.9730 N.am      5 SEP2        0.0000 
     16 N          17.4465   45.7265   14.9185 N.am      1 SEC2        0.0000 
     17 N          18.5580   46.6050   15.8920 N.am      5 SEP2        0.0000 
     18 N          15.3425   45.4460   13.2230 N.am      1 SEC2        0.0000 
     19 N          14.3500   46.0440   12.5010 N.am      5 SEP2        0.0000 
     20 NZ         17.9015   45.2645   15.9755 N.4       2 LYC4        0.0000 
     21 NZ         17.2450   43.9240   16.0590 N.4      10 LYL4        0.0000 
     22 NZ         15.9895   43.9335   17.2765 N.4       2 LYC4        0.0000 
     23 Zn         18.2010   43.4235   16.2940 Zn        3 ZIC7        0.0000 
     24 Zn         17.2450   43.9240   16.0590 Zn       11 ZIL7        0.0000 
     25 Zn         19.1570   42.9230   16.5290 Zn        7 ZIP7        0.0000 
     26 N          17.9015   45.2645   15.9755 N.am      1 SEC2        0.0000 
     27 N          17.2450   43.9240   16.0590 N.am      9 SEL2        0.0000 
     28 N          15.9895   43.9335   17.2765 N.am      1 SEC2        0.0000 
     29 N          17.2245   39.1675   13.2275 N.am      1 SEC2        0.0000 
     30 N          16.3370   40.0430   14.0870 N.am      9 SEL2        0.0000 
     31 N          18.1120   38.2920   12.3680 N.am      5 SEP2        0.0000 
     32 Zn         18.6760   42.1900   15.9065 Zn        3 ZIC7        0.0000 
     33 Zn         18.1950   41.4570   15.2840 Zn       11 ZIL7        0.0000 
     34 N          18.6645   41.1745   13.7445 N.am      1 SEC2        0.0000 
     35 N          18.1950   41.4570   15.2840 N.am      9 SEL2        0.0000 
     36 N          19.1340   40.8920   12.2050 N.am      5 SEP2        0.0000 
     37 NZ         15.2380   42.5595   18.7330 N.4       2 LYC4        0.0000 
     38 NZ         15.7420   41.1760   18.9720 N.4      10 LYL4        0.0000 
     39 N          15.2380   42.5595   18.7330 N.am      1 SEC2        0.0000 
     40 N          15.7420   41.1760   18.9720 N.am      9 SEL2        0.0000 
     41 NZ         16.3505   42.8510   18.1420 N.4       2 LYC4        0.0000 
     42 NZ         17.9670   41.7590   17.7900 N.4      10 LYL4        0.0000 
     43 Zn         18.5620   42.3410   17.1595 Zn        3 ZIC7        0.0000 
     44 Zn         17.9670   41.7590   17.7900 Zn       11 ZIL7        0.0000 
     45 CA         21.0190   34.4075   19.1115 C.3       4 GLC5        0.0000 
     46 CA         19.3670   35.8620   18.7850 C.3      12 GLL5        0.0000 
     47 CA         22.6710   32.9530   19.4380 C.3       8 GLP5        0.0000 
     48 CA         18.4285   34.3325   19.8255 C.3       4 GLC5        0.0000 
     49 CA         17.4900   32.8030   20.8660 C.3       8 GLP5        0.0000 
     50 N          17.1955   34.1935   19.0455 N.am      1 SEC2        0.0000 
     51 N          18.1870   35.2610   19.3390 N.am      9 SEL2        0.0000 
     52 N          16.2040   33.1260   18.7520 N.am      5 SEP2        0.0000 
     53 CA         24.0270   31.9010   16.5265 C.3       4 GLC5        0.0000 
     54 CA         23.4560   33.6280   15.3890 C.3      12 GLL5        0.0000 
     55 CA         24.5980   30.1740   17.6640 C.3       8 GLP5        0.0000 
     56 CA         25.0535   35.0785   14.8235 C.3       4 GLC5        0.0000 
     57 CA         26.6510   36.5290   14.2580 C.3       8 GLP5        0.0000 
     58 N          22.9135   31.3510   14.0665 N.am      1 SEC2        0.0000 
     59 N          22.9500   32.4730   14.9370 N.am      9 SEL2        0.0000 
     60 N          22.8770   30.2290   13.1960 N.am      5 SEP2        0.0000 
     61 CA         23.0930   31.1930   16.3940 C.3       4 GLC5        0.0000 
     62 CA         21.5880   32.2120   15.1240 C.3      12 GLL5        0.0000 
     63 CA         22.0725   33.9415   13.8585 C.3       4 GLC5        0.0000 
     64 CA         22.5570   35.6710   12.5930 C.3       8 GLP5        0.0000 
     65 CA         22.7660   31.1145   13.7410 C.3       4 GLC5        0.0000 
     66 CA         23.9440   30.0170   12.3580 C.3       8 GLP5        0.0000 
     67 CA         22.4006   34.9319   14.2776 C.3       4 GLC5        0.0000 
     68 CA         22.7050   34.5290   16.0200 C.3      12 GLL5        0.0000 
@<TRIPOS>BOND
@<TRIPOS>SUBSTRUCTURE
     1 SEC2        6 GROUP        1 X    SEC  0     ROOT SEC X 2
     2 LYC4        1 GROUP        1 X    LYC  0     **** LYC X 4
     3 ZIC7       23 GROUP        1 X    ZIC  0     **** ZIC X 5
     4 GLC5       45 GROUP        1 X    GLC  0     **** GLC X 6
     5 SEP2        8 GROUP        1 Y    SEP  0     ROOT SEP Y 9
     6 LYP4        3 GROUP        1 Y    LYP  0     **** LYP Y 11
     7 ZIP7       25 GROUP        1 Y    ZIP  0     **** ZIP Y 12
     8 GLP5       47 GROUP        1 Y    GLP  0     **** GLP Y 13
     9 SEL2        7 GROUP        1 Z    SEL  0     ROOT SEL Z 16
    10 LYL4        2 GROUP        1 Z    LYL  0     **** LYL Z 18
    11 ZIL7       24 GROUP        1 Z    ZIL  0     **** ZIL Z 19
    12 GLL5       46 GROUP        1 Z    GLL  0     **** GLL Z 20
@<TRIPOS>SET

