#    Name: 3w2w_ATP_2_ligand
#    Modification time : Tue Mar 25 02:08:20 2014

@<TRIPOS>MOLECULE
3w2w_ATP_2_ligand
   43    45     1     0     0
SMALL
NO_CHARGES


@<TRIPOS>ATOM
      1 PG         16.0850   44.0180   15.1460 P.3       1 ATP903      0.0000 
      2 O1G        14.8040   44.2930   15.8330 O.co2     1 ATP903      0.0000 
      3 O2G        16.3350   44.8480   13.9450 O.co2     1 ATP903      0.0000 
      4 O3G        17.2450   43.9240   16.0590 O.co2     1 ATP903      0.0000 
      5 PB         16.7470   41.2630   15.0550 P.3       1 ATP903      0.0000 
      6 O1B        16.3370   40.0430   14.0870 O.co2     1 ATP903      0.0000 
      7 O2B        18.1950   41.4570   15.2840 O.co2     1 ATP903      0.0000 
      8 O3B        15.8930   42.5340   14.5470 O.3       1 ATP903      0.0000 
      9 PA         16.7120   40.9800   17.8740 P.3       1 ATP903      0.0000 
     10 O1A        15.7420   41.1760   18.9720 O.co2     1 ATP903      0.0000 
     11 O2A        17.9670   41.7590   17.7900 O.co2     1 ATP903      0.0000 
     12 O3A        16.0100   40.8480   16.4280 O.3       1 ATP903      0.0000 
     13 O5'        17.1960   39.4560   18.0660 O.3       1 ATP903      0.0000 
     14 C5'        17.9180   38.7720   17.0390 C.3       1 ATP903      0.0000 
     15 C4'        18.2050   37.3490   17.5190 C.3       1 ATP903      0.0000 
     16 O4'        18.9270   36.5610   16.5610 O.3       1 ATP903      0.0000 
     17 C3'        19.1590   37.3610   18.6980 C.3       1 ATP903      0.0000 
     18 O3'        18.4600   37.8050   19.8690 O.3       1 ATP903      0.0000 
     19 C2'        19.3670   35.8620   18.7850 C.3       1 ATP903      0.0000 
     20 O2'        18.1870   35.2610   19.3390 O.3       1 ATP903      0.0000 
     21 C1'        19.5040   35.4810   17.3170 C.3       1 ATP903      0.0000 
     22 N9         20.9190   35.3370   16.9050 N.pl3     1 ATP903      0.0000 
     23 C8         21.9050   36.2030   17.1180 C.2       1 ATP903      0.0000 
     24 N7         23.0090   35.7020   16.5690 N.2       1 ATP903      0.0000 
     25 C5         22.7050   34.5290   16.0200 C.ar      1 ATP903      0.0000 
     26 C6         23.4560   33.6280   15.3890 C.ar      1 ATP903      0.0000 
     27 N6         24.7400   33.9330   15.2230 N.pl3     1 ATP903      0.0000 
     28 N1         22.9500   32.4730   14.9370 N.ar      1 ATP903      0.0000 
     29 C2         21.5880   32.2120   15.1240 C.ar      1 ATP903      0.0000 
     30 N3         20.8250   33.1810   15.7860 N.ar      1 ATP903      0.0000 
     31 C4         21.4080   34.3070   16.2200 C.ar      1 ATP903      0.0000 
     32 H          18.8729   39.2519   16.8243 H         1 ATP903      0.0000 
     33 H          17.3444   38.7042   16.1145 H         1 ATP903      0.0000 
     34 H          17.3110   36.8663   17.8230 H         1 ATP903      0.0000 
     35 H          20.0177   37.8265   18.4577 H         1 ATP903      0.0000 
     36 H          20.2443   35.6572   19.2859 H         1 ATP903      0.0000 
     37 H          18.9667   34.5762   17.1439 H         1 ATP903      0.0000 
     38 H          21.8336   37.0469   17.5881 H         1 ATP903      0.0000 
     39 H          25.3051   33.2343   14.7842 H         1 ATP903      0.0000 
     40 H          25.0245   34.8335   15.5520 H         1 ATP903      0.0000 
     41 H          21.1702   31.3551   14.7932 H         1 ATP903      0.0000 
     42 H          17.8178   38.4974   19.5400 H         1 ATP903      0.0000 
     43 H          17.8368   35.9326   19.9919 H         1 ATP903      0.0000 
@<TRIPOS>BOND
     1    2    1 ar   
     2    3    1 ar   
     3    4    1 ar   
     4    8    1 1    
     5    6    5 ar   
     6    7    5 ar   
     7    8    5 1    
     8   12    5 1    
     9   10    9 ar   
    10   11    9 ar   
    11   12    9 1    
    12   13    9 1    
    13   14   13 1    
    14   15   14 1    
    15   32   14 1    
    16   33   14 1    
    17   16   15 1    
    18   17   15 1    
    19   34   15 1    
    20   21   16 1    
    21   18   17 1    
    22   19   17 1    
    23   35   17 1    
    24   42   18 1    
    25   20   19 1    
    26   21   19 1    
    27   36   19 1    
    28   43   20 1    
    29   22   21 1    
    30   37   21 1    
    31   23   22 1    
    32   31   22 1    
    33   24   23 2    
    34   38   23 1    
    35   25   24 1    
    36   26   25 ar   
    37   31   25 ar   
    38   27   26 1    
    39   28   26 ar   
    40   39   27 1    
    41   40   27 1    
    42   29   28 ar   
    43   30   29 ar   
    44   41   29 1    
    45   31   30 ar   
@<TRIPOS>SUBSTRUCTURE
     1 ATP903      1 GROUP   
@<TRIPOS>SET

