#    Name: 1qgd_TPP_2_INTS_M
#    Modification time : Mon Mar 24 23:27:08 2014

@<TRIPOS>MOLECULE
1qgd_TPP_2_INTS_M
   77     0     9     0     0
SMALL
NO_CHARGES


@<TRIPOS>ATOM
      1 CA         15.9630   26.7165   44.8470 C.3       3 GLC5        0.0000 
      2 CA         14.6930   25.2610   45.3620 C.3       9 GLL5        0.0000 
      3 CA         17.2330   28.1720   44.3320 C.3       6 GLP5        0.0000 
      4 CA         12.8895   24.1310   46.4245 C.3       3 GLC5        0.0000 
      5 CA         13.2630   25.6760   45.3430 C.3       9 GLL5        0.0000 
      6 CA         12.5160   22.5860   47.5060 C.3       6 GLP5        0.0000 
      7 CA         11.6450   26.0660   45.7910 C.3       3 GLC5        0.0000 
      8 CA         10.0270   26.4560   46.2390 C.3       6 GLP5        0.0000 
      9 CA         13.3710   26.5350   47.3420 C.3       3 GLC5        0.0000 
     10 CA         13.4790   27.3940   49.3410 C.3       6 GLP5        0.0000 
     11 CA         14.1775   27.4610   45.2350 C.3       3 GLC5        0.0000 
     12 CA         15.0920   29.2460   45.1270 C.3       6 GLP5        0.0000 
     13 N          14.7815   27.1135   46.8085 N.am      2 SEC2        0.0000 
     14 N          15.4310   25.7400   46.3360 N.am      8 SEL2        0.0000 
     15 N          14.1320   28.4870   47.2810 N.am      5 SEP2        0.0000 
     16 O          16.7655   26.7930   48.4375 O.2       1 ALC1        0.0000 
     17 O          17.3570   25.9320   47.5020 O.2       7 ALL1        0.0000 
     18 O          16.1740   27.6540   49.3730 O.2       4 ALP1        0.0000 
     19 O          18.5390   26.1835   48.4575 O.2       1 ALC1        0.0000 
     20 O          19.7210   26.4350   49.4130 O.2       4 ALP1        0.0000 
     21 CA         17.5145   22.1195   44.0390 C.3       3 GLC5        0.0000 
     22 CA         16.4900   24.0320   44.5030 C.3       9 GLL5        0.0000 
     23 CA         18.5390   20.2070   43.5750 C.3       6 GLP5        0.0000 
     24 CA         16.1125   25.3765   42.8485 C.3       3 GLC5        0.0000 
     25 CA         15.7350   26.7210   41.1940 C.3       6 GLP5        0.0000 
     26 CA         19.8380   22.5935   44.6140 C.3       3 GLC5        0.0000 
     27 CA         18.7820   24.0550   45.5570 C.3       9 GLL5        0.0000 
     28 CA         20.8940   21.1320   43.6710 C.3       6 GLP5        0.0000 
     29 CA         19.1975   22.1685   46.5875 C.3       3 GLC5        0.0000 
     30 CA         19.6130   20.2820   47.6180 C.3       6 GLP5        0.0000 
     31 CA         17.0035   23.2260   46.5775 C.3       3 GLC5        0.0000 
     32 CA         15.2250   22.3970   47.5980 C.3       6 GLP5        0.0000 
     33 CA         21.7055   28.6295   46.9005 C.3       3 GLC5        0.0000 
     34 CA         20.9920   27.3900   45.4620 C.3       9 GLL5        0.0000 
     35 CA         22.4190   29.8690   48.3390 C.3       6 GLP5        0.0000 
     36 CA         19.5965   24.4680   40.7545 C.3       3 GLC5        0.0000 
     37 CA         19.4490   24.8620   42.7080 C.3       9 GLL5        0.0000 
     38 CA         19.7440   24.0740   38.8010 C.3       6 GLP5        0.0000 
     39 CA         20.1715   22.9970   43.1895 C.3       3 GLC5        0.0000 
     40 CA         18.6055   25.9255   41.2375 C.3       3 GLC5        0.0000 
     41 CA         17.7620   26.9890   39.7670 C.3       6 GLP5        0.0000 
     42 CA         19.4055   27.1845   41.1840 C.3       3 GLC5        0.0000 
     43 CA         21.0490   27.3800   42.6010 C.3       9 GLL5        0.0000 
     44 CA         19.1410   27.7760   43.4665 C.3       3 GLC5        0.0000 
     45 CA         23.1585   28.4030   40.8600 C.3       3 GLC5        0.0000 
     46 CA         22.1550   28.3900   42.7790 C.3       9 GLL5        0.0000 
     47 CA         24.1620   28.4160   38.9410 C.3       6 GLP5        0.0000 
     48 N          21.0125   32.8190   40.7040 N.am      2 SEC2        0.0000 
     49 N          22.0990   31.5300   40.9150 N.am      8 SEL2        0.0000 
     50 N          19.9260   34.1080   40.4930 N.am      5 SEP2        0.0000 
     51 N          19.5280   31.5365   41.7345 N.am      2 SEC2        0.0000 
     52 N          20.4580   31.4010   42.8550 N.am      8 SEL2        0.0000 
     53 N          18.5980   31.6720   40.6140 N.am      5 SEP2        0.0000 
     54 N          22.9080   31.1245   44.9175 N.am      2 SEC2        0.0000 
     55 N          22.8840   31.2150   43.3120 N.am      8 SEL2        0.0000 
     56 N          22.9320   31.0340   46.5230 N.am      5 SEP2        0.0000 
     57 N          25.3760   29.2480   43.7905 N.am      2 SEC2        0.0000 
     58 N          25.1650   30.1900   42.9410 N.am      8 SEL2        0.0000 
     59 N          25.5870   28.3060   44.6400 N.am      5 SEP2        0.0000 
     60 N          25.5590   33.6815   41.9185 N.am      2 SEC2        0.0000 
     61 N          24.7140   32.5400   42.2490 N.am      8 SEL2        0.0000 
     62 N          26.4040   34.8230   41.5880 N.am      5 SEP2        0.0000 
     63 N          23.7600   33.6490   41.7815 N.am      2 SEC2        0.0000 
     64 N          22.8060   34.7580   41.3140 N.am      5 SEP2        0.0000 
     65 N          23.8710   31.5100   45.5970 N.am      2 SEC2        0.0000 
     66 N          24.8100   31.9860   44.6710 N.am      8 SEL2        0.0000 
     67 CA         16.9969   26.3295   44.7840 C.3       3 GLC5        0.0000 
     68 CA         16.7450   25.3760   46.4590 C.3       9 GLL5        0.0000 
     69 CA         18.8960   27.4515   45.0640 C.3       3 GLC5        0.0000 
     70 CA         20.1260   26.0720   46.1300 C.3       9 GLL5        0.0000 
     71 CA         21.7510   25.3965   44.7100 C.3       3 GLC5        0.0000 
     72 CA         22.9430   24.0620   43.6240 C.3       6 GLP5        0.0000 
     73 CA         18.5456   26.8499   43.8217 C.3       3 GLC5        0.0000 
     74 CA         20.6310   26.7670   43.9110 C.3       9 GLL5        0.0000 
     75 CA         21.4006   24.7949   43.4677 C.3       3 GLC5        0.0000 
     76 CA         22.7490   26.3335   42.6755 C.3       3 GLC5        0.0000 
     77 CA         23.8960   24.7820   42.6610 C.3       6 GLP5        0.0000 
@<TRIPOS>BOND
@<TRIPOS>SUBSTRUCTURE
     1 ALC1       16 GROUP        1 X    ALC  0     ROOT ALC X 1
     2 SEC2       13 GROUP        1 X    SEC  0     **** SEC X 2
     3 GLC5        1 GROUP        1 X    GLC  0     **** GLC X 6
     4 ALP1       18 GROUP        1 Y    ALP  0     ROOT ALP Y 8
     5 SEP2       15 GROUP        1 Y    SEP  0     **** SEP Y 9
     6 GLP5        3 GROUP        1 Y    GLP  0     **** GLP Y 13
     7 ALL1       17 GROUP        1 Z    ALL  0     ROOT ALL Z 15
     8 SEL2       14 GROUP        1 Z    SEL  0     **** SEL Z 16
     9 GLL5        2 GROUP        1 Z    GLL  0     **** GLL Z 20
@<TRIPOS>SET

