#    Name: 1qgd_TPP_2_ligand
#    Modification time : Mon Mar 24 23:27:08 2014

@<TRIPOS>MOLECULE
1qgd_TPP_2_ligand
   42    43     1     0     0
SMALL
NO_CHARGES


@<TRIPOS>ATOM
      1 N1'        15.1590   24.4220   44.4140 N.ar      1 TPP670      0.0000 
      2 C2'        14.6930   25.2610   45.3620 C.ar      1 TPP670      0.0000 
      3 CM2        13.2630   25.6760   45.3430 C.3       1 TPP670      0.0000 
      4 N3'        15.4310   25.7400   46.3360 N.ar      1 TPP670      0.0000 
      5 C4'        16.7450   25.3760   46.4590 C.ar      1 TPP670      0.0000 
      6 N4'        17.3570   25.9320   47.5020 N.pl3     1 TPP670      0.0000 
      7 C5'        17.3180   24.5080   45.4790 C.ar      1 TPP670      0.0000 
      8 C6'        16.4900   24.0320   44.5030 C.ar      1 TPP670      0.0000 
      9 C7'        18.7820   24.0550   45.5570 C.3       1 TPP670      0.0000 
     10 N3         19.6190   25.2160   45.2250 N.pl3     1 TPP670      0.0000 
     11 C2         20.1260   26.0720   46.1300 C.2       1 TPP670      0.0000 
     12 S1         20.9920   27.3900   45.4620 S.3       1 TPP670      0.0000 
     13 C5         20.6310   26.7670   43.9110 C.2       1 TPP670      0.0000 
     14 C4         19.9040   25.6200   43.9190 C.2       1 TPP670      0.0000 
     15 CM4        19.4490   24.8620   42.7080 C.3       1 TPP670      0.0000 
     16 C6         21.0490   27.3800   42.6010 C.3       1 TPP670      0.0000 
     17 C7         22.1550   28.3900   42.7790 C.3       1 TPP670      0.0000 
     18 O7         21.7590   29.4380   41.9340 O.3       1 TPP670      0.0000 
     19 PA         21.7270   30.9910   42.2440 P.3       1 TPP670      0.0000 
     20 O1A        22.0990   31.5300   40.9150 O.co2     1 TPP670      0.0000 
     21 O2A        20.4580   31.4010   42.8550 O.co2     1 TPP670      0.0000 
     22 O3A        22.8840   31.2150   43.3120 O.3       1 TPP670      0.0000 
     23 PB         24.4530   31.5080   43.3010 P.3       1 TPP670      0.0000 
     24 O1B        25.1650   30.1900   42.9410 O.co2     1 TPP670      0.0000 
     25 O2B        24.7140   32.5400   42.2490 O.co2     1 TPP670      0.0000 
     26 O3B        24.8100   31.9860   44.6710 O.co2     1 TPP670      0.0000 
     27 H          16.8025   26.5500   48.0594 H         1 TPP670      0.0000 
     28 H          18.3161   25.6816   47.6343 H         1 TPP670      0.0000 
     29 H          16.8583   23.3538   43.7970 H         1 TPP670      0.0000 
     30 H          18.9304   23.2526   44.8485 H         1 TPP670      0.0000 
     31 H          18.9797   23.7067   46.5607 H         1 TPP670      0.0000 
     32 H          20.1055   26.1019   47.0857 H         1 TPP670      0.0000 
     33 H          20.1833   27.8694   42.1354 H         1 TPP670      0.0000 
     34 H          21.3881   26.5880   41.9202 H         1 TPP670      0.0000 
     35 H          23.0803   27.9374   42.4743 H         1 TPP670      0.0000 
     36 H          22.1873   28.6793   43.8130 H         1 TPP670      0.0000 
     37 H          13.0461   26.2959   46.0971 H         1 TPP670      0.0000 
     38 H          13.0253   26.1509   44.4956 H         1 TPP670      0.0000 
     39 H          12.6476   24.8917   45.4220 H         1 TPP670      0.0000 
     40 H          19.7448   25.3033   41.8608 H         1 TPP670      0.0000 
     41 H          19.8116   23.9301   42.6952 H         1 TPP670      0.0000 
     42 H          18.4524   24.7893   42.6681 H         1 TPP670      0.0000 
@<TRIPOS>BOND
     1    2    1 ar   
     2    8    1 ar   
     3    3    2 1    
     4    4    2 ar   
     5   37    3 1    
     6   38    3 1    
     7   39    3 1    
     8    5    4 ar   
     9    6    5 1    
    10    7    5 ar   
    11   27    6 1    
    12   28    6 1    
    13    8    7 ar   
    14    9    7 1    
    15   29    8 1    
    16   10    9 1    
    17   30    9 1    
    18   31    9 1    
    19   11   10 2    
    20   14   10 1    
    21   12   11 1    
    22   32   11 1    
    23   13   12 1    
    24   14   13 2    
    25   16   13 1    
    26   15   14 1    
    27   40   15 1    
    28   41   15 1    
    29   42   15 1    
    30   17   16 1    
    31   33   16 1    
    32   34   16 1    
    33   18   17 1    
    34   35   17 1    
    35   36   17 1    
    36   19   18 1    
    37   20   19 ar   
    38   21   19 ar   
    39   22   19 1    
    40   23   22 1    
    41   24   23 ar   
    42   25   23 ar   
    43   26   23 ar   
@<TRIPOS>SUBSTRUCTURE
     1 TPP670      1 GROUP   
@<TRIPOS>SET

