#    Name: 4m0k_AMP_3_INTS_M
#    Modification time : Tue Mar 25 11:44:59 2014

@<TRIPOS>MOLECULE
4m0k_AMP_3_INTS_M
   53     0     9     0     0
SMALL
NO_CHARGES


@<TRIPOS>ATOM
      1 N          33.6035   32.6570    8.8385 N.am      2 SEC2        0.0000 
      2 N          33.1690   31.2770    8.8970 N.am      8 SEL2        0.0000 
      3 N          34.0380   34.0370    8.7800 N.am      5 SEP2        0.0000 
      4 N          32.7160   32.1670    9.8090 N.am      2 SEC2        0.0000 
      5 N          32.2630   33.0570   10.7210 N.am      5 SEP2        0.0000 
      6 N          35.7025   28.2435    8.6555 N.am      2 SEC2        0.0000 
      7 N          34.9730   29.4960    8.7960 N.am      8 SEL2        0.0000 
      8 N          36.4320   26.9910    8.5150 N.am      5 SEP2        0.0000 
      9 N          35.5455   29.9250    7.5245 N.am      2 SEC2        0.0000 
     10 N          36.1180   30.3540    6.2530 N.am      5 SEP2        0.0000 
     11 N          33.7555   28.5595    6.8230 N.am      2 SEC2        0.0000 
     12 N          32.7270   29.1100    7.6900 N.am      8 SEL2        0.0000 
     13 N          34.7840   28.0090    5.9560 N.am      5 SEP2        0.0000 
     14 N          32.8790   29.7695    6.5650 N.am      2 SEC2        0.0000 
     15 N          33.0310   30.4290    5.4400 N.am      5 SEP2        0.0000 
     16 CA         32.6735   31.6130   11.0360 C.3       3 GLC5        0.0000 
     17 CA         31.8310   29.6200   10.8990 C.3       9 GLL5        0.0000 
     18 CA         33.5160   33.6060   11.1730 C.3       6 GLP5        0.0000 
     19 N          34.4815   29.9205   14.5700 N.am      2 SEC2        0.0000 
     20 N          33.2110   29.5670   14.3400 N.am      8 SEL2        0.0000 
     21 N          35.7520   30.2740   14.8000 N.am      5 SEP2        0.0000 
     22 CA         35.1800   26.1325   12.9530 C.3       3 GLC5        0.0000 
     23 CA         33.7740   27.7640   12.7970 C.3       9 GLL5        0.0000 
     24 CA         36.5860   24.5010   13.1090 C.3       6 GLP5        0.0000 
     25 N          33.9475   26.3850   15.0295 N.am      2 SEC2        0.0000 
     26 N          34.6940   27.3770   13.8160 N.am      8 SEL2        0.0000 
     27 N          33.2010   25.3930   16.2430 N.am      5 SEP2        0.0000 
     28 O          35.8830   27.4815   13.2170 O.2       1 ALC1        0.0000 
     29 O          34.6940   27.3770   13.8160 O.2       7 ALL1        0.0000 
     30 O          37.0720   27.5860   12.6180 O.2       4 ALP1        0.0000 
     31 CA         30.4865   21.8850   10.9415 C.3       3 GLC5        0.0000 
     32 CA         32.5870   22.2160   11.4770 C.3       9 GLL5        0.0000 
     33 CA         28.3860   21.5540   10.4060 C.3       6 GLP5        0.0000 
     34 CA         31.6225   20.5355   12.1975 C.3       3 GLC5        0.0000 
     35 CA         30.6580   18.8550   12.9180 C.3       6 GLP5        0.0000 
     36 O          32.0350   19.9785   10.3850 O.2       1 ALC1        0.0000 
     37 O          32.4290   21.3790   10.4180 O.2       7 ALL1        0.0000 
     38 O          31.6410   18.5780   10.3520 O.2       4 ALP1        0.0000 
     39 N          32.9490   20.3950   13.1350 N.am      2 SEC2        0.0000 
     40 N          32.8850   21.7730   12.7230 N.am      8 SEL2        0.0000 
     41 N          33.0130   19.0170   13.5470 N.am      5 SEP2        0.0000 
     42 CA         34.2495   20.8965   13.6620 C.3       3 GLC5        0.0000 
     43 CA         33.0120   22.6000   13.7760 C.3       9 GLL5        0.0000 
     44 CA         35.4870   19.1930   13.5480 C.3       6 GLP5        0.0000 
     45 CA         34.8860   22.9100   13.8600 C.3       3 GLC5        0.0000 
     46 CA         36.7600   23.2200   13.9440 C.3       6 GLP5        0.0000 
     47 N          33.0510   24.6665   14.9655 N.am      2 SEC2        0.0000 
     48 N          32.9010   23.9400   13.6880 N.am      8 SEL2        0.0000 
     49 CA         33.6942   22.6217    9.6835 C.3       3 GLC5        0.0000 
     50 CA         32.4600   23.6630   11.3010 C.3       9 GLL5        0.0000 
     51 CA         34.8650   22.3040    7.9780 C.3       6 GLP5        0.0000 
     52 CA         34.4631   23.9344   11.7905 C.3       3 GLC5        0.0000 
     53 CA         36.3550   24.1510   11.6400 C.3       6 GLP5        0.0000 
@<TRIPOS>BOND
@<TRIPOS>SUBSTRUCTURE
     1 ALC1       28 GROUP        1 X    ALC  0     ROOT ALC X 1
     2 SEC2        1 GROUP        1 X    SEC  0     **** SEC X 2
     3 GLC5       16 GROUP        1 X    GLC  0     **** GLC X 6
     4 ALP1       30 GROUP        1 Y    ALP  0     ROOT ALP Y 8
     5 SEP2        3 GROUP        1 Y    SEP  0     **** SEP Y 9
     6 GLP5       18 GROUP        1 Y    GLP  0     **** GLP Y 13
     7 ALL1       29 GROUP        1 Z    ALL  0     ROOT ALL Z 15
     8 SEL2        2 GROUP        1 Z    SEL  0     **** SEL Z 16
     9 GLL5       17 GROUP        1 Z    GLL  0     **** GLL Z 20
@<TRIPOS>SET

