#    Name: 4m0k_AMP_3_ligand
#    Modification time : Tue Mar 25 11:44:59 2014

@<TRIPOS>MOLECULE
4m0k_AMP_3_ligand
   35    37     1     0     0
SMALL
NO_CHARGES


@<TRIPOS>ATOM
      1 P          33.4980   29.8060    8.7840 P.3       1 AMP201      0.0000 
      2 O1P        33.1690   31.2770    8.8970 O.co2     1 AMP201      0.0000 
      3 O2P        34.9730   29.4960    8.7960 O.co2     1 AMP201      0.0000 
      4 O3P        32.7270   29.1100    7.6900 O.co2     1 AMP201      0.0000 
      5 O5'        32.9810   29.1550   10.1730 O.3       1 AMP201      0.0000 
      6 C5'        31.8310   29.6200   10.8990 C.3       1 AMP201      0.0000 
      7 C4'        31.9160   29.1620   12.3680 C.3       1 AMP201      0.0000 
      8 O4'        31.4760   27.7880   12.4770 O.3       1 AMP201      0.0000 
      9 C3'        33.3190   29.2050   12.9500 C.3       1 AMP201      0.0000 
     10 O3'        33.2110   29.5670   14.3400 O.3       1 AMP201      0.0000 
     11 C2'        33.7740   27.7640   12.7970 C.3       1 AMP201      0.0000 
     12 O2'        34.6940   27.3770   13.8160 O.3       1 AMP201      0.0000 
     13 C1'        32.5190   26.9510   12.9320 C.3       1 AMP201      0.0000 
     14 N9         32.4770   25.7530   12.0700 N.pl3     1 AMP201      0.0000 
     15 C8         32.1800   25.7410   10.7570 C.2       1 AMP201      0.0000 
     16 N7         32.1710   24.4750   10.2760 N.2       1 AMP201      0.0000 
     17 C5         32.4600   23.6630   11.3010 C.ar      1 AMP201      0.0000 
     18 C6         32.5870   22.2160   11.4770 C.ar      1 AMP201      0.0000 
     19 N6         32.4290   21.3790   10.4180 N.pl3     1 AMP201      0.0000 
     20 N1         32.8850   21.7730   12.7230 N.ar      1 AMP201      0.0000 
     21 C2         33.0120   22.6000   13.7760 C.ar      1 AMP201      0.0000 
     22 N3         32.9010   23.9400   13.6880 N.ar      1 AMP201      0.0000 
     23 C4         32.6190   24.4960   12.4930 C.ar      1 AMP201      0.0000 
     24 H          30.9003   29.2222   10.4823 H         1 AMP201      0.0000 
     25 H          31.7647   30.7125   10.8969 H         1 AMP201      0.0000 
     26 H          31.2768   29.7953   12.9670 H         1 AMP201      0.0000 
     27 H          33.9101   29.8313   12.3799 H         1 AMP201      0.0000 
     28 H          34.1580   27.6300   11.8137 H         1 AMP201      0.0000 
     29 H          32.3671   26.6876   13.9520 H         1 AMP201      0.0000 
     30 H          31.9944   26.5391   10.2174 H         1 AMP201      0.0000 
     31 H          32.2520   21.8146    9.5354 H         1 AMP201      0.0000 
     32 H          32.5037   20.4014   10.6148 H         1 AMP201      0.0000 
     33 H          33.2115   22.1728   14.7335 H         1 AMP201      0.0000 
     34 H          33.4105   28.7258   14.8427 H         1 AMP201      0.0000 
     35 H          35.5303   27.8878   13.6170 H         1 AMP201      0.0000 
@<TRIPOS>BOND
     1    2    1 ar   
     2    3    1 ar   
     3    4    1 ar   
     4    5    1 1    
     5    6    5 1    
     6    7    6 1    
     7   24    6 1    
     8   25    6 1    
     9    8    7 1    
    10    9    7 1    
    11   26    7 1    
    12   13    8 1    
    13   10    9 1    
    14   11    9 1    
    15   27    9 1    
    16   34   10 1    
    17   12   11 1    
    18   13   11 1    
    19   28   11 1    
    20   35   12 1    
    21   14   13 1    
    22   29   13 1    
    23   15   14 1    
    24   23   14 1    
    25   16   15 2    
    26   30   15 1    
    27   17   16 1    
    28   18   17 ar   
    29   23   17 ar   
    30   19   18 1    
    31   20   18 ar   
    32   31   19 1    
    33   32   19 1    
    34   21   20 ar   
    35   22   21 ar   
    36   33   21 1    
    37   23   22 ar   
@<TRIPOS>SUBSTRUCTURE
     1 AMP201      1 GROUP   
@<TRIPOS>SET

