#    Name: 3lm5_QUE_1_INTS_M
#    Modification time : Mon Mar 24 21:48:29 2014

@<TRIPOS>MOLECULE
3lm5_QUE_1_INTS_M
   72     0     9     0     0
SMALL
NO_CHARGES


@<TRIPOS>ATOM
      1 CA         25.8275    0.9740    3.3880 C.3       3 GLC5        0.0000 
      2 CA         23.8630    1.6370    3.9210 C.3       9 GLL5        0.0000 
      3 CA         27.7920    0.3110    2.8550 C.3       6 GLP5        0.0000 
      4 CA         24.5555    1.7135    6.8870 C.3       3 GLC5        0.0000 
      5 CA         23.8370    0.9140    5.1060 C.3       9 GLL5        0.0000 
      6 CA         25.2740    2.5130    8.6680 C.3       6 GLP5        0.0000 
      7 CA         25.8195    0.0670    5.1265 C.3       3 GLC5        0.0000 
      8 CA         27.8020   -0.7800    5.1470 C.3       6 GLP5        0.0000 
      9 CA         22.8475   -1.1755    7.2240 C.3       3 GLC5        0.0000 
     10 CA         22.6940    0.1990    5.4840 C.3       9 GLL5        0.0000 
     11 CA         23.0010   -2.5500    8.9640 C.3       6 GLP5        0.0000 
     12 CA         23.6560    1.6535    0.0525 C.3       3 GLC5        0.0000 
     13 CA         23.9200    3.0730    1.5440 C.3       9 GLL5        0.0000 
     14 CA         23.3920    0.2340   -1.4390 C.3       6 GLP5        0.0000 
     15 CA         28.9295    2.8095    3.7695 C.3       3 GLC5        0.0000 
     16 CA         28.3260    4.7000    2.9680 C.3       9 GLL5        0.0000 
     17 CA         29.5330    0.9190    4.5710 C.3       6 GLP5        0.0000 
     18 CA         27.0275    6.0620    3.7900 C.3       3 GLC5        0.0000 
     19 CA         25.7290    7.4240    4.6120 C.3       6 GLP5        0.0000 
     20 CA         27.4335    3.8795   -0.8580 C.3       3 GLC5        0.0000 
     21 CA         27.9160    4.6410    0.6460 C.3       9 GLL5        0.0000 
     22 CA         26.9510    3.1180   -2.3620 C.3       6 GLP5        0.0000 
     23 O          29.4225    5.2455   -0.6490 O.2       1 ALC1        0.0000 
     24 O          28.2730    4.9060   -0.6240 O.2       7 ALL1        0.0000 
     25 O          30.5720    5.5850   -0.6740 O.2       4 ALP1        0.0000 
     26 N          29.4290    7.2130    1.3390 N.am      2 SEC2        0.0000 
     27 N          29.9370    5.6920    1.5040 N.am      8 SEL2        0.0000 
     28 N          28.9210    8.7340    1.1740 N.am      5 SEP2        0.0000 
     29 O          30.2545    5.6385    0.4150 O.2       1 ALC1        0.0000 
     30 O          29.9370    5.6920    1.5040 O.2       7 ALL1        0.0000 
     31 O          24.3935    4.8555    0.2070 O.2       1 ALC1        0.0000 
     32 O          23.9280    3.7460    0.3300 O.2       7 ALL1        0.0000 
     33 O          24.8590    5.9650    0.0840 O.2       4 ALP1        0.0000 
     34 N          22.0535   -0.6205    7.8790 N.am      2 SEC2        0.0000 
     35 N          22.6890   -0.5110    6.6430 N.am      8 SEL2        0.0000 
     36 N          21.4180   -0.7300    9.1150 N.am      5 SEP2        0.0000 
     37 O          23.7975   -0.6530    7.3580 O.2       1 ALC1        0.0000 
     38 O          22.6890   -0.5110    6.6430 O.2       7 ALL1        0.0000 
     39 O          24.9060   -0.7950    8.0730 O.2       4 ALP1        0.0000 
     40 CA         20.8513   -1.2200    3.4695 C.3       3 GLC5        0.0000 
     41 CA         21.5510    0.2200    4.7040 C.3       9 GLL5        0.0000 
     42 CA         20.1330   -3.0240    2.8230 C.3       6 GLP5        0.0000 
     43 CA         22.7548   -0.9490    4.1350 C.3       3 GLC5        0.0000 
     44 CA         23.9400   -2.4820    4.1540 C.3       6 GLP5        0.0000 
     45 CA         21.2022    2.1570    4.8085 C.3       3 GLC5        0.0000 
     46 CA         20.8350    3.7300    5.5010 C.3       6 GLP5        0.0000 
     47 CA         22.5480   -0.0730    1.8685 C.3       3 GLC5        0.0000 
     48 CA         21.5880    0.9480    3.5280 C.3       9 GLL5        0.0000 
     49 CA         22.9370   -1.4490    0.4120 C.3       6 GLP5        0.0000 
     50 CA         23.6182   -0.4173    3.8377 C.3       3 GLC5        0.0000 
     51 CA         22.7300    1.6580    3.1220 C.3       9 GLL5        0.0000 
     52 CA         22.0658    2.6887    4.5113 C.3       3 GLC5        0.0000 
     53 CA         24.1460    3.3188    4.9667 C.3       3 GLC5        0.0000 
     54 CA         24.4420    5.3620    5.4200 C.3       6 GLP5        0.0000 
     55 CA         23.6028   -0.9628    4.7245 C.3       3 GLC5        0.0000 
     56 CA         22.0502    2.1433    5.3980 C.3       3 GLC5        0.0000 
     57 CA         25.6658    2.4735    0.2843 C.3       3 GLC5        0.0000 
     58 CA         25.0490    3.0290    2.4070 C.3       9 GLL5        0.0000 
     59 CA         26.8470    1.8960   -1.4070 C.3       6 GLP5        0.0000 
     60 CA         24.5958    4.6845    3.1072 C.3       3 GLC5        0.0000 
     61 CA         24.7070    6.3180    4.2390 C.3       6 GLP5        0.0000 
     62 CA         26.6668    2.8678    0.0487 C.3       3 GLC5        0.0000 
     63 CA         26.2670    3.6870    2.1430 C.3       9 GLL5        0.0000 
     64 CA         25.6980    5.0922    3.4522 C.3       3 GLC5        0.0000 
     65 CA         27.8852    4.4160    4.9090 C.3       3 GLC5        0.0000 
     66 CA         28.0520    4.4590    6.7400 C.3       6 GLP5        0.0000 
     67 CA         30.3685    4.3658    3.0870 C.3       3 GLC5        0.0000 
     68 CA         32.2030    3.8730    3.8380 C.3       6 GLP5        0.0000 
     69 CA         27.1686    2.0790    2.3269 C.3       3 GLC5        0.0000 
     70 CA         26.7060    3.9920    0.8660 C.3       9 GLL5        0.0000 
     71 CA         27.2583    6.2437    1.3168 C.3       3 GLC5        0.0000 
     72 CA         26.6490    7.9380    0.9280 C.3       6 GLP5        0.0000 
@<TRIPOS>BOND
@<TRIPOS>SUBSTRUCTURE
     1 ALC1       23 GROUP        1 X    ALC  0     ROOT ALC X 1
     2 SEC2       26 GROUP        1 X    SEC  0     **** SEC X 2
     3 GLC5        1 GROUP        1 X    GLC  0     **** GLC X 6
     4 ALP1       25 GROUP        1 Y    ALP  0     ROOT ALP Y 8
     5 SEP2       28 GROUP        1 Y    SEP  0     **** SEP Y 9
     6 GLP5        3 GROUP        1 Y    GLP  0     **** GLP Y 13
     7 ALL1       24 GROUP        1 Z    ALL  0     ROOT ALL Z 15
     8 SEL2       27 GROUP        1 Z    SEL  0     **** SEL Z 16
     9 GLL5        2 GROUP        1 Z    GLL  0     **** GLL Z 20
@<TRIPOS>SET

