#    Name: 3lm5_QUE_1_ligand
#    Modification time : Mon Mar 24 21:48:29 2014

@<TRIPOS>MOLECULE
3lm5_QUE_1_ligand
   32    34     1     0     0
SMALL
NO_CHARGES


@<TRIPOS>ATOM
      1 C1         21.5510    0.2200    4.7040 C.ar      1 QUE1        0.0000 
      2 C2         21.5880    0.9480    3.5280 C.ar      1 QUE1        0.0000 
      3 C3         22.7300    1.6580    3.1220 C.ar      1 QUE1        0.0000 
      4 C4         23.8630    1.6370    3.9210 C.ar      1 QUE1        0.0000 
      5 C5         23.8370    0.9140    5.1060 C.ar      1 QUE1        0.0000 
      6 C6         22.6940    0.1990    5.4840 C.ar      1 QUE1        0.0000 
      7 C9         22.7580    2.3940    1.9280 C.2       1 QUE1        0.0000 
      8 C10        23.9200    3.0730    1.5440 C.2       1 QUE1        0.0000 
      9 C11        25.0490    3.0290    2.4070 C.2       1 QUE1        0.0000 
     10 C14        26.2670    3.6870    2.1430 C.ar      1 QUE1        0.0000 
     11 C15        27.1110    4.0460    3.1880 C.ar      1 QUE1        0.0000 
     12 C16        28.3260    4.7000    2.9680 C.ar      1 QUE1        0.0000 
     13 C17        28.7420    5.0170    1.7040 C.ar      1 QUE1        0.0000 
     14 C18        27.9160    4.6410    0.6460 C.ar      1 QUE1        0.0000 
     15 C19        26.7060    3.9920    0.8660 C.ar      1 QUE1        0.0000 
     16 O12        25.0030    2.3250    3.5800 O.3       1 QUE1        0.0000 
     17 O13        21.7660    2.3890    1.1890 O.2       1 QUE1        0.0000 
     18 O23        28.2730    4.9060   -0.6240 O.3       1 QUE1        0.0000 
     19 O24        29.9370    5.6920    1.5040 O.3       1 QUE1        0.0000 
     20 O27        23.9280    3.7460    0.3300 O.3       1 QUE1        0.0000 
     21 O29        22.6890   -0.5110    6.6430 O.3       1 QUE1        0.0000 
     22 O30        20.4750    0.9640    2.7990 O.3       1 QUE1        0.0000 
     23 H          20.7148   -0.2813    4.9850 H         1 QUE1        0.0000 
     24 H          24.6675    0.9001    5.7192 H         1 QUE1        0.0000 
     25 H          26.8316    3.8218    4.1660 H         1 QUE1        0.0000 
     26 H          28.9156    4.9448    3.7885 H         1 QUE1        0.0000 
     27 H          26.1176    3.7301    0.0483 H         1 QUE1        0.0000 
     28 H          29.2434    4.6698   -0.6746 H         1 QUE1        0.0000 
     29 H          30.3799    5.2146    0.7450 H         1 QUE1        0.0000 
     30 H          23.9067    4.7161    0.5719 H         1 QUE1        0.0000 
     31 H          23.6287   -0.4608    6.9812 H         1 QUE1        0.0000 
     32 H          20.7041    1.5038    1.9890 H         1 QUE1        0.0000 
@<TRIPOS>BOND
     1    2    1 ar   
     2    6    1 ar   
     3   23    1 1    
     4    3    2 ar   
     5   22    2 1    
     6    4    3 ar   
     7    7    3 1    
     8    5    4 ar   
     9   16    4 1    
    10    6    5 ar   
    11   24    5 1    
    12   21    6 1    
    13    8    7 1    
    14   17    7 2    
    15    9    8 2    
    16   20    8 1    
    17   10    9 1    
    18   16    9 1    
    19   11   10 ar   
    20   15   10 ar   
    21   12   11 ar   
    22   25   11 1    
    23   13   12 ar   
    24   26   12 1    
    25   14   13 ar   
    26   19   13 1    
    27   15   14 ar   
    28   18   14 1    
    29   27   15 1    
    30   28   18 1    
    31   29   19 1    
    32   30   20 1    
    33   31   21 1    
    34   32   22 1    
@<TRIPOS>SUBSTRUCTURE
     1 QUE1        1 GROUP   
@<TRIPOS>SET

