#    Name: 2x7b_COA_1_INTS_M
#    Modification time : Tue Mar 25 05:14:24 2014

@<TRIPOS>MOLECULE
2x7b_COA_1_INTS_M
  100     0    12     0     0
SMALL
NO_CHARGES


@<TRIPOS>ATOM
      1 CA         26.8440   46.6920    5.2250 C.3       4 GLC5        0.0000 
      2 CA         26.7130   47.7370    3.3600 C.3      12 GLL5        0.0000 
      3 CA         26.9750   45.6470    7.0900 C.3       8 GLP5        0.0000 
      4 CA         27.4805   45.6905    5.3140 C.3       4 GLC5        0.0000 
      5 CA         27.9860   45.7340    3.5380 C.3      12 GLL5        0.0000 
      6 CA         26.9275   41.5410    3.9580 C.3       4 GLC5        0.0000 
      7 CA         27.5050   43.2950    3.0410 C.3      12 GLL5        0.0000 
      8 CA         26.3500   39.7870    4.8750 C.3       8 GLP5        0.0000 
      9 N          25.3940   42.2130    0.0850 N.am      2 SEC2        0.0000 
     10 N          25.8460   42.9330    1.4040 N.am     10 SEL2        0.0000 
     11 N          24.9420   41.4930   -1.2340 N.am      6 SEP2        0.0000 
     12 NZ         28.8725   45.1365   -1.0145 N.4       3 LYC4        0.0000 
     13 NZ         29.1590   43.5840   -1.5170 N.4      11 LYL4        0.0000 
     14 NZ         29.5630   46.9120    0.3630 N.4       7 LYP4        0.0000 
     15 N          29.8270   44.7805   -0.4765 N.am      2 SEC2        0.0000 
     16 N          29.1590   43.5840   -1.5170 N.am     10 SEL2        0.0000 
     17 N          30.4950   45.9770    0.5640 N.am      6 SEP2        0.0000 
     18 N          28.8725   45.1365   -1.0145 N.am      2 SEC2        0.0000 
     19 N          28.5860   46.6890   -0.5120 N.am      6 SEP2        0.0000 
     20 NZ         25.8340   42.4325   -1.5865 N.4       3 LYC4        0.0000 
     21 NZ         26.7260   43.3720   -1.9390 N.4      11 LYL4        0.0000 
     22 NZ         24.9420   41.4930   -1.2340 N.4       7 LYP4        0.0000 
     23 NZ         26.5845   41.5220   -1.9575 N.4       3 LYC4        0.0000 
     24 NZ         28.2270   41.5510   -2.6810 N.4      11 LYL4        0.0000 
     25 CA         27.3020   40.5535    3.4425 C.3       4 GLC5        0.0000 
     26 CA         28.2540   41.3200    2.0100 C.3      12 GLL5        0.0000 
     27 CA         26.9125   40.2000    0.6720 C.3       4 GLC5        0.0000 
     28 CA         25.5710   39.0800   -0.6660 C.3       8 GLP5        0.0000 
     29 CA         29.4035   39.2690    3.3390 C.3       4 GLC5        0.0000 
     30 CA         29.5470   40.5040    1.9120 C.3      12 GLL5        0.0000 
     31 CA         29.2600   38.0340    4.7660 C.3       8 GLP5        0.0000 
     32 N          34.1145   41.0575    0.7095 N.am      2 SEC2        0.0000 
     33 N          33.1100   41.6950    1.5950 N.am     10 SEL2        0.0000 
     34 N          35.1190   40.4200   -0.1760 N.am      6 SEP2        0.0000 
     35 N          32.4080   38.0445    2.9065 N.am      2 SEC2        0.0000 
     36 N          32.2530   39.3640    2.2210 N.am     10 SEL2        0.0000 
     37 N          32.5630   36.7250    3.5920 N.am      6 SEP2        0.0000 
     38 N          31.4035   38.3785    1.8765 N.am      2 SEC2        0.0000 
     39 N          30.5540   37.3930    1.5320 N.am      6 SEP2        0.0000 
     40 N          34.7970   39.5840    4.3735 N.am      2 SEC2        0.0000 
     41 N          34.7290   41.0510    4.2920 N.am     10 SEL2        0.0000 
     42 N          34.8650   38.1170    4.4550 N.am      6 SEP2        0.0000 
     43 N          34.3670   44.0215    3.2510 N.am      2 SEC2        0.0000 
     44 N          33.7750   43.4160    4.3730 N.am     10 SEL2        0.0000 
     45 N          34.9590   44.6270    2.1290 N.am      6 SEP2        0.0000 
     46 CA         30.7580   40.5265    6.9425 C.3       4 GLC5        0.0000 
     47 CA         32.0190   42.2210    6.7560 C.3      12 GLL5        0.0000 
     48 CA         29.4970   38.8320    7.1290 C.3       8 GLP5        0.0000 
     49 CA         34.3245   40.7095   10.3630 C.3       4 GLC5        0.0000 
     50 CA         32.7900   41.1120    8.8730 C.3      12 GLL5        0.0000 
     51 CA         35.8590   40.3070   11.8530 C.3       8 GLP5        0.0000 
     52 CA         34.6730   40.6845    8.0950 C.3       4 GLC5        0.0000 
     53 CA         36.5560   40.2570    7.3170 C.3       8 GLP5        0.0000 
     54 CA         31.1435   39.9720    8.0010 C.3       4 GLC5        0.0000 
     55 CA         29.0495   42.3815    9.6480 C.3       4 GLC5        0.0000 
     56 CA         30.7700   42.6010    8.8740 C.3      12 GLL5        0.0000 
     57 CA         27.3290   42.1620   10.4220 C.3       8 GLP5        0.0000 
     58 CA         30.1335   40.7165    8.0015 C.3       4 GLC5        0.0000 
     59 CA         34.1745   45.0035    7.8570 C.3       4 GLC5        0.0000 
     60 CA         33.0010   43.6290    8.5190 C.3      12 GLL5        0.0000 
     61 CA         35.3480   46.3780    7.1950 C.3       8 GLP5        0.0000 
     62 N          35.8575   42.3615   10.0840 N.am      2 SEC2        0.0000 
     63 N          34.8100   43.2450   10.1460 N.am     10 SEL2        0.0000 
     64 N          36.9050   41.4780   10.0220 N.am      6 SEP2        0.0000 
     65 CA         32.7585   43.1225   14.7705 C.3       4 GLC5        0.0000 
     66 CA         33.1920   43.3350   13.0020 C.3      12 GLL5        0.0000 
     67 CA         32.3250   42.9100   16.5390 C.3       8 GLP5        0.0000 
     68 CA         34.8030   42.1145   13.0755 C.3       4 GLC5        0.0000 
     69 CA         36.4140   40.8940   13.1490 C.3       8 GLP5        0.0000 
     70 N          29.3740   43.9180   13.1145 N.am      2 SEC2        0.0000 
     71 N          30.8230   43.6870   13.0600 N.am     10 SEL2        0.0000 
     72 N          27.9250   44.1490   13.1690 N.am      6 SEP2        0.0000 
     73 O          32.4750   40.5965   12.9065 O.2       1 ALC1        0.0000 
     74 O          31.5300   41.5460   12.9200 O.2       9 ALL1        0.0000 
     75 O          33.4200   39.6470   12.8930 O.2       5 ALP1        0.0000 
     76 CA         30.8840   39.2490   12.3390 C.3       4 GLC5        0.0000 
     77 CA         30.2030   40.9770   13.1040 C.3      12 GLL5        0.0000 
     78 CA         31.5650   37.5210   11.5740 C.3       8 GLP5        0.0000 
     79 CA         28.7660   41.5695   11.7630 C.3       4 GLC5        0.0000 
     80 CA         26.4860   40.8505   14.0995 C.3       4 GLC5        0.0000 
     81 CA         28.2010   39.9170   14.7350 C.3      12 GLL5        0.0000 
     82 CA         24.7710   41.7840   13.4640 C.3       8 GLP5        0.0000 
     83 CA         27.7015   39.0080   12.8295 C.3       4 GLC5        0.0000 
     84 CA         27.2020   38.0990   10.9240 C.3       8 GLP5        0.0000 
     85 CA         28.6845   46.6665    5.7875 C.3       4 GLC5        0.0000 
     86 CA         29.0560   46.4430    4.0500 C.3      12 GLL5        0.0000 
     87 CA         28.3670   46.1980    7.4470 C.3       8 GLP5        0.0000 
     88 CA         30.1692   46.4994    2.7655 C.3       4 GLC5        0.0000 
     89 CA         28.9480   47.8270    4.2060 C.3      12 GLL5        0.0000 
     90 CA         31.6040   46.0410    1.5310 C.3       8 GLP5        0.0000 
     91 CA         25.6552   43.4672    3.2820 C.3       4 GLC5        0.0000 
     92 CA         23.9710   43.5890    4.2620 C.3       8 GLP5        0.0000 
     93 CA         26.1593   41.5927    0.4362 C.3       4 GLC5        0.0000 
     94 CA         27.1740   43.3960    1.5630 C.3      12 GLL5        0.0000 
     95 CA         24.6570   40.2870   -0.3870 C.3       8 GLP5        0.0000 
     96 CA         32.7700   40.1789    7.1452 C.3       4 GLC5        0.0000 
     97 CA         33.1030   38.6510    6.0960 C.3       8 GLP5        0.0000 
     98 CA         35.0885   44.3760   13.4880 C.3       4 GLC5        0.0000 
     99 CA         36.9120   44.7670   14.3800 C.3       8 GLP5        0.0000 
    100 CA         31.1408   41.9275   15.1825 C.3       4 GLC5        0.0000 
@<TRIPOS>BOND
@<TRIPOS>SUBSTRUCTURE
     1 ALC1       73 GROUP        1 X    ALC  0     ROOT ALC X 1
     2 SEC2        9 GROUP        1 X    SEC  0     **** SEC X 2
     3 LYC4       12 GROUP        1 X    LYC  0     **** LYC X 4
     4 GLC5        1 GROUP        1 X    GLC  0     **** GLC X 6
     5 ALP1       75 GROUP        1 Y    ALP  0     ROOT ALP Y 8
     6 SEP2       11 GROUP        1 Y    SEP  0     **** SEP Y 9
     7 LYP4       14 GROUP        1 Y    LYP  0     **** LYP Y 11
     8 GLP5        3 GROUP        1 Y    GLP  0     **** GLP Y 13
     9 ALL1       74 GROUP        1 Z    ALL  0     ROOT ALL Z 15
    10 SEL2       10 GROUP        1 Z    SEL  0     **** SEL Z 16
    11 LYL4       13 GROUP        1 Z    LYL  0     **** LYL Z 18
    12 GLL5        2 GROUP        1 Z    GLL  0     **** GLL Z 20
@<TRIPOS>SET

