#    Name: 2x7b_COA_1_ligand
#    Modification time : Tue Mar 25 05:14:24 2014

@<TRIPOS>MOLECULE
2x7b_COA_1_ligand
   79    81     1     0     0
SMALL
NO_CHARGES


@<TRIPOS>ATOM
      1 N1A        27.7690   48.4630    3.8640 N.ar      1 COA201      0.0000 
      2 C2A        26.7130   47.7370    3.3600 C.ar      1 COA201      0.0000 
      3 N3A        26.8380   46.3710    3.1990 N.ar      1 COA201      0.0000 
      4 C4A        27.9860   45.7340    3.5380 C.ar      1 COA201      0.0000 
      5 C5A        29.0560   46.4430    4.0500 C.ar      1 COA201      0.0000 
      6 C6A        28.9480   47.8270    4.2060 C.ar      1 COA201      0.0000 
      7 N6A        30.0160   48.5600    4.5140 N.pl3     1 COA201      0.0000 
      8 N7A        30.0620   45.5570    4.2930 N.2       1 COA201      0.0000 
      9 C8A        29.6460   44.3160    3.9400 C.2       1 COA201      0.0000 
     10 N9A        28.3600   44.4100    3.4740 N.pl3     1 COA201      0.0000 
     11 C1B        27.5050   43.2950    3.0410 C.3       1 COA201      0.0000 
     12 C2B        27.1740   43.3960    1.5630 C.3       1 COA201      0.0000 
     13 O2B        25.8460   42.9330    1.4040 O.3       1 COA201      0.0000 
     14 C3B        28.1490   42.4010    0.9560 C.3       1 COA201      0.0000 
     15 O3B        27.7080   41.8520   -0.2490 O.3       1 COA201      0.0000 
     16 P3B        27.9990   42.6210   -1.6370 P.3       1 COA201      0.0000 
     17 O7A        29.1590   43.5840   -1.5170 O.co2     1 COA201      0.0000 
     18 O8A        26.7260   43.3720   -1.9390 O.co2     1 COA201      0.0000 
     19 O9A        28.2270   41.5510   -2.6810 O.co2     1 COA201      0.0000 
     20 C4B        28.2540   41.3200    2.0100 C.3       1 COA201      0.0000 
     21 O4B        28.1920   42.0670    3.2040 O.3       1 COA201      0.0000 
     22 C5B        29.5470   40.5040    1.9120 C.3       1 COA201      0.0000 
     23 O5B        30.6390   41.3710    2.0970 O.3       1 COA201      0.0000 
     24 P1A        32.1260   40.8500    2.3810 P.3       1 COA201      0.0000 
     25 O1A        33.1100   41.6950    1.5950 O.co2     1 COA201      0.0000 
     26 O2A        32.2530   39.3640    2.2210 O.co2     1 COA201      0.0000 
     27 O3A        32.2840   41.3170    3.9260 O.3       1 COA201      0.0000 
     28 P2A        33.5650   41.9440    4.6320 P.3       1 COA201      0.0000 
     29 O4A        34.7290   41.0510    4.2920 O.co2     1 COA201      0.0000 
     30 O5A        33.7750   43.4160    4.3730 O.co2     1 COA201      0.0000 
     31 O6A        33.2630   41.8380    6.2140 O.3       1 COA201      0.0000 
     32 CBP        32.1490   42.3820    8.2760 C.3       1 COA201      0.0000 
     33 CCP        32.0190   42.2210    6.7560 C.3       1 COA201      0.0000 
     34 CDP        32.7900   41.1120    8.8730 C.3       1 COA201      0.0000 
     35 CEP        30.7700   42.6010    8.8740 C.3       1 COA201      0.0000 
     36 CAP        33.0010   43.6290    8.5190 C.3       1 COA201      0.0000 
     37 OAP        32.4370   44.8290    8.0140 O.3       1 COA201      0.0000 
     38 C9P        33.5560   43.8060    9.8980 C.2       1 COA201      0.0000 
     39 O9P        34.8100   43.2450   10.1460 O.2       1 COA201      0.0000 
     40 N8P        32.8740   44.5140   10.8110 N.am      1 COA201      0.0000 
     41 C7P        33.3380   44.6350   12.1900 C.3       1 COA201      0.0000 
     42 C6P        33.1920   43.3350   13.0020 C.3       1 COA201      0.0000 
     43 C5P        31.7520   42.8650   12.9960 C.2       1 COA201      0.0000 
     44 O5P        30.8230   43.6870   13.0600 O.2       1 COA201      0.0000 
     45 N4P        31.5300   41.5460   12.9200 N.am      1 COA201      0.0000 
     46 C3P        30.2030   40.9770   13.1040 C.3       1 COA201      0.0000 
     47 C2P        29.7100   40.9130   14.5480 C.3       1 COA201      0.0000 
     48 S1P        28.2010   39.9170   14.7350 S.3       1 COA201      0.0000 
     49 H          25.8340   48.2083    3.1040 H         1 COA201      0.0000 
     50 H          29.8890   49.5517    4.4962 H         1 COA201      0.0000 
     51 H          30.8489   48.0527    4.7354 H         1 COA201      0.0000 
     52 H          30.1565   43.5061    4.0021 H         1 COA201      0.0000 
     53 H          26.5818   43.2927    3.5880 H         1 COA201      0.0000 
     54 H          27.3669   44.3433    1.2262 H         1 COA201      0.0000 
     55 H          29.1089   42.8770    0.8932 H         1 COA201      0.0000 
     56 H          27.4045   40.6777    1.9137 H         1 COA201      0.0000 
     57 H          29.5565   40.0225    0.9300 H         1 COA201      0.0000 
     58 H          29.4993   39.7221    2.6754 H         1 COA201      0.0000 
     59 H          31.2365   41.4743    6.5722 H         1 COA201      0.0000 
     60 H          31.6667   43.1795    6.3548 H         1 COA201      0.0000 
     61 H          33.9565   43.4380    7.8574 H         1 COA201      0.0000 
     62 H          31.9895   45.0064   10.5817 H         1 COA201      0.0000 
     63 H          32.7792   45.4273   12.7237 H         1 COA201      0.0000 
     64 H          34.4041   44.9306   12.2205 H         1 COA201      0.0000 
     65 H          33.5142   43.5219   14.0237 H         1 COA201      0.0000 
     66 H          33.8301   42.5728   12.5610 H         1 COA201      0.0000 
     67 H          32.2954   40.8679   12.7261 H         1 COA201      0.0000 
     68 H          30.1630   39.9407   12.6879 H         1 COA201      0.0000 
     69 H          29.4478   41.5528   12.5152 H         1 COA201      0.0000 
     70 H          29.4044   41.8643   14.9399 H         1 COA201      0.0000 
     71 H          30.3923   40.4189   15.2131 H         1 COA201      0.0000 
     72 H          33.7008   40.9433    8.4961 H         1 COA201      0.0000 
     73 H          32.8913   41.1786    9.8656 H         1 COA201      0.0000 
     74 H          32.2409   40.2969    8.6884 H         1 COA201      0.0000 
     75 H          30.8089   42.7098    9.8673 H         1 COA201      0.0000 
     76 H          30.3317   43.4212    8.5063 H         1 COA201      0.0000 
     77 H          30.1578   41.8327    8.6871 H         1 COA201      0.0000 
     78 H          25.2750   43.7491    1.4938 H         1 COA201      0.0000 
     79 H          32.6311   44.8133    7.0331 H         1 COA201      0.0000 
@<TRIPOS>BOND
     1    2    1 ar   
     2    6    1 ar   
     3    3    2 ar   
     4   49    2 1    
     5    4    3 ar   
     6    5    4 ar   
     7   10    4 1    
     8    6    5 ar   
     9    8    5 1    
    10    7    6 1    
    11   50    7 1    
    12   51    7 1    
    13    9    8 2    
    14   10    9 1    
    15   52    9 1    
    16   11   10 1    
    17   12   11 1    
    18   21   11 1    
    19   53   11 1    
    20   13   12 1    
    21   14   12 1    
    22   54   12 1    
    23   78   13 1    
    24   15   14 1    
    25   20   14 1    
    26   55   14 1    
    27   16   15 1    
    28   17   16 ar   
    29   18   16 ar   
    30   19   16 ar   
    31   21   20 1    
    32   22   20 1    
    33   56   20 1    
    34   23   22 1    
    35   57   22 1    
    36   58   22 1    
    37   24   23 1    
    38   25   24 ar   
    39   26   24 ar   
    40   27   24 1    
    41   28   27 1    
    42   29   28 ar   
    43   30   28 ar   
    44   31   28 1    
    45   33   31 1    
    46   33   32 1    
    47   34   32 1    
    48   35   32 1    
    49   36   32 1    
    50   59   33 1    
    51   60   33 1    
    52   72   34 1    
    53   73   34 1    
    54   74   34 1    
    55   75   35 1    
    56   76   35 1    
    57   77   35 1    
    58   37   36 1    
    59   38   36 1    
    60   61   36 1    
    61   79   37 1    
    62   39   38 2    
    63   40   38 am   
    64   41   40 1    
    65   62   40 1    
    66   42   41 1    
    67   63   41 1    
    68   64   41 1    
    69   43   42 1    
    70   65   42 1    
    71   66   42 1    
    72   44   43 2    
    73   45   43 am   
    74   46   45 1    
    75   67   45 1    
    76   47   46 1    
    77   68   46 1    
    78   69   46 1    
    79   48   47 1    
    80   70   47 1    
    81   71   47 1    
@<TRIPOS>SUBSTRUCTURE
     1 COA201      1 GROUP   
@<TRIPOS>SET

