#    Name: 2NM2_1_CAVITY_N1_ALL.mol2
#    Modification time : Tue Mar 11 00:09:48 2014

@<TRIPOS>MOLECULE
2NM2_1_CAVITY_N1_ALL.mol2
   77     0     7     0     0
SMALL
NO_CHARGES


@<TRIPOS>ATOM
      1 CA         44.4746   48.6333   30.8794 C.3       6 GLY6        0.0000 
      2 O          43.7411   49.5851   29.1313 O.2       2 ALA2        0.0000 
      3 CA         43.4735   48.2797   29.8199 C.3       6 GLY6        0.0000 
      4 CA         43.2058   46.9742   30.5085 C.3       6 GLY6        0.0000 
      5 O          43.0076   50.5370   27.3832 O.2       2 ALA2        0.0000 
      6 CA         42.7400   49.2315   28.0718 C.3       6 GLY6        0.0000 
      7 CA         42.4723   47.9261   28.7603 C.3       6 GLY6        0.0000 
      8 CA         42.2047   46.6206   29.4489 C.3       6 GLY6        0.0000 
      9 CA         41.7388   48.8779   27.0122 C.3       6 GLY6        0.0000 
     10 N          41.4712   47.5725   27.7008 N.2       2 ALA2        0.0000 
     11 CA         41.5407   52.4407   23.8869 C.3       6 GLY6        0.0000 
     12 O          45.8268   49.2901   29.3826 O.2       2 ALA2        0.0000 
     13 O          45.5591   47.9846   30.0712 O.2       2 ALA2        0.0000 
     14 O          44.8256   48.9365   28.3231 O.2       2 ALA2        0.0000 
     15 DU         44.5579   47.6310   29.0117 H         7 CUB7        0.0000 
     16 NZ         44.2903   46.3256   29.7003 N.2       4 LYS4        0.0000 
     17 N          44.0921   49.8883   26.5750 N.2       2 ALA2        0.0000 
     18 DU         43.8244   48.5829   27.2635 H         7 CUB7        0.0000 
     19 DU         43.5568   47.2774   27.9521 H         7 CUB7        0.0000 
     20 O          43.2891   45.9720   28.6407 O.2       2 ALA2        0.0000 
     21 N          43.6263   52.1456   24.1383 N.2       2 ALA2        0.0000 
     22 CA         43.3586   50.8402   24.8268 C.3       6 GLY6        0.0000 
     23 CA         43.0909   49.5347   25.5154 C.3       6 GLY6        0.0000 
     24 CA         42.8233   48.2293   26.2040 C.3       6 GLY6        0.0000 
     25 N          42.5556   46.9238   26.8926 N.2       2 ALA2        0.0000 
     26 NZ         42.6251   51.7920   23.0787 N.2       4 LYS4        0.0000 
     27 NZ         42.3574   50.4866   23.7673 N.2       4 LYS4        0.0000 
     28 O          42.0898   49.1811   24.4559 O.2       2 ALA2        0.0000 
     29 CZ         46.6435   47.3360   29.2630 C.ar      5 PHE5        0.0000 
     30 CZ         46.3759   46.0305   29.9516 C.ar      5 PHE5        0.0000 
     31 N          46.9807   53.5096   24.7606 N.2       2 ALA2        0.0000 
     32 N          46.1777   49.5933   26.8263 N.2       2 ALA2        0.0000 
     33 CZ         45.9100   48.2878   27.5149 C.ar      5 PHE5        0.0000 
     34 CZ         45.6424   46.9824   28.2035 C.ar      5 PHE5        0.0000 
     35 CZ         45.3747   45.6769   28.8920 C.ar      5 PHE5        0.0000 
     36 N          45.9795   53.1560   23.7010 N.2       2 ALA2        0.0000 
     37 N          45.7119   51.8506   24.3896 N.2       2 ALA2        0.0000 
     38 N          45.4442   50.5451   25.0782 N.2       2 ALA2        0.0000 
     39 CZ         45.1766   49.2397   25.7668 C.ar      5 PHE5        0.0000 
     40 CZ         44.9089   47.9342   26.4553 C.ar      5 PHE5        0.0000 
     41 CZ         44.6412   46.6288   27.1439 C.ar      5 PHE5        0.0000 
     42 CA         44.3736   45.3233   27.8325 C.3       6 GLY6        0.0000 
     43 DU         45.2461   54.1079   21.9529 H         7 CUB7        0.0000 
     44 DU         44.9784   52.8024   22.6415 H         7 CUB7        0.0000 
     45 DU         44.7107   51.4970   23.3300 H         7 CUB7        0.0000 
     46 NZ         44.4431   50.1915   24.0186 N.2       4 LYS4        0.0000 
     47 DU         44.1754   48.8861   24.7072 H         7 CUB7        0.0000 
     48 OG         43.9077   47.5806   25.3958 O.2       1 SER1        0.0000 
     49 OG         43.6401   46.2752   26.0844 O.2       1 SER1        0.0000 
     50 CA         43.9772   52.4488   21.5819 C.3       6 GLY6        0.0000 
     51 NZ         43.7096   51.1434   22.2705 N.2       4 LYS4        0.0000 
     52 NZ         43.1742   48.5325   23.6477 N.2       4 LYS4        0.0000 
     53 OD1        42.9066   47.2270   24.3362 O.3       3 ASP3        0.0000 
     54 CA         40.8387   51.8343   28.9996 C.3       6 GLY6        0.0000 
     55 CA         40.5711   50.5288   29.6882 C.3       6 GLY6        0.0000 
     56 CA         39.5699   50.1752   28.6286 C.3       6 GLY6        0.0000 
     57 CA         42.6567   50.2338   29.9395 C.3       6 GLY6        0.0000 
     58 CA         42.1909   52.4911   27.5028 C.3       6 GLY6        0.0000 
     59 CA         41.9232   51.1856   28.1914 C.3       6 GLY6        0.0000 
     60 CA         41.6555   49.8802   28.8800 C.3       6 GLY6        0.0000 
     61 CA         40.6544   49.5266   27.8204 C.3       6 GLY6        0.0000 
     62 O          40.3867   48.2211   28.5090 O.2       2 ALA2        0.0000 
     63 CA         48.0652   52.8610   23.9524 C.3       6 GLY6        0.0000 
     64 CA         47.7975   51.5555   24.6409 C.3       6 GLY6        0.0000 
     65 N          47.0640   52.5074   22.8928 N.2       2 ALA2        0.0000 
     66 CA         46.7963   51.2019   23.5814 C.3       6 GLY6        0.0000 
     67 CZ         46.5287   49.8965   24.2700 C.ar      5 PHE5        0.0000 
     68 N          46.3305   53.4592   21.1447 N.2       2 ALA2        0.0000 
     69 N          46.0628   52.1538   21.8333 N.2       2 ALA2        0.0000 
     70 N          45.7952   50.8483   22.5218 N.2       2 ALA2        0.0000 
     71 DU         45.5275   49.5429   23.2104 H         7 CUB7        0.0000 
     72 OG         45.2598   48.2374   23.8990 O.2       1 SER1        0.0000 
     73 CA         45.0617   51.8002   20.7737 C.3       6 GLY6        0.0000 
     74 CA         44.7940   50.4947   21.4623 C.3       6 GLY6        0.0000 
     75 NZ         44.5264   49.1893   22.1509 N.2       4 LYS4        0.0000 
     76 OD1        44.2587   47.8838   22.8394 O.3       3 ASP3        0.0000 
     77 N          46.8796   50.1997   21.7136 N.2       2 ALA2        0.0000 
@<TRIPOS>BOND
@<TRIPOS>SUBSTRUCTURE
     1 SER1       48 GROUP   
     2 ALA2        2 GROUP   
     3 ASP3       53 GROUP   
     4 LYS4       16 GROUP   
     5 PHE5       29 GROUP   
     6 GLY6        1 GROUP   
     7 CUB7       15 GROUP   
@<TRIPOS>SET

