#    Name: 2nm2_NEU_1_INTS_M
#    Modification time : Tue Mar 25 21:21:13 2014

@<TRIPOS>MOLECULE
2nm2_NEU_1_INTS_M
   52     0     9     0     0
SMALL
NO_CHARGES


@<TRIPOS>ATOM
      1 O          43.9505   45.3210   30.5950 O.2       1 ALC1        0.0000 
      2 O          44.9100   46.1750   29.8010 O.2       7 ALL1        0.0000 
      3 O          42.9910   44.4670   31.3890 O.2       4 ALP1        0.0000 
      4 O          44.7025   45.7790   31.2505 O.2       1 ALC1        0.0000 
      5 O          44.4950   45.3830   32.7000 O.2       4 ALP1        0.0000 
      6 CA         46.2550   51.1130   27.0140 C.3       3 GLC5        0.0000 
      7 CA         45.4730   49.4580   25.9420 C.3       9 GLL5        0.0000 
      8 CA         47.0370   52.7680   28.0860 C.3       6 GLP5        0.0000 
      9 CA         46.1910   50.2625   28.6855 C.3       3 GLC5        0.0000 
     10 CA         45.7150   48.2350   28.0770 C.3       9 GLL5        0.0000 
     11 CA         46.6670   52.2900   29.2940 C.3       6 GLP5        0.0000 
     12 N          47.6700   48.6310   29.5050 N.am      2 SEC2        0.0000 
     13 N          46.3650   48.1110   29.2640 N.am      8 SEL2        0.0000 
     14 N          48.9750   49.1510   29.7460 N.am      5 SEP2        0.0000 
     15 O          45.5540   46.1710   31.9845 O.2       1 ALC1        0.0000 
     16 O          46.6130   46.9590   31.2690 O.2       7 ALL1        0.0000 
     17 O          47.3420   47.7740   31.9870 O.2       1 ALC1        0.0000 
     18 O          48.0710   48.5890   32.7050 O.2       4 ALP1        0.0000 
     19 CA         41.9390   49.8060   24.8605 C.3       3 GLC5        0.0000 
     20 CA         43.7760   48.9200   24.0920 C.3       9 GLL5        0.0000 
     21 CA         40.1020   50.6920   25.6290 C.3       6 GLP5        0.0000 
     22 N          40.9520   48.5225   24.1740 N.am      2 SEC2        0.0000 
     23 N          42.4180   48.3230   24.0030 N.am      8 SEL2        0.0000 
     24 N          39.4860   48.7220   24.3450 N.am      5 SEP2        0.0000 
     25 O          42.2430   47.6845   22.4130 O.2       1 ALC1        0.0000 
     26 O          42.4180   48.3230   24.0030 O.2       7 ALL1        0.0000 
     27 O          42.0680   47.0460   20.8230 O.2       4 ALP1        0.0000 
     28 O          42.0735   48.7275   22.7280 O.2       1 ALC1        0.0000 
     29 O          41.7290   49.1320   21.4530 O.2       4 ALP1        0.0000 
     30 CA         44.2865   46.3035   22.3910 C.3       3 GLC5        0.0000 
     31 CA         44.5330   48.3790   22.9660 C.3       9 GLL5        0.0000 
     32 CA         44.0400   44.2280   21.8160 C.3       6 GLP5        0.0000 
     33 N          44.2775   46.3415   22.5670 N.am      2 SEC2        0.0000 
     34 N          45.2290   47.1510   23.1270 N.am      8 SEL2        0.0000 
     35 N          43.3260   45.5320   22.0070 N.am      5 SEP2        0.0000 
     36 N          45.8045   46.3360   23.9505 N.am      2 SEC2        0.0000 
     37 N          46.3800   45.5210   24.7740 N.am      5 SEP2        0.0000 
     38 CA         47.5455   49.5640   21.8005 C.3       3 GLC5        0.0000 
     39 CA         45.6920   49.1830   22.3250 C.3       9 GLL5        0.0000 
     40 CA         49.3990   49.9450   21.2760 C.3       6 GLP5        0.0000 
     41 O          46.3020   50.8885   20.6505 O.2       1 ALC1        0.0000 
     42 O          45.1320   50.3120   21.6670 O.2       7 ALL1        0.0000 
     43 O          47.4720   51.4650   19.6340 O.2       4 ALP1        0.0000 
     44 N          42.3410   44.5940   28.6425 N.am      2 SEC2        0.0000 
     45 N          43.2830   45.4480   28.3230 N.am      8 SEL2        0.0000 
     46 N          41.3990   43.7400   28.9620 N.am      5 SEP2        0.0000 
     47 CA         46.1707   47.5900   21.7643 C.3       3 GLC5        0.0000 
     48 CA         47.2290   46.3990   20.8830 C.3       6 GLP5        0.0000 
     49 CA         45.0143   48.7370   20.8283 C.3       3 GLC5        0.0000 
     50 CA         44.9160   48.6930   19.0110 C.3       6 GLP5        0.0000 
     51 CA         46.5588   47.9385   24.0807 C.3       3 GLC5        0.0000 
     52 CA         48.0050   47.0960   25.5160 C.3       6 GLP5        0.0000 
@<TRIPOS>BOND
@<TRIPOS>SUBSTRUCTURE
     1 ALC1        1 GROUP        1 X    ALC  0     ROOT ALC X 1
     2 SEC2       12 GROUP        1 X    SEC  0     **** SEC X 2
     3 GLC5        6 GROUP        1 X    GLC  0     **** GLC X 6
     4 ALP1        3 GROUP        1 Y    ALP  0     ROOT ALP Y 8
     5 SEP2       14 GROUP        1 Y    SEP  0     **** SEP Y 9
     6 GLP5        8 GROUP        1 Y    GLP  0     **** GLP Y 13
     7 ALL1        2 GROUP        1 Z    ALL  0     ROOT ALL Z 15
     8 SEL2       13 GROUP        1 Z    SEL  0     **** SEL Z 16
     9 GLL5        7 GROUP        1 Z    GLL  0     **** GLL Z 20
@<TRIPOS>SET

