#    Name: 2nm2_NEU_1_ligand
#    Modification time : Tue Mar 25 21:21:14 2014

@<TRIPOS>MOLECULE
2nm2_NEU_1_ligand
   29    30     1     0     0
SMALL
NO_CHARGES


@<TRIPOS>ATOM
      1 N2         44.9100   46.1750   29.8010 N.am      1 NEU122      0.0000 
      2 C1         44.2380   46.3030   28.5730 C.2       1 NEU122      0.0000 
      3 C10        44.5580   47.3350   27.6140 C.ar      1 NEU122      0.0000 
      4 N9         43.9110   47.5050   26.3470 N.ar      1 NEU122      0.0000 
      5 C8         44.4010   48.6390   25.4690 C.ar      1 NEU122      0.0000 
      6 C7         45.4730   49.4580   25.9420 C.ar      1 NEU122      0.0000 
      7 N6         46.0990   49.2580   27.2060 N.ar      1 NEU122      0.0000 
      8 C5         45.7150   48.2350   28.0770 C.ar      1 NEU122      0.0000 
      9 N4         46.3650   48.1110   29.2640 N.2       1 NEU122      0.0000 
     10 C3         46.0140   47.1220   30.1310 C.2       1 NEU122      0.0000 
     11 N13        46.6130   46.9590   31.2690 N.pl3     1 NEU122      0.0000 
     12 C16        43.7760   48.9200   24.0920 C.3       1 NEU122      0.0000 
     13 O21        42.4180   48.3230   24.0030 O.3       1 NEU122      0.0000 
     14 C26        44.5330   48.3790   22.9660 C.3       1 NEU122      0.0000 
     15 O22        45.2290   47.1510   23.1270 O.3       1 NEU122      0.0000 
     16 C28        45.6920   49.1830   22.3250 C.3       1 NEU122      0.0000 
     17 O24        45.1320   50.3120   21.6670 O.3       1 NEU122      0.0000 
     18 O11        43.2830   45.4480   28.3230 O.2       1 NEU122      0.0000 
     19 H          44.6781   45.4666   30.4745 H         1 NEU122      0.0000 
     20 H          45.8080   50.2307   25.3373 H         1 NEU122      0.0000 
     21 H          47.3782   47.5751   31.4558 H         1 NEU122      0.0000 
     22 H          46.2544   46.2322   31.8549 H         1 NEU122      0.0000 
     23 H          43.6728   49.9991   23.9770 H         1 NEU122      0.0000 
     24 H          43.8379   48.2075   22.0731 H         1 NEU122      0.0000 
     25 H          46.2077   48.5152   21.6384 H         1 NEU122      0.0000 
     26 H          46.3723   49.4639   23.1260 H         1 NEU122      0.0000 
     27 H          42.0720   48.5998   23.1065 H         1 NEU122      0.0000 
     28 H          45.8552   47.1046   22.3487 H         1 NEU122      0.0000 
     29 H          45.8374   50.6139   21.0258 H         1 NEU122      0.0000 
@<TRIPOS>BOND
     1    2    1 am   
     2   10    1 1    
     3   19    1 1    
     4    3    2 1    
     5   18    2 2    
     6    4    3 ar   
     7    8    3 ar   
     8    5    4 ar   
     9    6    5 ar   
    10   12    5 1    
    11    7    6 ar   
    12   20    6 1    
    13    8    7 ar   
    14    9    8 1    
    15   10    9 2    
    16   11   10 1    
    17   21   11 1    
    18   22   11 1    
    19   13   12 1    
    20   14   12 1    
    21   23   12 1    
    22   27   13 1    
    23   15   14 1    
    24   16   14 1    
    25   24   14 1    
    26   28   15 1    
    27   17   16 1    
    28   25   16 1    
    29   26   16 1    
    30   29   17 1    
@<TRIPOS>SUBSTRUCTURE
     1 NEU122      1 GROUP   
@<TRIPOS>SET

