#    Name: 2vsi_CDF_2_INTS_M
#    Modification time : Tue Mar 25 02:50:58 2014

@<TRIPOS>MOLECULE
2vsi_CDF_2_INTS_M
   42     0    12     0     0
SMALL
NO_CHARGES


@<TRIPOS>ATOM
      1 NZ        -13.1360  -15.7640   29.1105 N.4       3 LYC4        0.0000 
      2 NZ        -12.9490  -16.8180   30.4350 N.4      11 LYL4        0.0000 
      3 NZ        -13.3230  -14.7100   27.7860 N.4       7 LYP4        0.0000 
      4 N         -13.1360  -15.7640   29.1105 N.am      2 SEC2        0.0000 
      5 N         -12.9490  -16.8180   30.4350 N.am     10 SEL2        0.0000 
      6 N         -13.3230  -14.7100   27.7860 N.am      6 SEP2        0.0000 
      7 NZ        -11.8690  -13.9410   28.8985 N.4       3 LYC4        0.0000 
      8 NZ        -10.4150  -13.1720   30.0110 N.4      11 LYL4        0.0000 
      9 CA        -12.0350  -11.4275   30.8670 C.3       4 GLC5        0.0000 
     10 CA        -12.9650  -12.8700   31.6120 C.3      12 GLL5        0.0000 
     11 CA        -11.1050   -9.9850   30.1220 C.3       8 GLP5        0.0000 
     12 CA        -12.9475  -13.0750   29.7600 C.3       4 GLC5        0.0000 
     13 CA        -12.9300  -13.2800   27.9080 C.3       8 GLP5        0.0000 
     14 CA        -14.9005  -12.3645   34.4685 C.3       4 GLC5        0.0000 
     15 CA        -13.1770  -12.7080   33.1170 C.3      12 GLL5        0.0000 
     16 CA        -16.6240  -12.0210   35.8200 C.3       8 GLP5        0.0000 
     17 CA        -11.5100  -11.0845   31.9555 C.3       4 GLC5        0.0000 
     18 CA        -11.9150  -12.1840   33.7890 C.3      12 GLL5        0.0000 
     19 N         -11.8695   -9.5630   34.5030 N.am      2 SEC2        0.0000 
     20 N         -12.1080  -10.8440   34.2480 N.am     10 SEL2        0.0000 
     21 N         -11.6310   -8.2820   34.7580 N.am      6 SEP2        0.0000 
     22 O         -13.1935  -10.5845   34.8390 O.2       1 ALC1        0.0000 
     23 O         -12.1080  -10.8440   34.2480 O.2       9 ALL1        0.0000 
     24 O         -14.2790  -10.3250   35.4300 O.2       5 ALP1        0.0000 
     25 CA        -12.1350  -11.5275   36.3095 C.3       4 GLC5        0.0000 
     26 CA        -11.6350  -13.1440   34.9320 C.3      12 GLL5        0.0000 
     27 CA        -12.6350   -9.9110   37.6870 C.3       8 GLP5        0.0000 
     28 N         -15.0505  -16.0305   38.6940 N.am      2 SEC2        0.0000 
     29 N         -14.1050  -15.6790   37.6340 N.am     10 SEL2        0.0000 
     30 N         -15.9960  -16.3820   39.7540 N.am      6 SEP2        0.0000 
     31 O         -15.2285  -18.4220   38.6980 O.2       1 ALC1        0.0000 
     32 O         -13.7770  -17.6740   38.8190 O.2       9 ALL1        0.0000 
     33 O         -16.6800  -19.1700   38.5770 O.2       5 ALP1        0.0000 
     34 O         -14.8865  -17.0280   39.2865 O.2       1 ALC1        0.0000 
     35 O         -15.9960  -16.3820   39.7540 O.2       5 ALP1        0.0000 
     36 CA        -10.7820  -16.7140   38.0020 C.3       4 GLC5        0.0000 
     37 CA        -12.4770  -17.2480   36.8860 C.3      12 GLL5        0.0000 
     38 CA         -9.0870  -16.1800   39.1180 C.3       8 GLP5        0.0000 
     39 CA        -13.7945  -18.9135   37.1645 C.3       4 GLC5        0.0000 
     40 CA        -15.1120  -20.5790   37.4430 C.3       8 GLP5        0.0000 
     41 CA        -14.1210  -11.3390   31.4547 C.3       4 GLC5        0.0000 
     42 CA        -15.1710   -9.8890   30.5450 C.3       8 GLP5        0.0000 
@<TRIPOS>BOND
@<TRIPOS>SUBSTRUCTURE
     1 ALC1       22 GROUP        1 X    ALC  0     ROOT ALC X 1
     2 SEC2        4 GROUP        1 X    SEC  0     **** SEC X 2
     3 LYC4        1 GROUP        1 X    LYC  0     **** LYC X 4
     4 GLC5        9 GROUP        1 X    GLC  0     **** GLC X 6
     5 ALP1       24 GROUP        1 Y    ALP  0     ROOT ALP Y 8
     6 SEP2        6 GROUP        1 Y    SEP  0     **** SEP Y 9
     7 LYP4        3 GROUP        1 Y    LYP  0     **** LYP Y 11
     8 GLP5       11 GROUP        1 Y    GLP  0     **** GLP Y 13
     9 ALL1       23 GROUP        1 Z    ALL  0     ROOT ALL Z 15
    10 SEL2        5 GROUP        1 Z    SEL  0     **** SEL Z 16
    11 LYL4        2 GROUP        1 Z    LYL  0     **** LYL Z 18
    12 GLL5       10 GROUP        1 Z    GLL  0     **** GLL Z 20
@<TRIPOS>SET

