#    Name: 2vsi_CDF_2_ligand
#    Modification time : Tue Mar 25 02:50:58 2014

@<TRIPOS>MOLECULE
2vsi_CDF_2_ligand
   37    38     1     0     0
SMALL
NO_CHARGES


@<TRIPOS>ATOM
      1 O3B       -12.9490  -16.8180   30.4350 O.co2     1 CDF1233     0.0000 
      2 PB        -11.4620  -17.0320   30.6070 P.3       1 CDF1233     0.0000 
      3 O1B       -10.8800  -18.0820   29.6900 O.co2     1 CDF1233     0.0000 
      4 O2B       -11.0030  -17.1450   32.0440 O.co2     1 CDF1233     0.0000 
      5 O3A       -10.8010  -15.6620   30.0690 O.3       1 CDF1233     0.0000 
      6 PA        -10.8260  -14.2980   30.9280 P.3       1 CDF1233     0.0000 
      7 O1A       -10.0380  -14.5220   32.1980 O.co2     1 CDF1233     0.0000 
      8 O2A       -10.4150  -13.1720   30.0110 O.co2     1 CDF1233     0.0000 
      9 O5'       -12.3910  -14.1390   31.2910 O.3       1 CDF1233     0.0000 
     10 C5'       -12.9650  -12.8700   31.6120 C.3       1 CDF1233     0.0000 
     11 C4'       -13.1770  -12.7080   33.1170 C.3       1 CDF1233     0.0000 
     12 O4'       -13.5090  -13.9550   33.7440 O.3       1 CDF1233     0.0000 
     13 C3'       -11.9150  -12.1840   33.7890 C.3       1 CDF1233     0.0000 
     14 O3'       -12.1080  -10.8440   34.2480 O.3       1 CDF1233     0.0000 
     15 C2'       -11.6350  -13.1440   34.9320 C.3       1 CDF1233     0.0000 
     16 O2'       -10.2340  -13.4100   35.0340 O.3       1 CDF1233     0.0000 
     17 C1'       -12.3990  -14.4010   34.5320 C.3       1 CDF1233     0.0000 
     18 N1        -12.7940  -15.2340   35.6750 N.am      1 CDF1233     0.0000 
     19 C2        -13.7990  -14.8570   36.6030 C.2       1 CDF1233     0.0000 
     20 O2        -14.4100  -13.7760   36.4960 O.2       1 CDF1233     0.0000 
     21 N3        -14.1050  -15.6790   37.6340 N.2       1 CDF1233     0.0000 
     22 C4        -13.4630  -16.8620   37.7870 C.2       1 CDF1233     0.0000 
     23 N4        -13.7770  -17.6740   38.8190 N.pl3     1 CDF1233     0.0000 
     24 C6        -12.1590  -16.4050   35.8250 C.2       1 CDF1233     0.0000 
     25 C5        -12.4770  -17.2480   36.8860 C.2       1 CDF1233     0.0000 
     26 H         -13.9447  -12.7329   31.1211 H         1 CDF1233     0.0000 
     27 H         -12.3220  -12.0378   31.2749 H         1 CDF1233     0.0000 
     28 H         -13.9611  -11.9792   33.2786 H         1 CDF1233     0.0000 
     29 H         -11.1115  -12.2651   33.0802 H         1 CDF1233     0.0000 
     30 H         -12.0642  -12.7552   35.8139 H         1 CDF1233     0.0000 
     31 H         -11.7141  -14.9749   33.8790 H         1 CDF1233     0.0000 
     32 H         -13.0442  -18.2687   39.1496 H         1 CDF1233     0.0000 
     33 H         -14.7145  -17.6085   39.1609 H         1 CDF1233     0.0000 
     34 H         -11.4214  -16.7060   35.1574 H         1 CDF1233     0.0000 
     35 H         -11.9909  -18.1402   37.0007 H         1 CDF1233     0.0000 
     36 H         -13.0912  -10.6814   34.1653 H         1 CDF1233     0.0000 
     37 H          -9.9805  -13.8040   34.1505 H         1 CDF1233     0.0000 
@<TRIPOS>BOND
     1    2    1 ar   
     2    3    2 ar   
     3    4    2 ar   
     4    5    2 1    
     5    6    5 1    
     6    7    6 ar   
     7    8    6 ar   
     8    9    6 1    
     9   10    9 1    
    10   11   10 1    
    11   26   10 1    
    12   27   10 1    
    13   12   11 1    
    14   13   11 1    
    15   28   11 1    
    16   17   12 1    
    17   14   13 1    
    18   15   13 1    
    19   29   13 1    
    20   36   14 1    
    21   16   15 1    
    22   17   15 1    
    23   30   15 1    
    24   37   16 1    
    25   18   17 1    
    26   31   17 1    
    27   19   18 am   
    28   24   18 1    
    29   20   19 2    
    30   21   19 1    
    31   22   21 2    
    32   23   22 1    
    33   25   22 1    
    34   32   23 1    
    35   33   23 1    
    36   25   24 2    
    37   34   24 1    
    38   35   25 1    
@<TRIPOS>SUBSTRUCTURE
     1 CDF1233     1 GROUP   
@<TRIPOS>SET

