#    Name: 3nwx_KVS_1_INTS_M
#    Modification time : Tue Mar 25 02:50:59 2014

@<TRIPOS>MOLECULE
3nwx_KVS_1_INTS_M
  125     0    12     0     0
SMALL
NO_CHARGES


@<TRIPOS>ATOM
      1 N          -8.9780   -9.3215  -15.1565 N.am      2 SEC2        0.0000 
      2 N          -9.1430   -9.5000  -16.8200 N.am     10 SEL2        0.0000 
      3 N          -8.8130   -9.1430  -13.4930 N.am      6 SEP2        0.0000 
      4 CA        -11.9470  -10.8960  -18.7670 C.3       4 GLC5        0.0000 
      5 CA        -10.1460  -10.1420  -18.9520 C.3      12 GLL5        0.0000 
      6 CA        -13.7480  -11.6500  -18.5820 C.3       8 GLP5        0.0000 
      7 CA        -11.3550   -9.7715  -17.3645 C.3       4 GLC5        0.0000 
      8 CA        -12.5640   -9.4010  -15.7770 C.3       8 GLP5        0.0000 
      9 O          -7.8735   -8.6990  -20.2620 O.2       1 ALC1        0.0000 
     10 O          -8.1660   -8.7730  -18.7120 O.2       9 ALL1        0.0000 
     11 O          -7.5810   -8.6250  -21.8120 O.2       5 ALP1        0.0000 
     12 N          -8.2265   -5.4250  -20.3120 N.am      2 SEC2        0.0000 
     13 N          -7.5490   -6.0570  -19.1720 N.am     10 SEL2        0.0000 
     14 N          -8.9040   -4.7930  -21.4520 N.am      6 SEP2        0.0000 
     15 O          -7.0415   -6.8170  -15.6865 O.2       1 ALC1        0.0000 
     16 O          -7.2100   -6.0020  -16.9270 O.2       9 ALL1        0.0000 
     17 O          -6.8730   -7.6320  -14.4460 O.2       5 ALP1        0.0000 
     18 CA         -7.8540   -3.6890  -18.5445 C.3       4 GLC5        0.0000 
     19 CA         -7.5400   -4.6110  -16.7710 C.3      12 GLL5        0.0000 
     20 CA         -8.1680   -2.7670  -20.3180 C.3       8 GLP5        0.0000 
     21 CA         -8.8295   -4.3190  -13.7215 C.3       4 GLC5        0.0000 
     22 CA         -8.7730   -4.4540  -15.8850 C.3      12 GLL5        0.0000 
     23 CA         -8.8860   -4.1840  -11.5580 C.3       8 GLP5        0.0000 
     24 CA        -11.4840   -5.9925  -15.3035 C.3       4 GLC5        0.0000 
     25 CA         -9.9020   -5.3980  -16.3140 C.3      12 GLL5        0.0000 
     26 CA        -13.0660   -6.5870  -14.2930 C.3       8 GLP5        0.0000 
     27 CA         -9.2085   -2.4545  -17.7155 C.3       4 GLC5        0.0000 
     28 CA         -9.1840   -2.9760  -15.8430 C.3      12 GLL5        0.0000 
     29 CA         -9.2330   -1.9330  -19.5880 C.3       8 GLP5        0.0000 
     30 CA        -10.2435   -1.4215  -15.2140 C.3       4 GLC5        0.0000 
     31 CA        -11.3030    0.1330  -14.5850 C.3       8 GLP5        0.0000 
     32 CA        -10.3930   -3.0900  -14.2005 C.3       4 GLC5        0.0000 
     33 CA        -11.6020   -3.2040  -12.5580 C.3       8 GLP5        0.0000 
     34 CA         -9.8445   -3.5690  -18.6415 C.3       4 GLC5        0.0000 
     35 CA        -10.4560   -5.2050  -17.6950 C.3      12 GLL5        0.0000 
     36 CA        -11.9370   -5.7210  -18.9575 C.3       4 GLC5        0.0000 
     37 CA        -13.4180   -6.2370  -20.2200 C.3       8 GLP5        0.0000 
     38 O          -5.5335   -3.1745  -18.3240 O.2       1 ALC1        0.0000 
     39 O          -5.5910   -3.1770  -16.8390 O.2       9 ALL1        0.0000 
     40 O          -5.4760   -3.1720  -19.8090 O.2       5 ALP1        0.0000 
     41 CA         -4.0285   -1.9160  -19.0065 C.3       4 GLC5        0.0000 
     42 CA         -3.2680   -2.6050  -17.0720 C.3      12 GLL5        0.0000 
     43 CA         -4.7890   -1.2270  -20.9410 C.3       8 GLP5        0.0000 
     44 CA         -4.0150   -5.5245  -14.3615 C.3       4 GLC5        0.0000 
     45 CA         -2.8910   -4.8500  -15.9740 C.3      12 GLL5        0.0000 
     46 CA         -5.1390   -6.1990  -12.7490 C.3       8 GLP5        0.0000 
     47 CA         -0.9140   -4.3010  -13.3120 C.3       4 GLC5        0.0000 
     48 CA         -1.5780   -4.5850  -15.2830 C.3      12 GLL5        0.0000 
     49 CA         -0.2500   -4.0170  -11.3410 C.3       8 GLP5        0.0000 
     50 CA         -1.1805   -6.5640  -14.6780 C.3       4 GLC5        0.0000 
     51 CA         -0.7830   -8.5430  -14.0730 C.3       8 GLP5        0.0000 
     52 CA         -0.3920   -5.5475  -16.7175 C.3       4 GLC5        0.0000 
     53 CA          0.7940   -6.5100  -18.1520 C.3       8 GLP5        0.0000 
     54 CA         -0.4675   -3.4225  -16.4880 C.3       4 GLC5        0.0000 
     55 CA          0.6430   -2.2600  -17.6930 C.3       8 GLP5        0.0000 
     56 N          -4.5485    0.5780  -18.1805 N.am      2 SEC2        0.0000 
     57 N          -5.2850   -0.1640  -17.4020 N.am     10 SEL2        0.0000 
     58 N          -3.8120    1.3200  -18.9590 N.am      6 SEP2        0.0000 
     59 O          -6.4900    0.2740  -17.5775 O.2       1 ALC1        0.0000 
     60 O          -5.2850   -0.1640  -17.4020 O.2       9 ALL1        0.0000 
     61 O          -7.6950    0.7120  -17.7530 O.2       5 ALP1        0.0000 
     62 O          -3.0350    0.0820  -16.6275 O.2       1 ALC1        0.0000 
     63 O          -3.6500   -0.0660  -15.6310 O.2       9 ALL1        0.0000 
     64 O          -2.4200    0.2300  -17.6240 O.2       5 ALP1        0.0000 
     65 CA         -9.3950    0.5095  -14.1180 C.3       4 GLC5        0.0000 
     66 CA         -7.4870    0.8860  -13.6510 C.3      12 GLL5        0.0000 
     67 CA         -8.2405    3.5620  -14.3130 C.3       4 GLC5        0.0000 
     68 CA         -7.6490    2.2100  -12.8950 C.3      12 GLL5        0.0000 
     69 CA         -8.8320    4.9140  -15.7310 C.3       8 GLP5        0.0000 
     70 CA        -10.3965    3.0800  -11.7130 C.3       4 GLC5        0.0000 
     71 CA         -8.6500    2.0540  -11.7540 C.3      12 GLL5        0.0000 
     72 CA        -12.1430    4.1060  -11.6720 C.3       8 GLP5        0.0000 
     73 CA         -9.9765    1.0935  -13.1695 C.3       4 GLC5        0.0000 
     74 CA         -9.9165    2.2545   -9.2915 C.3       4 GLC5        0.0000 
     75 CA         -8.3180    3.0410  -10.6430 C.3      12 GLL5        0.0000 
     76 CA        -11.5150    1.4680   -7.9400 C.3       8 GLP5        0.0000 
     77 CA         -9.9495    4.0265  -10.6210 C.3       4 GLC5        0.0000 
     78 CA        -11.5810    5.0120  -10.5990 C.3       8 GLP5        0.0000 
     79 O          -4.6650    2.8975  -14.0435 O.2       1 ALC1        0.0000 
     80 O          -4.3690    1.8340  -12.9630 O.2       9 ALL1        0.0000 
     81 O          -4.9610    3.9610  -15.1240 O.2       5 ALP1        0.0000 
     82 CA         -2.8115    2.9610  -13.6975 C.3       4 GLC5        0.0000 
     83 CA         -3.3820    1.9460  -11.8950 C.3      12 GLL5        0.0000 
     84 CA         -2.2410    3.9760  -15.5000 C.3       8 GLP5        0.0000 
     85 N          -2.4810    5.1120  -13.1270 N.am      2 SEC2        0.0000 
     86 N          -3.3240    4.3330  -12.1210 N.am     10 SEL2        0.0000 
     87 N          -1.6380    5.8910  -14.1330 N.am      6 SEP2        0.0000 
     88 CA         -1.5745    2.2435  -14.0885 C.3       4 GLC5        0.0000 
     89 CA         -2.0070    1.5000  -12.3740 C.3      12 GLL5        0.0000 
     90 CA         -1.1420    2.9870  -15.8030 C.3       8 GLP5        0.0000 
     91 CA         -0.8735    0.5325  -13.8285 C.3       4 GLC5        0.0000 
     92 CA          0.2600   -0.4350  -15.2830 C.3       8 GLP5        0.0000 
     93 CA         -0.3060   -0.4880  -11.5560 C.3       4 GLC5        0.0000 
     94 CA         -0.8750    1.6530  -11.3700 C.3      12 GLL5        0.0000 
     95 CA          0.2630   -2.6290  -11.7420 C.3       8 GLP5        0.0000 
     96 CA          1.1425    1.0390  -11.8975 C.3       4 GLC5        0.0000 
     97 CA          3.1600    0.4250  -12.4250 C.3       8 GLP5        0.0000 
     98 CA          0.6730    0.9095  -10.1500 C.3       4 GLC5        0.0000 
     99 CA          2.2210    0.1660   -8.9300 C.3       8 GLP5        0.0000 
    100 N           0.4155    4.8100  -13.0615 N.am      2 SEC2        0.0000 
    101 N          -0.2540    3.7770  -12.3720 N.am     10 SEL2        0.0000 
    102 N           1.0850    5.8430  -13.7510 N.am      6 SEP2        0.0000 
    103 O           0.9405    4.6725  -10.1555 O.2       1 ALC1        0.0000 
    104 O           0.3370    3.4420  -10.2180 O.2       9 ALL1        0.0000 
    105 O           1.5440    5.9030  -10.0930 O.2       5 ALP1        0.0000 
    106 O          -3.4905    2.1475   -9.3895 O.2       1 ALC1        0.0000 
    107 O          -3.2520    3.4490  -10.0570 O.2       9 ALL1        0.0000 
    108 O          -3.7290    0.8460   -8.7220 O.2       5 ALP1        0.0000 
    109 N          -2.0855    2.1450   -7.0550 N.am      2 SEC2        0.0000 
    110 N          -2.1180    3.5150   -7.5140 N.am     10 SEL2        0.0000 
    111 N          -2.0530    0.7750   -6.5960 N.am      6 SEP2        0.0000 
    112 OD1        -4.4505    8.5945  -11.3830 O.co2     3 ASC3        0.0000 
    113 OD1        -5.4570    9.1540   -9.8320 O.co2    11 ASL3        0.0000 
    114 OD1        -3.4440    8.0350  -12.9340 O.co2     7 ASP3        0.0000 
    115 OD1        -3.6445    9.1185  -10.4380 O.co2     3 ASC3        0.0000 
    116 OD1        -2.7810    8.1850  -10.8580 O.co2     7 ASP3        0.0000 
    117 O          -3.6445    9.1185  -10.4380 O.2       1 ALC1        0.0000 
    118 O          -4.5080   10.0520  -10.0180 O.2       9 ALL1        0.0000 
    119 O          -2.7810    8.1850  -10.8580 O.2       5 ALP1        0.0000 
    120 CA        -12.0560   -4.4183  -16.5243 C.3       4 GLC5        0.0000 
    121 CA        -13.9330   -3.5350  -16.0440 C.3       8 GLP5        0.0000 
    122 CA         -2.4990   -3.3658  -19.0650 C.3       4 GLC5        0.0000 
    123 CA         -1.8640   -3.3810  -20.9420 C.3       8 GLP5        0.0000 
    124 CA         -1.2455   -2.8053  -17.4405 C.3       4 GLC5        0.0000 
    125 CA         -3.0000   -4.0960  -17.3040 C.3      12 GLL5        0.0000 
@<TRIPOS>BOND
@<TRIPOS>SUBSTRUCTURE
     1 ALC1        9 GROUP        1 X    ALC  0     ROOT ALC X 1
     2 SEC2        1 GROUP        1 X    SEC  0     **** SEC X 2
     3 ASC3      112 GROUP        1 X    ASC  0     **** ASC X 3
     4 GLC5        4 GROUP        1 X    GLC  0     **** GLC X 6
     5 ALP1       11 GROUP        1 Y    ALP  0     ROOT ALP Y 8
     6 SEP2        3 GROUP        1 Y    SEP  0     **** SEP Y 9
     7 ASP3      114 GROUP        1 Y    ASP  0     **** ASP Y 10
     8 GLP5        6 GROUP        1 Y    GLP  0     **** GLP Y 13
     9 ALL1       10 GROUP        1 Z    ALL  0     ROOT ALL Z 15
    10 SEL2        2 GROUP        1 Z    SEL  0     **** SEL Z 16
    11 ASL3      113 GROUP        1 Z    ASL  0     **** ASL Z 17
    12 GLL5        5 GROUP        1 Z    GLL  0     **** GLL Z 20
@<TRIPOS>SET

