#    Name: 3nwx_KVS_1_ligand
#    Modification time : Tue Mar 25 02:50:59 2014

@<TRIPOS>MOLECULE
3nwx_KVS_1_ligand
  121   120     1     0     0
SMALL
NO_CHARGES


@<TRIPOS>ATOM
      1 C          -9.1210   -9.4380  -18.0750 C.2       1 KVS100      0.0000 
      2 O          -9.1430   -9.5000  -16.8200 O.2       1 KVS100      0.0000 
      3 CH3       -10.1460  -10.1420  -18.9520 C.3       1 KVS100      0.0000 
      4 N1         -8.1660   -8.7730  -18.7120 N.am      1 KVS100      0.0000 
      5 CA         -7.0910   -8.1190  -18.0130 C.3       1 KVS100      0.0000 
      6 C1         -7.3110   -6.6250  -18.0920 C.2       1 KVS100      0.0000 
      7 O1         -7.5490   -6.0570  -19.1720 O.2       1 KVS100      0.0000 
      8 CB         -5.7030   -8.4640  -18.5710 C.3       1 KVS100      0.0000 
      9 OG1        -5.6680   -9.8260  -19.0290 O.3       1 KVS100      0.0000 
     10 CG2        -4.6590   -8.2820  -17.4750 C.3       1 KVS100      0.0000 
     11 N2         -7.2100   -6.0020  -16.9270 N.am      1 KVS100      0.0000 
     12 CA1        -7.5400   -4.6110  -16.7710 C.3       1 KVS100      0.0000 
     13 C2         -6.3990   -3.9060  -16.0810 C.2       1 KVS100      0.0000 
     14 O2         -6.2960   -3.9770  -14.8610 O.2       1 KVS100      0.0000 
     15 CB1        -8.7730   -4.4540  -15.8850 C.3       1 KVS100      0.0000 
     16 CG1        -9.9020   -5.3980  -16.3140 C.2       1 KVS100      0.0000 
     17 CG3        -9.1840   -2.9760  -15.8430 C.3       1 KVS100      0.0000 
     18 CD1       -10.4560   -5.2050  -17.6950 C.2       1 KVS100      0.0000 
     19 N3         -5.5910   -3.1770  -16.8390 N.am      1 KVS100      0.0000 
     20 CA2        -4.5420   -2.3240  -16.2540 C.3       1 KVS100      0.0000 
     21 CB2        -3.2680   -2.6050  -17.0720 C.3       1 KVS100      0.0000 
     22 CG         -3.0000   -4.0960  -17.3040 C.3       1 KVS100      0.0000 
     23 CD2        -2.8910   -4.8500  -15.9740 C.3       1 KVS100      0.0000 
     24 CE         -1.5780   -4.5850  -15.2830 C.3       1 KVS100      0.0000 
     25 CW         -4.8780   -0.8020  -16.1020 C.3       1 KVS100      0.0000 
     26 OA         -5.2850   -0.1640  -17.4020 O.3       1 KVS100      0.0000 
     27 OB         -3.6500   -0.0660  -15.6310 O.3       1 KVS100      0.0000 
     28 CZ         -6.0220   -0.4700  -15.1290 C.3       1 KVS100      0.0000 
     29 CJ         -6.1030    0.7730  -14.2540 C.3       1 KVS100      0.0000 
     30 CL         -7.4870    0.8860  -13.6510 C.3       1 KVS100      0.0000 
     31 CX         -7.6490    2.2100  -12.8950 C.3       1 KVS100      0.0000 
     32 CV         -8.6500    2.0540  -11.7540 C.3       1 KVS100      0.0000 
     33 CY         -8.3180    3.0410  -10.6430 C.3       1 KVS100      0.0000 
     34 C3         -5.0270    0.7040  -13.1690 C.2       1 KVS100      0.0000 
     35 O3         -4.9290   -0.2460  -12.3870 O.2       1 KVS100      0.0000 
     36 N4         -4.3690    1.8340  -12.9630 N.am      1 KVS100      0.0000 
     37 CA3        -3.3820    1.9460  -11.8950 C.3       1 KVS100      0.0000 
     38 C4         -3.3180    3.3610  -11.3740 C.2       1 KVS100      0.0000 
     39 O4         -3.3240    4.3330  -12.1210 O.2       1 KVS100      0.0000 
     40 CB3        -2.0070    1.5000  -12.3740 C.3       1 KVS100      0.0000 
     41 CG4        -0.8750    1.6530  -11.3700 C.3       1 KVS100      0.0000 
     42 CD3        -0.2410    3.0620  -11.3600 C.2       1 KVS100      0.0000 
     43 OE1        -0.2540    3.7770  -12.3720 O.2       1 KVS100      0.0000 
     44 NE2         0.3370    3.4420  -10.2180 N.am      1 KVS100      0.0000 
     45 N5         -3.2520    3.4490  -10.0570 N.am      1 KVS100      0.0000 
     46 CA4        -3.1310    4.6970   -9.3370 C.3       1 KVS100      0.0000 
     47 C5         -2.0390    4.4430   -8.3070 C.2       1 KVS100      0.0000 
     48 O5         -2.1180    3.5150   -7.5140 O.2       1 KVS100      0.0000 
     49 CB4        -4.4580    4.9830   -8.6510 C.3       1 KVS100      0.0000 
     50 CG5        -5.6140    5.4210   -9.5850 C.3       1 KVS100      0.0000 
     51 CD4        -6.1340    6.8370   -9.2450 C.3       1 KVS100      0.0000 
     52 NE5        -5.1390    7.9220   -9.4540 N.pl3     1 KVS100      0.0000 
     53 CZ1        -5.4570    9.1540   -9.8320 C.cat     1 KVS100      0.0000 
     54 NH1        -6.7130    9.5090  -10.0110 N.pl3     1 KVS100      0.0000 
     55 NH2        -4.5080   10.0520  -10.0180 N.pl3     1 KVS100      0.0000 
     56 N6         -1.4540    5.4320   -7.6270 N.am      1 KVS100      0.0000 
     57 H          -8.1510   -8.6935  -19.7559 H         1 KVS100      0.0000 
     58 H          -7.1018   -8.3908  -16.9562 H         1 KVS100      0.0000 
     59 H          -5.4787   -7.7768  -19.3667 H         1 KVS100      0.0000 
     60 H          -6.8837   -6.4966  -16.0628 H         1 KVS100      0.0000 
     61 H          -7.7274   -4.1347  -17.7047 H         1 KVS100      0.0000 
     62 H          -8.4677   -4.7361  -14.8600 H         1 KVS100      0.0000 
     63 H         -10.2290   -6.0765  -15.7158 H         1 KVS100      0.0000 
     64 H          -5.6485   -3.1639  -17.8765 H         1 KVS100      0.0000 
     65 H          -4.3209   -2.7157  -15.2284 H         1 KVS100      0.0000 
     66 H          -2.4076   -2.1633  -16.5488 H         1 KVS100      0.0000 
     67 H          -3.3546   -2.1006  -18.0452 H         1 KVS100      0.0000 
     68 H          -2.0697   -4.2107  -17.8578 H         1 KVS100      0.0000 
     69 H          -3.8143   -4.5193  -17.8898 H         1 KVS100      0.0000 
     70 H          -2.9962   -5.9226  -16.1688 H         1 KVS100      0.0000 
     71 H          -3.7183   -4.5410  -15.3263 H         1 KVS100      0.0000 
     72 H          -6.1521   -1.3886  -14.4387 H         1 KVS100      0.0000 
     73 H          -7.0054   -0.5322  -15.7342 H         1 KVS100      0.0000 
     74 H          -5.9137    1.6380  -14.8723 H         1 KVS100      0.0000 
     75 H          -7.6539    0.0610  -12.9581 H         1 KVS100      0.0000 
     76 H          -8.2367    0.8365  -14.4410 H         1 KVS100      0.0000 
     77 H          -8.0021    2.9728  -13.5840 H         1 KVS100      0.0000 
     78 H          -6.6854    2.5104  -12.4920 H         1 KVS100      0.0000 
     79 H          -8.5980    1.0424  -11.3663 H         1 KVS100      0.0000 
     80 H          -9.6504    2.2498  -12.1244 H         1 KVS100      0.0000 
     81 H          -4.5152    2.6853  -13.5373 H         1 KVS100      0.0000 
     82 H          -3.6667    1.2955  -11.0624 H         1 KVS100      0.0000 
     83 H          -1.7485    2.0684  -13.2939 H         1 KVS100      0.0000 
     84 H          -2.0667    0.4346  -12.6861 H         1 KVS100      0.0000 
     85 H          -0.0871    0.9186  -11.5931 H         1 KVS100      0.0000 
     86 H          -1.2506    1.4334  -10.3597 H         1 KVS100      0.0000 
     87 H           0.3013    2.7834   -9.4663 H         1 KVS100      0.0000 
     88 H           0.7537    4.3511  -10.2169 H         1 KVS100      0.0000 
     89 H          -3.2856    2.5830   -9.4476 H         1 KVS100      0.0000 
     90 H          -2.8546    5.4843   -9.9642 H         1 KVS100      0.0000 
     91 H          -4.3118    5.7746   -7.8893 H         1 KVS100      0.0000 
     92 H          -4.7851    4.0798   -8.0983 H         1 KVS100      0.0000 
     93 H          -6.4340    4.7089   -9.4902 H         1 KVS100      0.0000 
     94 H          -5.2588    5.4107  -10.6156 H         1 KVS100      0.0000 
     95 H          -6.4725    6.8287   -8.1913 H         1 KVS100      0.0000 
     96 H          -7.0349    7.0230   -9.8604 H         1 KVS100      0.0000 
     97 H          -4.1430    7.6319   -9.2755 H         1 KVS100      0.0000 
     98 H          -7.3974    8.7951   -9.8630 H         1 KVS100      0.0000 
     99 H          -6.8676   10.4601  -10.2786 H         1 KVS100      0.0000 
    100 H          -3.5691    9.7336   -9.8872 H         1 KVS100      0.0000 
    101 H          -4.8140   10.9693  -10.2729 H         1 KVS100      0.0000 
    102 H          -0.7110    5.1647   -7.0134 H         1 KVS100      0.0000 
    103 H          -1.8114    6.3512   -7.7924 H         1 KVS100      0.0000 
    104 H          -9.9754   -9.9819  -19.9243 H         1 KVS100      0.0000 
    105 H         -10.1371  -11.1321  -18.8120 H         1 KVS100      0.0000 
    106 H         -11.0760   -9.8275  -18.7619 H         1 KVS100      0.0000 
    107 H          -3.7379   -8.4960  -17.8003 H         1 KVS100      0.0000 
    108 H          -4.6385   -7.3422  -17.1340 H         1 KVS100      0.0000 
    109 H          -4.8377   -8.8749  -16.6898 H         1 KVS100      0.0000 
    110 H          -8.4563   -2.3985  -15.4728 H         1 KVS100      0.0000 
    111 H          -9.4019   -2.6251  -16.7537 H         1 KVS100      0.0000 
    112 H          -9.9921   -2.8313  -15.2720 H         1 KVS100      0.0000 
    113 H          -0.7997   -4.8699  -15.8425 H         1 KVS100      0.0000 
    114 H          -1.4539   -3.6134  -15.0813 H         1 KVS100      0.0000 
    115 H          -1.5098   -5.0757  -14.4144 H         1 KVS100      0.0000 
    116 H          -7.3992    2.8930  -10.2771 H         1 KVS100      0.0000 
    117 H          -8.3570    3.9875  -10.9632 H         1 KVS100      0.0000 
    118 H          -8.9549    2.9646   -9.8758 H         1 KVS100      0.0000 
    119 H          -6.1935   -9.8264  -19.8798 H         1 KVS100      0.0000 
    120 H          -6.2467    0.0813  -17.2799 H         1 KVS100      0.0000 
    121 H          -2.9247   -0.3434  -16.2610 H         1 KVS100      0.0000 
@<TRIPOS>BOND
     1    2    1 2    
     2    3    1 1    
     3    4    1 am   
     4  104    3 1    
     5  105    3 1    
     6  106    3 1    
     7    5    4 1    
     8   57    4 1    
     9    6    5 1    
    10    8    5 1    
    11   58    5 1    
    12    7    6 2    
    13   11    6 am   
    14    9    8 1    
    15   10    8 1    
    16   59    8 1    
    17  119    9 1    
    18  107   10 1    
    19  108   10 1    
    20  109   10 1    
    21   12   11 1    
    22   60   11 1    
    23   13   12 1    
    24   15   12 1    
    25   61   12 1    
    26   14   13 2    
    27   19   13 am   
    28   16   15 1    
    29   17   15 1    
    30   62   15 1    
    31   18   16 2    
    32   63   16 1    
    33  110   17 1    
    34  111   17 1    
    35  112   17 1    
    36   20   19 1    
    37   64   19 1    
    38   21   20 1    
    39   25   20 1    
    40   65   20 1    
    41   22   21 1    
    42   66   21 1    
    43   67   21 1    
    44   23   22 1    
    45   68   22 1    
    46   69   22 1    
    47   24   23 1    
    48   70   23 1    
    49   71   23 1    
    50  113   24 1    
    51  114   24 1    
    52  115   24 1    
    53   26   25 1    
    54   27   25 1    
    55   28   25 1    
    56  120   26 1    
    57  121   27 1    
    58   29   28 1    
    59   72   28 1    
    60   73   28 1    
    61   30   29 1    
    62   34   29 1    
    63   74   29 1    
    64   31   30 1    
    65   75   30 1    
    66   76   30 1    
    67   32   31 1    
    68   77   31 1    
    69   78   31 1    
    70   33   32 1    
    71   79   32 1    
    72   80   32 1    
    73  116   33 1    
    74  117   33 1    
    75  118   33 1    
    76   35   34 2    
    77   36   34 am   
    78   37   36 1    
    79   81   36 1    
    80   38   37 1    
    81   40   37 1    
    82   82   37 1    
    83   39   38 2    
    84   45   38 am   
    85   41   40 1    
    86   83   40 1    
    87   84   40 1    
    88   42   41 1    
    89   85   41 1    
    90   86   41 1    
    91   43   42 2    
    92   44   42 am   
    93   87   44 1    
    94   88   44 1    
    95   46   45 1    
    96   89   45 1    
    97   47   46 1    
    98   49   46 1    
    99   90   46 1    
   100   48   47 2    
   101   56   47 am   
   102   50   49 1    
   103   91   49 1    
   104   92   49 1    
   105   51   50 1    
   106   93   50 1    
   107   94   50 1    
   108   52   51 1    
   109   95   51 1    
   110   96   51 1    
   111   53   52 ar   
   112   97   52 1    
   113   54   53 ar   
   114   55   53 ar   
   115   98   54 1    
   116   99   54 1    
   117  100   55 1    
   118  101   55 1    
   119  102   56 1    
   120  103   56 1    
@<TRIPOS>SUBSTRUCTURE
     1 KVS100      1 GROUP   
@<TRIPOS>SET

