#    Name: 2xsz_ATP_6_INTS_M
#    Modification time : Tue Mar 25 06:35:41 2014

@<TRIPOS>MOLECULE
2xsz_ATP_6_INTS_M
   77     0    12     0     0
SMALL
NO_CHARGES


@<TRIPOS>ATOM
      1 NZ         75.5200   54.3980   10.1050 N.4       3 LYC4        0.0000 
      2 NZ         76.9320   54.0910   10.0190 N.4      11 LYL4        0.0000 
      3 NZ         74.1080   54.7050   10.1910 N.4       7 LYP4        0.0000 
      4 N          77.3535   53.7405    8.6610 N.am      2 SEC2        0.0000 
      5 N          76.9320   54.0910   10.0190 N.am     10 SEL2        0.0000 
      6 N          77.7750   53.3900    7.3030 N.am      6 SEP2        0.0000 
      7 N          77.9355   55.1800   10.4230 N.am      2 SEC2        0.0000 
      8 N          78.9390   56.2690   10.8270 N.am      6 SEP2        0.0000 
      9 N          75.5200   54.3980   10.1050 N.am      2 SEC2        0.0000 
     10 N          74.1080   54.7050   10.1910 N.am      6 SEP2        0.0000 
     11 N          78.3255   54.8010   13.0435 N.am      2 SEC2        0.0000 
     12 N          77.5170   53.8110   12.4390 N.am     10 SEL2        0.0000 
     13 N          79.1340   55.7910   13.6480 N.am      6 SEP2        0.0000 
     14 N          77.8770   53.7450   13.7500 N.am      2 SEC2        0.0000 
     15 N          78.2370   53.6790   15.0610 N.am      6 SEP2        0.0000 
     16 N          76.1165   51.7285    9.7545 N.am      2 SEC2        0.0000 
     17 N          76.1980   52.0190   11.1780 N.am     10 SEL2        0.0000 
     18 N          76.0350   51.4380    8.3310 N.am      6 SEP2        0.0000 
     19 N          81.1980   54.2830   12.8455 N.am      2 SEC2        0.0000 
     20 N          80.4640   53.2310   12.1090 N.am     10 SEL2        0.0000 
     21 N          81.9320   55.3350   13.5820 N.am      6 SEP2        0.0000 
     22 N          79.2155   53.5085    9.6365 N.am      2 SEC2        0.0000 
     23 N          78.6320   52.3760   10.6460 N.am     10 SEL2        0.0000 
     24 N          79.7990   54.6410    8.6270 N.am      6 SEP2        0.0000 
     25 CA         79.1165   50.5445    8.9695 C.3       4 GLC5        0.0000 
     26 CA         80.8780   50.0370   10.0930 C.3      12 GLL5        0.0000 
     27 CA         77.3550   51.0520    7.8460 C.3       8 GLP5        0.0000 
     28 CA         82.6105   47.6855    9.4705 C.3       4 GLC5        0.0000 
     29 CA         82.2500   49.3730   10.2270 C.3      12 GLL5        0.0000 
     30 CA         82.9710   45.9980    8.7140 C.3       8 GLP5        0.0000 
     31 O          84.8135   48.5080   12.9205 O.2       1 ALC1        0.0000 
     32 O          83.9700   48.4840   11.8150 O.2       9 ALL1        0.0000 
     33 O          85.6570   48.5320   14.0260 O.2       5 ALP1        0.0000 
     34 CA         83.9265   51.3005   13.4315 C.3       4 GLC5        0.0000 
     35 CA         83.7100   50.8870   11.2370 C.3      12 GLL5        0.0000 
     36 CA         84.1430   51.7140   15.6260 C.3       8 GLP5        0.0000 
     37 CA         83.7095   52.9025   11.5860 C.3       4 GLC5        0.0000 
     38 CA         83.7090   54.9180   11.9350 C.3       8 GLP5        0.0000 
     39 O          84.2875   51.6450   13.2370 O.2       1 ALC1        0.0000 
     40 O          84.8510   51.1010   12.0730 O.2       9 ALL1        0.0000 
     41 O          83.7240   52.1890   14.4010 O.2       5 ALP1        0.0000 
     42 CA         84.7310   50.0105    8.2055 C.3       4 GLC5        0.0000 
     43 CA         84.0580   50.7420    9.7600 C.3      12 GLL5        0.0000 
     44 CA         85.4040   49.2790    6.6510 C.3       8 GLP5        0.0000 
     45 CA         82.6605   54.5090    8.7515 C.3       4 GLC5        0.0000 
     46 CA         84.5610   53.8260    7.9340 C.3      12 GLL5        0.0000 
     47 CA         80.7600   55.1920    9.5690 C.3       8 GLP5        0.0000 
     48 O          85.8090   56.1495    5.6075 O.2       1 ALC1        0.0000 
     49 O          85.0920   55.8870    6.6840 O.2       9 ALL1        0.0000 
     50 O          86.5260   56.4120    4.5310 O.2       5 ALP1        0.0000 
     51 O          83.7365   55.6220    6.4215 O.2       1 ALC1        0.0000 
     52 O          82.3810   55.3570    6.1590 O.2       5 ALP1        0.0000 
     53 N          87.8095   55.2585    6.8230 N.am      2 SEC2        0.0000 
     54 N          86.7880   54.5710    7.5930 N.am     10 SEL2        0.0000 
     55 N          88.8310   55.9460    6.0530 N.am      6 SEP2        0.0000 
     56 CA         88.2300   52.5080    9.6630 C.3       4 GLC5        0.0000 
     57 CA         87.2200   53.4630    8.2940 C.3      12 GLL5        0.0000 
     58 CA         89.2400   51.5530   11.0320 C.3       8 GLP5        0.0000 
     59 CA         87.4450   54.0530   10.0200 C.3       4 GLC5        0.0000 
     60 CA         87.6700   54.6430   11.7460 C.3       8 GLP5        0.0000 
     61 CA         88.4155   54.9880    8.2775 C.3       4 GLC5        0.0000 
     62 CA         89.6110   56.5130    8.2610 C.3       8 GLP5        0.0000 
     63 CA         86.6080   52.3865    6.7900 C.3       4 GLC5        0.0000 
     64 CA         85.9960   51.3100    5.2860 C.3       8 GLP5        0.0000 
     65 N          87.1730   51.8865    9.9390 N.am      2 SEC2        0.0000 
     66 N          86.4500   52.4990    8.8510 N.am     10 SEL2        0.0000 
     67 N          87.8960   51.2740   11.0270 N.am      6 SEP2        0.0000 
     68 CA         86.3890   53.6960   10.1855 C.3       4 GLC5        0.0000 
     69 CA         85.1080   52.7490    8.6250 C.3      12 GLL5        0.0000 
     70 CA         85.5520   52.0295    6.9555 C.3       4 GLC5        0.0000 
     71 CA         81.4690   49.5035    8.2590 C.3       4 GLC5        0.0000 
     72 CA         81.3740   49.3020    6.3580 C.3       8 GLP5        0.0000 
     73 CA         85.4477   55.8328    8.6680 C.3       4 GLC5        0.0000 
     74 CA         85.8860   57.3660    9.6690 C.3       8 GLP5        0.0000 
     75 CA         84.2717   54.1028   10.1073 C.3       4 GLC5        0.0000 
     76 CA         84.9032   53.1457    6.2405 C.3       4 GLC5        0.0000 
     77 CA         84.7970   51.9920    4.8140 C.3       8 GLP5        0.0000 
@<TRIPOS>BOND
@<TRIPOS>SUBSTRUCTURE
     1 ALC1       31 GROUP        1 X    ALC  0     ROOT ALC X 1
     2 SEC2        4 GROUP        1 X    SEC  0     **** SEC X 2
     3 LYC4        1 GROUP        1 X    LYC  0     **** LYC X 4
     4 GLC5       25 GROUP        1 X    GLC  0     **** GLC X 6
     5 ALP1       33 GROUP        1 Y    ALP  0     ROOT ALP Y 8
     6 SEP2        6 GROUP        1 Y    SEP  0     **** SEP Y 9
     7 LYP4        3 GROUP        1 Y    LYP  0     **** LYP Y 11
     8 GLP5       27 GROUP        1 Y    GLP  0     **** GLP Y 13
     9 ALL1       32 GROUP        1 Z    ALL  0     ROOT ALL Z 15
    10 SEL2        5 GROUP        1 Z    SEL  0     **** SEL Z 16
    11 LYL4        2 GROUP        1 Z    LYL  0     **** LYL Z 18
    12 GLL5       26 GROUP        1 Z    GLL  0     **** GLL Z 20
@<TRIPOS>SET

