#    Name: 2xsz_ATP_6_ligand
#    Modification time : Tue Mar 25 06:35:41 2014

@<TRIPOS>MOLECULE
2xsz_ATP_6_ligand
   43    45     1     0     0
SMALL
NO_CHARGES


@<TRIPOS>ATOM
      1 PG         75.6910   51.0330   12.3820 P.3       1 ATP501      0.0000 
      2 O1G        74.1400   51.2570   12.5740 O.co2     1 ATP501      0.0000 
      3 O2G        75.9930   49.5060   12.0950 O.co2     1 ATP501      0.0000 
      4 O3G        76.4610   51.4170   13.6880 O.co2     1 ATP501      0.0000 
      5 PB         77.3280   53.1020   11.0990 P.3       1 ATP501      0.0000 
      6 O1B        76.9320   54.0910   10.0190 O.co2     1 ATP501      0.0000 
      7 O2B        77.5170   53.8110   12.4390 O.co2     1 ATP501      0.0000 
      8 O3B        76.1980   52.0190   11.1780 O.3       1 ATP501      0.0000 
      9 PA         79.8940   51.9580   11.4510 P.3       1 ATP501      0.0000 
     10 O1A        79.5690   50.8610   12.4940 O.co2     1 ATP501      0.0000 
     11 O2A        80.4640   53.2310   12.1090 O.co2     1 ATP501      0.0000 
     12 O3A        78.6320   52.3760   10.6460 O.3       1 ATP501      0.0000 
     13 O5'        80.9560   51.3740   10.4340 O.3       1 ATP501      0.0000 
     14 C5'        80.8780   50.0370   10.0930 C.3       1 ATP501      0.0000 
     15 C4'        82.2500   49.3730   10.2270 C.3       1 ATP501      0.0000 
     16 O4'        83.0950   49.8360    9.1870 O.3       1 ATP501      0.0000 
     17 C3'        83.0560   49.5570   11.5190 C.3       1 ATP501      0.0000 
     18 O3'        83.9700   48.4840   11.8150 O.3       1 ATP501      0.0000 
     19 C2'        83.7100   50.8870   11.2370 C.3       1 ATP501      0.0000 
     20 O2'        84.8510   51.1010   12.0730 O.3       1 ATP501      0.0000 
     21 C1'        84.0580   50.7420    9.7600 C.3       1 ATP501      0.0000 
     22 N9         84.0030   51.9910    9.0130 N.pl3     1 ATP501      0.0000 
     23 C8         82.9040   52.6130    8.5510 C.2       1 ATP501      0.0000 
     24 N7         83.2040   53.7060    7.9140 N.2       1 ATP501      0.0000 
     25 C5         84.5610   53.8260    7.9340 C.ar      1 ATP501      0.0000 
     26 C6         85.4580   54.7730    7.4000 C.ar      1 ATP501      0.0000 
     27 N6         85.0920   55.8870    6.6840 N.pl3     1 ATP501      0.0000 
     28 N1         86.7880   54.5710    7.5930 N.ar      1 ATP501      0.0000 
     29 C2         87.2200   53.4630    8.2940 C.ar      1 ATP501      0.0000 
     30 N3         86.4500   52.4990    8.8510 N.ar      1 ATP501      0.0000 
     31 C4         85.1080   52.7490    8.6250 C.ar      1 ATP501      0.0000 
     32 H          80.5454   49.8787    9.0517 H         1 ATP501      0.0000 
     33 H          80.1829   49.4699   10.7374 H         1 ATP501      0.0000 
     34 H          82.1152   48.2791   10.0856 H         1 ATP501      0.0000 
     35 H          82.3265   49.7270   12.3052 H         1 ATP501      0.0000 
     36 H          82.9621   51.6423   11.3225 H         1 ATP501      0.0000 
     37 H          85.0443   50.3010    9.6899 H         1 ATP501      0.0000 
     38 H          81.9829   52.2596    8.6924 H         1 ATP501      0.0000 
     39 H          84.1114   56.0087    6.5302 H         1 ATP501      0.0000 
     40 H          85.8382   56.4788    6.3791 H         1 ATP501      0.0000 
     41 H          88.2952   53.3630    8.4051 H         1 ATP501      0.0000 
     42 H          84.7479   48.9234   12.2642 H         1 ATP501      0.0000 
     43 H          84.6143   51.8927   12.6362 H         1 ATP501      0.0000 
@<TRIPOS>BOND
     1    2    1 ar   
     2    3    1 ar   
     3    4    1 ar   
     4    8    1 1    
     5    6    5 ar   
     6    7    5 ar   
     7    8    5 1    
     8   12    5 1    
     9   10    9 ar   
    10   11    9 ar   
    11   12    9 1    
    12   13    9 1    
    13   14   13 1    
    14   15   14 1    
    15   32   14 1    
    16   33   14 1    
    17   16   15 1    
    18   17   15 1    
    19   34   15 1    
    20   21   16 1    
    21   18   17 1    
    22   19   17 1    
    23   35   17 1    
    24   42   18 1    
    25   20   19 1    
    26   21   19 1    
    27   36   19 1    
    28   43   20 1    
    29   22   21 1    
    30   37   21 1    
    31   23   22 1    
    32   31   22 1    
    33   24   23 2    
    34   38   23 1    
    35   25   24 1    
    36   26   25 ar   
    37   31   25 ar   
    38   27   26 1    
    39   28   26 ar   
    40   39   27 1    
    41   40   27 1    
    42   29   28 ar   
    43   30   29 ar   
    44   41   29 1    
    45   31   30 ar   
@<TRIPOS>SUBSTRUCTURE
     1 ATP501      1 GROUP   
@<TRIPOS>SET

