#    Name: 2x3n_FAD_1_INTS_M
#    Modification time : Tue Mar 25 05:04:17 2014

@<TRIPOS>MOLECULE
2x3n_FAD_1_INTS_M
  102     0     9     0     0
SMALL
NO_CHARGES


@<TRIPOS>ATOM
      1 CA         22.8970   35.9255   27.6175 C.3       3 GLC5        0.0000 
      2 CA         24.6990   35.9780   26.7610 C.3       9 GLL5        0.0000 
      3 CA         21.0950   35.8730   28.4740 C.3       6 GLP5        0.0000 
      4 CA         27.2260   36.2940   28.5665 C.3       3 GLC5        0.0000 
      5 CA         26.1440   35.5870   26.9980 C.3       9 GLL5        0.0000 
      6 CA         28.3080   37.0010   30.1350 C.3       6 GLP5        0.0000 
      7 O          28.8410   34.9235   26.2830 O.2       1 ALC1        0.0000 
      8 O          27.8260   34.7820   25.4870 O.2       7 ALL1        0.0000 
      9 O          29.8560   35.0650   27.0790 O.2       4 ALP1        0.0000 
     10 O          28.9400   33.8345   26.2075 O.2       1 ALC1        0.0000 
     11 O          30.0540   32.8870   26.9280 O.2       4 ALP1        0.0000 
     12 O          28.8265   32.5890   26.7020 O.2       1 ALC1        0.0000 
     13 O          27.5990   32.2910   26.4760 O.2       7 ALL1        0.0000 
     14 CA         27.6615   35.4240   29.1925 C.3       3 GLC5        0.0000 
     15 CA         27.0150   33.8470   28.2500 C.3       9 GLL5        0.0000 
     16 CA         28.7490   30.7850   31.3840 C.3       3 GLC5        0.0000 
     17 CA         27.2460   31.7500   32.6170 C.3       9 GLL5        0.0000 
     18 CA         30.2520   29.8200   30.1510 C.3       6 GLP5        0.0000 
     19 CA         25.7170   31.9025   34.2565 C.3       3 GLC5        0.0000 
     20 CA         24.1880   32.0550   35.8960 C.3       6 GLP5        0.0000 
     21 CA         30.7095   33.5395   30.8345 C.3       3 GLC5        0.0000 
     22 CA         29.1940   32.8240   31.9410 C.3       9 GLL5        0.0000 
     23 CA         32.2250   34.2550   29.7280 C.3       6 GLP5        0.0000 
     24 CA         29.7230   31.3220   31.0460 C.3       3 GLC5        0.0000 
     25 N          30.0520   32.5690   30.2485 N.am      2 SEC2        0.0000 
     26 N          28.6500   33.1910   30.7800 N.am      8 SEL2        0.0000 
     27 N          31.4540   31.9470   29.7170 N.am      5 SEP2        0.0000 
     28 CA         27.8430   34.9285   30.3150 C.3       3 GLC5        0.0000 
     29 CA         27.3780   32.8560   30.4950 C.3       9 GLL5        0.0000 
     30 N          15.0980   40.6330   19.1585 N.am      2 SEC2        0.0000 
     31 N          14.4000   39.5820   18.4400 N.am      8 SEL2        0.0000 
     32 N          15.7960   41.6840   19.8770 N.am      5 SEP2        0.0000 
     33 O          13.3395   38.5370   16.0215 O.2       1 ALC1        0.0000 
     34 O          14.8250   38.4670   16.4900 O.2       7 ALL1        0.0000 
     35 O          11.8540   38.6070   15.5530 O.2       4 ALP1        0.0000 
     36 CA         18.8325   36.9755   16.3440 C.3       3 GLC5        0.0000 
     37 CA         18.0670   34.9450   16.6880 C.3       9 GLL5        0.0000 
     38 CA         19.5980   39.0060   16.0000 C.3       6 GLP5        0.0000 
     39 CA         18.1925   33.0265   14.1385 C.3       3 GLC5        0.0000 
     40 CA         18.5640   33.7960   16.0970 C.3       9 GLL5        0.0000 
     41 CA         17.8210   32.2570   12.1800 C.3       6 GLP5        0.0000 
     42 CA         21.6885   31.9295   15.4985 C.3       3 GLC5        0.0000 
     43 CA         19.7940   31.6230   16.1580 C.3       9 GLL5        0.0000 
     44 CA         23.5830   32.2360   14.8390 C.3       6 GLP5        0.0000 
     45 CA         18.8075   31.9400   14.1690 C.3       3 GLC5        0.0000 
     46 CA         19.6555   29.9350   14.7400 C.3       3 GLC5        0.0000 
     47 CA         19.5170   28.2470   13.3220 C.3       6 GLP5        0.0000 
     48 CA         18.3965   31.9600   19.5055 C.3       3 GLC5        0.0000 
     49 CA         20.2610   32.1080   19.1070 C.3       9 GLL5        0.0000 
     50 CA         16.5320   31.8120   19.9040 C.3       6 GLP5        0.0000 
     51 N          20.3005   37.6090   18.1485 N.am      2 SEC2        0.0000 
     52 N          20.1980   37.2320   19.6170 N.am      8 SEL2        0.0000 
     53 N          20.4030   37.9860   16.6800 N.am      5 SEP2        0.0000 
     54 O          17.5370   38.6625   23.6140 O.2       1 ALC1        0.0000 
     55 O          18.0180   38.5700   22.2240 O.2       7 ALL1        0.0000 
     56 O          17.0560   38.7550   25.0040 O.2       4 ALP1        0.0000 
     57 O          18.0395   37.7240   23.3615 O.2       1 ALC1        0.0000 
     58 O          18.0610   36.8780   24.4990 O.2       4 ALP1        0.0000 
     59 CA         22.1850   40.2195   21.9865 C.3       3 GLC5        0.0000 
     60 CA         20.4050   38.8480   22.0500 C.3       9 GLL5        0.0000 
     61 CA         23.9650   41.5910   21.9230 C.3       6 GLP5        0.0000 
     62 CA         20.2410   40.7085   21.1395 C.3       3 GLC5        0.0000 
     63 CA         20.0770   42.5690   20.2290 C.3       6 GLP5        0.0000 
     64 CA         19.2545   38.3670   25.1640 C.3       3 GLC5        0.0000 
     65 CA         20.3710   39.1930   23.5490 C.3       9 GLL5        0.0000 
     66 CA         18.1380   37.5410   26.7790 C.3       6 GLP5        0.0000 
     67 CA         20.6705   41.1810   24.0735 C.3       3 GLC5        0.0000 
     68 CA         20.9700   43.1690   24.5980 C.3       6 GLP5        0.0000 
     69 N          19.8595   39.8485   27.0425 N.am      2 SEC2        0.0000 
     70 N          21.1670   39.8730   26.4580 N.am      8 SEL2        0.0000 
     71 N          18.5520   39.8240   27.6270 N.am      5 SEP2        0.0000 
     72 N          24.3525   41.2835   25.1195 N.am      2 SEC2        0.0000 
     73 N          23.5110   40.1780   25.4870 N.am      8 SEL2        0.0000 
     74 N          25.1940   42.3890   24.7520 N.am      5 SEP2        0.0000 
     75 CA         24.7657   36.0083   28.8042 C.3       3 GLC5        0.0000 
     76 CA         24.1100   36.2340   30.7290 C.3       6 GLP5        0.0000 
     77 CA         26.6396   36.7961   25.5549 C.3       3 GLC5        0.0000 
     78 CA         27.2990   38.4700   24.6550 C.3       6 GLP5        0.0000 
     79 CA         28.0778   31.2148   30.0175 C.3       3 GLC5        0.0000 
     80 CA         29.1470   29.9390   29.0810 C.3       6 GLP5        0.0000 
     81 CA         25.8073   33.9728   31.4605 C.3       3 GLC5        0.0000 
     82 CA         24.6060   35.4550   31.9670 C.3       6 GLP5        0.0000 
     83 CA         20.0043   35.1688   16.6167 C.3       3 GLC5        0.0000 
     84 CA         21.6930   35.9670   16.8410 C.3       6 GLP5        0.0000 
     85 CA         17.0968   32.8438   15.7770 C.3       3 GLC5        0.0000 
     86 CA         15.2740   32.3490   15.0730 C.3       6 GLP5        0.0000 
     87 CA         20.5328   34.4808   17.1938 C.3       3 GLC5        0.0000 
     88 CA         19.2750   32.8810   16.8650 C.3       9 GLL5        0.0000 
     89 CA         17.9522   32.4032   18.7253 C.3       3 GLC5        0.0000 
     90 CA         19.4700   33.1080   18.2280 C.3       9 GLL5        0.0000 
     91 CA         20.1595   35.3533   17.6348 C.3       3 GLC5        0.0000 
     92 CA         18.9770   34.2730   18.8140 C.3       9 GLL5        0.0000 
     93 CA         16.7415   34.1271   17.6829 C.3       3 GLC5        0.0000 
     94 CA         14.9090   33.5800   17.2760 C.3       6 GLP5        0.0000 
     95 CA         17.5790   33.2758   19.1663 C.3       3 GLC5        0.0000 
     96 CA         18.2750   35.2060   18.0430 C.3       9 GLL5        0.0000 
     97 CA         18.6898   38.5847   18.5580 C.3       3 GLC5        0.0000 
     98 CA         17.9390   36.7510   20.0180 C.3       9 GLL5        0.0000 
     99 CA         18.9030   39.8920   17.0190 C.3       6 GLP5        0.0000 
    100 CA         17.8652   39.4888   20.9440 C.3       3 GLC5        0.0000 
    101 CA         19.0140   37.8040   20.1760 C.3       9 GLL5        0.0000 
    102 CA         16.6210   41.0850   20.9530 C.3       6 GLP5        0.0000 
@<TRIPOS>BOND
@<TRIPOS>SUBSTRUCTURE
     1 ALC1        7 GROUP        1 X    ALC  0     ROOT ALC X 1
     2 SEC2       25 GROUP        1 X    SEC  0     **** SEC X 2
     3 GLC5        1 GROUP        1 X    GLC  0     **** GLC X 6
     4 ALP1        9 GROUP        1 Y    ALP  0     ROOT ALP Y 8
     5 SEP2       27 GROUP        1 Y    SEP  0     **** SEP Y 9
     6 GLP5        3 GROUP        1 Y    GLP  0     **** GLP Y 13
     7 ALL1        8 GROUP        1 Z    ALL  0     ROOT ALL Z 15
     8 SEL2       26 GROUP        1 Z    SEL  0     **** SEL Z 16
     9 GLL5        2 GROUP        1 Z    GLL  0     **** GLL Z 20
@<TRIPOS>SET

