#    Name: 2x3n_FAD_1_ligand
#    Modification time : Tue Mar 25 05:04:17 2014

@<TRIPOS>MOLECULE
2x3n_FAD_1_ligand
   84    89     1     0     0
SMALL
NO_CHARGES


@<TRIPOS>ATOM
      1 PA         23.2340   36.8180   24.7380 P.3       1 FAD1371     0.0000 
      2 O1A        23.5790   37.4490   23.3170 O.co2     1 FAD1371     0.0000 
      3 O2A        22.4590   35.5340   24.7930 O.co2     1 FAD1371     0.0000 
      4 O5B        24.6150   36.7390   25.5210 O.3       1 FAD1371     0.0000 
      5 C5B        24.6990   35.9780   26.7610 C.3       1 FAD1371     0.0000 
      6 C4B        26.1440   35.5870   26.9980 C.3       1 FAD1371     0.0000 
      7 O4B        26.2210   35.0420   28.3260 O.3       1 FAD1371     0.0000 
      8 C3B        26.5390   34.4620   26.0300 C.3       1 FAD1371     0.0000 
      9 O3B        27.8260   34.7820   25.4870 O.3       1 FAD1371     0.0000 
     10 C2B        26.6050   33.2170   26.9260 C.3       1 FAD1371     0.0000 
     11 O2B        27.5990   32.2910   26.4760 O.3       1 FAD1371     0.0000 
     12 C1B        27.0150   33.8470   28.2500 C.3       1 FAD1371     0.0000 
     13 N9A        26.5960   33.0850   29.4480 N.pl3     1 FAD1371     0.0000 
     14 C8A        25.3940   32.5290   29.6780 C.2       1 FAD1371     0.0000 
     15 N7A        25.4300   31.9340   30.8820 N.2       1 FAD1371     0.0000 
     16 C5A        26.6390   32.1250   31.4130 C.ar      1 FAD1371     0.0000 
     17 C6A        27.2460   31.7500   32.6170 C.ar      1 FAD1371     0.0000 
     18 N6A        26.5820   31.0380   33.5390 N.pl3     1 FAD1371     0.0000 
     19 N1A        28.5140   32.1130   32.8400 N.ar      1 FAD1371     0.0000 
     20 C2A        29.1940   32.8240   31.9410 C.ar      1 FAD1371     0.0000 
     21 N3A        28.6500   33.1910   30.7800 N.ar      1 FAD1371     0.0000 
     22 C4A        27.3780   32.8560   30.4950 C.ar      1 FAD1371     0.0000 
     23 N1         16.0430   38.0480   18.5530 N.2       1 FAD1371     0.0000 
     24 C2         15.0600   38.7410   17.8560 C.2       1 FAD1371     0.0000 
     25 O2         14.4000   39.5820   18.4400 O.2       1 FAD1371     0.0000 
     26 N3         14.8250   38.4670   16.4900 N.am      1 FAD1371     0.0000 
     27 C4         15.5650   37.4820   15.8330 C.2       1 FAD1371     0.0000 
     28 O4         15.3460   37.2410   14.6420 O.2       1 FAD1371     0.0000 
     29 C4X        16.5580   36.8020   16.5390 C.2       1 FAD1371     0.0000 
     30 N5         17.3420   35.8380   15.9050 N.2       1 FAD1371     0.0000 
     31 C5X        18.0670   34.9450   16.6880 C.ar      1 FAD1371     0.0000 
     32 C6         18.5640   33.7960   16.0970 C.ar      1 FAD1371     0.0000 
     33 C7         19.2750   32.8810   16.8650 C.ar      1 FAD1371     0.0000 
     34 C7M        19.7940   31.6230   16.1580 C.3       1 FAD1371     0.0000 
     35 C8         19.4700   33.1080   18.2280 C.ar      1 FAD1371     0.0000 
     36 C8M        20.2610   32.1080   19.1070 C.3       1 FAD1371     0.0000 
     37 C9         18.9770   34.2730   18.8140 C.ar      1 FAD1371     0.0000 
     38 C9A        18.2750   35.2060   18.0430 C.ar      1 FAD1371     0.0000 
     39 N10        17.7240   36.3730   18.6000 N.pl3     1 FAD1371     0.0000 
     40 C10        16.7830   37.0830   17.8850 C.2       1 FAD1371     0.0000 
     41 C1'        17.9390   36.7510   20.0180 C.3       1 FAD1371     0.0000 
     42 C2'        19.0140   37.8040   20.1760 C.3       1 FAD1371     0.0000 
     43 O2'        20.1980   37.2320   19.6170 O.3       1 FAD1371     0.0000 
     44 C3'        19.2050   37.9810   21.6940 C.3       1 FAD1371     0.0000 
     45 O3'        18.0180   38.5700   22.2240 O.3       1 FAD1371     0.0000 
     46 C4'        20.4050   38.8480   22.0500 C.3       1 FAD1371     0.0000 
     47 O4'        21.6530   38.1810   21.7000 O.3       1 FAD1371     0.0000 
     48 C5'        20.3710   39.1930   23.5490 C.3       1 FAD1371     0.0000 
     49 O5'        21.6400   39.6740   23.9360 O.3       1 FAD1371     0.0000 
     50 P          22.2080   39.4510   25.4180 P.3       1 FAD1371     0.0000 
     51 O1P        21.1670   39.8730   26.4580 O.co2     1 FAD1371     0.0000 
     52 O2P        23.5110   40.1780   25.4870 O.co2     1 FAD1371     0.0000 
     53 O3P        22.3780   37.8750   25.5990 O.3       1 FAD1371     0.0000 
     54 H          24.0980   35.0706   26.7034 H         1 FAD1371     0.0000 
     55 H          24.3561   36.5725   27.6076 H         1 FAD1371     0.0000 
     56 H          26.7742   36.4084   26.8649 H         1 FAD1371     0.0000 
     57 H          25.7843   34.3472   25.3227 H         1 FAD1371     0.0000 
     58 H          25.6406   32.8265   27.0249 H         1 FAD1371     0.0000 
     59 H          28.0288   34.0741   28.2588 H         1 FAD1371     0.0000 
     60 H          24.6350   32.5533   29.0801 H         1 FAD1371     0.0000 
     61 H          27.0735   30.8530   34.3900 H         1 FAD1371     0.0000 
     62 H          25.6547   30.7557   33.2931 H         1 FAD1371     0.0000 
     63 H          30.1927   33.1052   32.1538 H         1 FAD1371     0.0000 
     64 H          14.1068   38.9974   15.9858 H         1 FAD1371     0.0000 
     65 H          18.4098   33.6183   15.0977 H         1 FAD1371     0.0000 
     66 H          19.1285   34.4491   19.8151 H         1 FAD1371     0.0000 
     67 H          18.2249   35.8628   20.6041 H         1 FAD1371     0.0000 
     68 H          17.0012   37.1352   20.4504 H         1 FAD1371     0.0000 
     69 H          18.7191   38.6886   19.7428 H         1 FAD1371     0.0000 
     70 H          19.3546   36.9931   22.1229 H         1 FAD1371     0.0000 
     71 H          20.3137   39.7850   21.5002 H         1 FAD1371     0.0000 
     72 H          20.0876   38.2831   24.0859 H         1 FAD1371     0.0000 
     73 H          19.5808   39.9353   23.6942 H         1 FAD1371     0.0000 
     74 H          20.4202   31.8481   15.4115 H         1 FAD1371     0.0000 
     75 H          20.2896   31.0222   16.7852 H         1 FAD1371     0.0000 
     76 H          19.0493   31.0847   15.7636 H         1 FAD1371     0.0000 
     77 H          21.2003   31.9920   18.7841 H         1 FAD1371     0.0000 
     78 H          20.3134   32.4108   20.0586 H         1 FAD1371     0.0000 
     79 H          19.8383   31.2017   19.1107 H         1 FAD1371     0.0000 
     80 H          28.4369   34.8247   26.2775 H         1 FAD1371     0.0000 
     81 H          28.3701   32.4155   27.1005 H         1 FAD1371     0.0000 
     82 H          20.9240   37.4519   20.2686 H         1 FAD1371     0.0000 
     83 H          17.8564   38.0935   23.0882 H         1 FAD1371     0.0000 
     84 H          22.1318   38.0555   22.5689 H         1 FAD1371     0.0000 
@<TRIPOS>BOND
     1    2    1 ar   
     2    3    1 ar   
     3    4    1 1    
     4   53    1 1    
     5    5    4 1    
     6    6    5 1    
     7   54    5 1    
     8   55    5 1    
     9    7    6 1    
    10    8    6 1    
    11   56    6 1    
    12   12    7 1    
    13    9    8 1    
    14   10    8 1    
    15   57    8 1    
    16   80    9 1    
    17   11   10 1    
    18   12   10 1    
    19   58   10 1    
    20   81   11 1    
    21   13   12 1    
    22   59   12 1    
    23   14   13 1    
    24   22   13 1    
    25   15   14 2    
    26   60   14 1    
    27   16   15 1    
    28   17   16 ar   
    29   22   16 ar   
    30   18   17 1    
    31   19   17 ar   
    32   61   18 1    
    33   62   18 1    
    34   20   19 ar   
    35   21   20 ar   
    36   63   20 1    
    37   22   21 ar   
    38   24   23 1    
    39   40   23 2    
    40   25   24 2    
    41   26   24 am   
    42   27   26 am   
    43   64   26 1    
    44   28   27 2    
    45   29   27 1    
    46   30   29 2    
    47   40   29 1    
    48   31   30 1    
    49   32   31 ar   
    50   38   31 ar   
    51   33   32 ar   
    52   65   32 1    
    53   34   33 1    
    54   35   33 ar   
    55   74   34 1    
    56   75   34 1    
    57   76   34 1    
    58   36   35 1    
    59   37   35 ar   
    60   77   36 1    
    61   78   36 1    
    62   79   36 1    
    63   38   37 ar   
    64   66   37 1    
    65   39   38 1    
    66   40   39 1    
    67   41   39 1    
    68   42   41 1    
    69   67   41 1    
    70   68   41 1    
    71   43   42 1    
    72   44   42 1    
    73   69   42 1    
    74   82   43 1    
    75   45   44 1    
    76   46   44 1    
    77   70   44 1    
    78   83   45 1    
    79   47   46 1    
    80   48   46 1    
    81   71   46 1    
    82   84   47 1    
    83   49   48 1    
    84   72   48 1    
    85   73   48 1    
    86   50   49 1    
    87   51   50 ar   
    88   52   50 ar   
    89   53   50 1    
@<TRIPOS>SUBSTRUCTURE
     1 FAD1371     1 GROUP   
@<TRIPOS>SET

