#    Name: 1p84_DBT_1_INTS_M
#    Modification time : Mon Mar 24 21:11:05 2014

@<TRIPOS>MOLECULE
1p84_DBT_1_INTS_M
   48     0     3     0     0
SMALL
NO_CHARGES


@<TRIPOS>ATOM
      1 CA        -16.4440   34.1980  -18.9905 C.3       1 GLC5        0.0000 
      2 CA        -17.9870   34.9380  -17.5840 C.3       3 GLL5        0.0000 
      3 CA        -14.9010   33.4580  -20.3970 C.3       2 GLP5        0.0000 
      4 CA        -16.6770   28.8945  -16.5460 C.3       1 GLC5        0.0000 
      5 CA        -17.7660   30.4180  -16.9300 C.3       3 GLL5        0.0000 
      6 CA        -15.5880   27.3710  -16.1620 C.3       2 GLP5        0.0000 
      7 CA        -15.9470   31.0405  -15.9915 C.3       1 GLC5        0.0000 
      8 CA        -14.1280   31.6630  -15.0530 C.3       2 GLP5        0.0000 
      9 CA        -19.5285   30.7080  -17.3130 C.3       1 GLC5        0.0000 
     10 CA        -21.2910   30.9980  -17.6960 C.3       2 GLP5        0.0000 
     11 CA        -19.6745   36.0125  -18.6460 C.3       1 GLC5        0.0000 
     12 CA        -18.0460   36.4350  -17.6000 C.3       3 GLL5        0.0000 
     13 CA        -21.3030   35.5900  -19.6920 C.3       2 GLP5        0.0000 
     14 CA        -16.9815   39.8065  -19.9390 C.3       1 GLC5        0.0000 
     15 CA        -17.1620   38.5810  -18.3500 C.3       3 GLL5        0.0000 
     16 CA        -16.8010   41.0320  -21.5280 C.3       2 GLP5        0.0000 
     17 CA        -16.8830   39.2070  -15.4355 C.3       1 GLC5        0.0000 
     18 CA        -16.3730   39.3930  -17.3490 C.3       3 GLL5        0.0000 
     19 CA        -17.3930   39.0210  -13.5220 C.3       2 GLP5        0.0000 
     20 CA        -17.2320   41.1530  -15.5860 C.3       1 GLC5        0.0000 
     21 CA        -16.6070   40.8590  -17.5760 C.3       3 GLL5        0.0000 
     22 CA        -17.8570   41.4470  -13.5960 C.3       2 GLP5        0.0000 
     23 CA        -18.2375   41.8240  -18.0885 C.3       1 GLC5        0.0000 
     24 CA        -19.8680   42.7890  -18.6010 C.3       2 GLP5        0.0000 
     25 CA        -16.7040   40.9455  -19.5520 C.3       1 GLC5        0.0000 
     26 CA        -17.6885   43.6160  -17.6615 C.3       1 GLC5        0.0000 
     27 CA        -15.5190   43.1330  -17.4370 C.3       3 GLL5        0.0000 
     28 CA        -19.8580   44.0990  -17.8860 C.3       2 GLP5        0.0000 
     29 CA        -15.4210   45.0590  -17.7790 C.3       1 GLC5        0.0000 
     30 CA        -15.3230   46.9850  -18.1210 C.3       2 GLP5        0.0000 
     31 CA        -15.9473   35.8308  -17.2405 C.3       1 GLC5        0.0000 
     32 CA        -13.8780   35.9750  -16.8890 C.3       2 GLP5        0.0000 
     33 CA        -19.6848   35.1322  -16.7650 C.3       1 GLC5        0.0000 
     34 CA        -21.3530   34.5780  -15.9380 C.3       2 GLP5        0.0000 
     35 CA        -15.9695   32.0828  -15.8837 C.3       1 GLC5        0.0000 
     36 CA        -17.7600   32.8930  -16.1460 C.3       3 GLL5        0.0000 
     37 CA        -19.5510   31.7503  -17.2052 C.3       1 GLC5        0.0000 
     38 CA        -19.5820   33.5403  -16.3263 C.3       1 GLC5        0.0000 
     39 CA        -17.8620   32.1120  -17.2830 C.3       3 GLL5        0.0000 
     40 CA        -16.4535   31.1425  -18.5568 C.3       1 GLC5        0.0000 
     41 CA        -15.0930   31.0200  -20.0070 C.3       2 GLP5        0.0000 
     42 CA        -15.2838   37.2951  -17.3526 C.3       1 GLC5        0.0000 
     43 CA        -16.8500   37.0940  -18.2170 C.3       3 GLL5        0.0000 
     44 CA        -14.6720   42.8083  -15.5900 C.3       1 GLC5        0.0000 
     45 CA        -15.2850   41.6160  -17.4810 C.3       3 GLL5        0.0000 
     46 CA        -13.9420   43.2420  -13.7210 C.3       2 GLP5        0.0000 
     47 CA        -15.2320   41.8822  -19.4565 C.3       1 GLC5        0.0000 
     48 CA        -15.0620   41.3900  -21.4540 C.3       2 GLP5        0.0000 
@<TRIPOS>BOND
@<TRIPOS>SUBSTRUCTURE
     1 GLC5        1 GROUP        1 X    GLC  0     ROOT GLC X 6
     2 GLP5        3 GROUP        1 Y    GLP  0     ROOT GLP Y 13
     3 GLL5        2 GROUP        1 Z    GLL  0     ROOT GLL Z 20
@<TRIPOS>SET

