#    Name: 1p84_DBT_1_ligand
#    Modification time : Mon Mar 24 21:11:06 2014

@<TRIPOS>MOLECULE
1p84_DBT_1_ligand
   35    36     1     0     0
SMALL
NO_CHARGES


@<TRIPOS>ATOM
      1 O6        -18.2540   34.6980  -19.9450 O.co2     1 DBT705      0.0000 
      2 C6        -18.0920   34.1660  -18.6850 C.2       1 DBT705      0.0000 
      3 C5        -17.9870   34.9380  -17.5840 C.2       1 DBT705      0.0000 
      4 C4        -17.8070   34.3490  -16.2080 C.2       1 DBT705      0.0000 
      5 O4        -17.7160   35.0650  -15.2400 O.2       1 DBT705      0.0000 
      6 C4A       -17.7600   32.8930  -16.1460 C.2       1 DBT705      0.0000 
      7 C7A       -17.8620   32.1120  -17.2830 C.2       1 DBT705      0.0000 
      8 S1        -17.7660   30.4180  -16.9300 S.3       1 DBT705      0.0000 
      9 C2        -17.5930   30.8590  -15.2700 C.2       1 DBT705      0.0000 
     10 N3        -17.6010   32.1700  -14.9780 N.2       1 DBT705      0.0000 
     11 C7        -18.0340   32.6660  -18.5940 C.2       1 DBT705      0.0000 
     12 O7        -18.1350   32.0450  -19.6280 O.2       1 DBT705      0.0000 
     13 C8        -18.0460   36.4350  -17.6000 C.3       1 DBT705      0.0000 
     14 C9        -16.8500   37.0940  -18.2170 C.3       1 DBT705      0.0000 
     15 C10       -17.1620   38.5810  -18.3500 C.3       1 DBT705      0.0000 
     16 C11       -16.3730   39.3930  -17.3490 C.3       1 DBT705      0.0000 
     17 C12       -16.6070   40.8590  -17.5760 C.3       1 DBT705      0.0000 
     18 C13       -15.2850   41.6160  -17.4810 C.3       1 DBT705      0.0000 
     19 C14       -15.5190   43.1330  -17.4370 C.3       1 DBT705      0.0000 
     20 H         -17.5052   30.0677  -14.7090 H         1 DBT705      0.0000 
     21 H         -18.1676   36.8046  -16.5599 H         1 DBT705      0.0000 
     22 H         -18.9587   36.7565  -18.1448 H         1 DBT705      0.0000 
     23 H         -16.6611   36.6830  -19.1963 H         1 DBT705      0.0000 
     24 H         -15.9863   36.9688  -17.5829 H         1 DBT705      0.0000 
     25 H         -18.2303   38.7367  -18.1870 H         1 DBT705      0.0000 
     26 H         -16.9152   38.9075  -19.3622 H         1 DBT705      0.0000 
     27 H         -15.3118   39.1689  -17.4591 H         1 DBT705      0.0000 
     28 H         -16.6847   39.1231  -16.3398 H         1 DBT705      0.0000 
     29 H         -17.2913   41.2466  -16.8245 H         1 DBT705      0.0000 
     30 H         -17.0356   41.0182  -18.5630 H         1 DBT705      0.0000 
     31 H         -14.6682   41.3768  -18.3462 H         1 DBT705      0.0000 
     32 H         -14.7580   41.3117  -16.5777 H         1 DBT705      0.0000 
     33 H         -14.6591   43.6398  -17.3751 H         1 DBT705      0.0000 
     34 H         -15.9935   43.4595  -18.2545 H         1 DBT705      0.0000 
     35 H         -16.0742   43.4005  -16.6494 H         1 DBT705      0.0000 
@<TRIPOS>BOND
     1    2    1 ar   
     2    3    2 2    
     3   11    2 1    
     4    4    3 1    
     5   13    3 1    
     6    5    4 2    
     7    6    4 1    
     8    7    6 2    
     9   10    6 1    
    10    8    7 1    
    11   11    7 1    
    12    9    8 1    
    13   10    9 2    
    14   20    9 1    
    15   12   11 2    
    16   14   13 1    
    17   21   13 1    
    18   22   13 1    
    19   15   14 1    
    20   23   14 1    
    21   24   14 1    
    22   16   15 1    
    23   25   15 1    
    24   26   15 1    
    25   17   16 1    
    26   27   16 1    
    27   28   16 1    
    28   18   17 1    
    29   29   17 1    
    30   30   17 1    
    31   19   18 1    
    32   31   18 1    
    33   32   18 1    
    34   33   19 1    
    35   34   19 1    
    36   35   19 1    
@<TRIPOS>SUBSTRUCTURE
     1 DBT705      1 GROUP   
@<TRIPOS>SET

