#    Name: 3IU7_2_CAVITY_N1_6.mol2
#    Modification time : Tue Mar 11 03:52:00 2014

@<TRIPOS>MOLECULE
3IU7_2_CAVITY_N1_6.mol2
   59     0     5     0     0
SMALL
NO_CHARGES


@<TRIPOS>ATOM
      1 CA        -21.3134  -28.9193    9.9004 C.3       4 GLY6        0.0000 
      2 CA        -20.3207  -29.4876    8.9300 C.3       4 GLY6        0.0000 
      3 CA        -22.3210  -28.7942    8.7962 C.3       4 GLY6        0.0000 
      4 CA        -21.3283  -29.3625    7.8259 C.3       4 GLY6        0.0000 
      5 N         -22.8202  -30.1767    9.0953 N.2       2 ALA2        0.0000 
      6 DU        -21.8275  -30.7451    8.1249 H         5 CUB7        0.0000 
      7 O         -20.8348  -31.3134    7.1546 O.2       2 ALA2        0.0000 
      8 O         -19.8421  -31.8817    6.1843 O.2       2 ALA2        0.0000 
      9 O         -18.8494  -32.4501    5.2140 O.2       2 ALA2        0.0000 
     10 N         -23.3195  -31.5593    9.3943 N.2       2 ALA2        0.0000 
     11 N         -22.3268  -32.1276    8.4239 N.2       2 ALA2        0.0000 
     12 DU        -20.3413  -33.2643    6.4833 H         5 CUB7        0.0000 
     13 N         -23.8187  -32.9418    9.6933 N.2       2 ALA2        0.0000 
     14 DU        -22.8260  -33.5101    8.7230 H         5 CUB7        0.0000 
     15 DU        -20.8406  -34.6468    6.7823 H         5 CUB7        0.0000 
     16 N         -24.3179  -34.3243    9.9923 N.2       2 ALA2        0.0000 
     17 DU        -23.3252  -34.8926    9.0220 H         5 CUB7        0.0000 
     18 DU        -21.3398  -36.0293    7.0813 H         5 CUB7        0.0000 
     19 CA        -23.8245  -36.2751    9.3210 C.3       4 GLY6        0.0000 
     20 CA        -22.8317  -36.8435    8.3507 C.3       4 GLY6        0.0000 
     21 CA        -21.8390  -37.4118    7.3804 C.3       4 GLY6        0.0000 
     22 CA        -23.3286  -28.6692    7.6921 C.3       4 GLY6        0.0000 
     23 CZ        -22.3359  -29.2375    6.7218 C.ar      3 PHE5        0.0000 
     24 N         -23.8279  -30.0517    7.9911 N.2       2 ALA2        0.0000 
     25 CZ        -22.8351  -30.6200    7.0208 C.ar      3 PHE5        0.0000 
     26 CZ        -21.8424  -31.1884    6.0505 C.ar      3 PHE5        0.0000 
     27 CZ        -20.8497  -31.7567    5.0802 C.ar      3 PHE5        0.0000 
     28 N         -23.3344  -32.0025    7.3198 N.2       2 ALA2        0.0000 
     29 CA        -22.3417  -32.5709    6.3495 C.3       4 GLY6        0.0000 
     30 CA        -21.3490  -33.1392    5.3792 C.3       4 GLY6        0.0000 
     31 CA        -20.3562  -33.7075    4.4089 C.3       4 GLY6        0.0000 
     32 N         -23.8336  -33.3851    7.6189 N.2       2 ALA2        0.0000 
     33 DU        -22.8409  -33.9534    6.6485 H         5 CUB7        0.0000 
     34 CA        -21.8482  -34.5217    5.6782 C.3       4 GLY6        0.0000 
     35 CZ        -20.8555  -35.0901    4.7079 C.ar      3 PHE5        0.0000 
     36 N         -25.3256  -34.1992    8.8882 N.2       2 ALA2        0.0000 
     37 N         -24.3328  -34.7676    7.9179 N.2       2 ALA2        0.0000 
     38 DU        -23.3401  -35.3359    6.9475 H         5 CUB7        0.0000 
     39 DU        -22.3474  -35.9042    5.9772 H         5 CUB7        0.0000 
     40 CZ        -21.3547  -36.4726    5.0069 C.ar      3 PHE5        0.0000 
     41 N         -24.8321  -36.1501    8.2169 N.2       2 ALA2        0.0000 
     42 N         -23.8394  -36.7184    7.2466 N.2       2 ALA2        0.0000 
     43 CA        -22.8466  -37.2868    6.2762 C.3       4 GLY6        0.0000 
     44 N         -24.3386  -38.1009    7.5456 N.2       2 ALA2        0.0000 
     45 N         -24.8355  -29.9266    6.8870 N.2       2 ALA2        0.0000 
     46 CZ        -23.8428  -30.4950    5.9167 C.ar      3 PHE5        0.0000 
     47 CZ        -22.8501  -31.0633    4.9464 C.ar      3 PHE5        0.0000 
     48 N         -24.3420  -31.8775    6.2157 N.2       2 ALA2        0.0000 
     49 CA        -23.3493  -32.4458    5.2454 C.3       4 GLY6        0.0000 
     50 OG        -24.8412  -33.2600    6.5147 O.2       1 SER1        0.0000 
     51 CA        -23.8485  -33.8283    5.5444 C.3       4 GLY6        0.0000 
     52 CA        -22.8558  -34.3967    4.5741 C.3       4 GLY6        0.0000 
     53 OG        -25.3405  -34.6425    6.8138 O.2       1 SER1        0.0000 
     54 CA        -24.3477  -35.2109    5.8434 C.3       4 GLY6        0.0000 
     55 CA        -23.3550  -35.7792    4.8731 C.3       4 GLY6        0.0000 
     56 CZ        -22.3623  -36.3475    3.9028 C.ar      3 PHE5        0.0000 
     57 CA        -25.8397  -36.0250    7.1128 C.3       4 GLY6        0.0000 
     58 N         -24.8470  -36.5934    6.1424 N.2       2 ALA2        0.0000 
     59 O         -23.8543  -37.1617    5.1721 O.2       2 ALA2        0.0000 
@<TRIPOS>BOND
@<TRIPOS>SUBSTRUCTURE
     1 SER1       50 GROUP   
     2 ALA2        5 GROUP   
     3 PHE5       23 GROUP   
     4 GLY6        1 GROUP   
     5 CUB7        6 GROUP   
@<TRIPOS>SET

