#    Name: 3iu7_FCD_2_INTS_M
#    Modification time : Tue Mar 25 17:26:31 2014

@<TRIPOS>MOLECULE
3iu7_FCD_2_INTS_M
   33     0     3     0     0
SMALL
NO_CHARGES


@<TRIPOS>ATOM
      1 CA        -21.2335  -27.8005   10.1925 C.3       1 GLC5        0.0000 
      2 CA        -20.2680  -29.4940    9.9300 C.3       3 GLL5        0.0000 
      3 CA        -22.1990  -26.1070   10.4550 C.3       2 GLP5        0.0000 
      4 CA        -26.5480  -29.2400    4.9665 C.3       1 GLC5        0.0000 
      5 CA        -24.9180  -30.0570    6.1550 C.3       3 GLL5        0.0000 
      6 CA        -28.1780  -28.4230    3.7780 C.3       2 GLP5        0.0000 
      7 CA        -21.6640  -27.6215    7.1745 C.3       1 GLC5        0.0000 
      8 CA        -23.8020  -28.0170    7.4700 C.3       3 GLL5        0.0000 
      9 CA        -19.5260  -27.2260    6.8790 C.3       2 GLP5        0.0000 
     10 CA        -24.8440  -26.5890    7.0345 C.3       1 GLC5        0.0000 
     11 CA        -25.8860  -25.1610    6.5990 C.3       2 GLP5        0.0000 
     12 CA        -23.8230  -27.6555    5.5535 C.3       1 GLC5        0.0000 
     13 CA        -23.8440  -27.2940    3.6370 C.3       2 GLP5        0.0000 
     14 CA        -25.2650  -28.9490    8.2430 C.3       1 GLC5        0.0000 
     15 CA        -26.7280  -29.8810    9.0160 C.3       2 GLP5        0.0000 
     16 CA        -19.2148  -29.1870    8.4690 C.3       1 GLC5        0.0000 
     17 CA        -18.3170  -28.2340    7.2370 C.3       2 GLP5        0.0000 
     18 CA        -20.5440  -28.5192    7.8355 C.3       1 GLC5        0.0000 
     19 CA        -21.4220  -29.2520    9.1930 C.3       3 GLL5        0.0000 
     20 CA        -22.5905  -28.5068    9.7485 C.3       1 GLC5        0.0000 
     21 CA        -23.6190  -27.2010   10.7050 C.3       2 GLP5        0.0000 
     22 CA        -25.0425  -30.0263    8.1190 C.3       1 GLC5        0.0000 
     23 CA        -22.8640  -30.6380    7.4360 C.3       3 GLL5        0.0000 
     24 CA        -25.0648  -33.4147    4.5628 C.3       1 GLC5        0.0000 
     25 CA        -24.1890  -32.3050    6.1110 C.3       3 GLL5        0.0000 
     26 CA        -25.5190  -35.0280    3.2470 C.3       2 GLP5        0.0000 
     27 CA        -23.4103  -32.0192    4.2962 C.3       1 GLC5        0.0000 
     28 CA        -25.0320  -31.2980    5.6460 C.3       3 GLL5        0.0000 
     29 CA        -22.4750  -32.3360    2.5080 C.3       2 GLP5        0.0000 
     30 CA        -25.8515  -30.2793    7.4582 C.3       1 GLC5        0.0000 
     31 CA        -24.1140  -28.5875    5.1092 C.3       1 GLC5        0.0000 
     32 CA        -23.7225  -28.0310    8.9720 C.3       1 GLC5        0.0000 
     33 CA        -23.8500  -29.7050    7.0080 C.3       3 GLL5        0.0000 
@<TRIPOS>BOND
@<TRIPOS>SUBSTRUCTURE
     1 GLC5        1 GROUP        1 X    GLC  0     ROOT GLC X 6
     2 GLP5        3 GROUP        1 Y    GLP  0     ROOT GLP Y 13
     3 GLL5        2 GROUP        1 Z    GLL  0     ROOT GLL Z 20
@<TRIPOS>SET

