#    Name: 3iu7_FCD_2_ligand
#    Modification time : Tue Mar 25 17:26:31 2014

@<TRIPOS>MOLECULE
3iu7_FCD_2_ligand
   21    22     1     0     0
SMALL
NO_CHARGES


@<TRIPOS>ATOM
      1 OA        -20.8100  -31.2270    8.6030 O.3       1 FCD289      0.0000 
      2 CA        -19.9570  -30.7860    9.4720 C.2       1 FCD289      0.0000 
      3 C         -18.8240  -31.7560    9.7800 C.2       1 FCD289      0.0000 
      4 OB        -18.0570  -32.2670    8.7980 O.co2     1 FCD289      0.0000 
      5 CB        -20.2680  -29.4940    9.9300 C.2       1 FCD289      0.0000 
      6 CG        -21.4220  -29.2520    9.1930 C.2       1 FCD289      0.0000 
      7 CD        -21.7020  -30.3730    8.3910 C.2       1 FCD289      0.0000 
      8 OXT       -18.5890  -32.0920   10.9460 O.co2     1 FCD289      0.0000 
      9 C1        -22.8640  -30.6380    7.4360 C.ar      1 FCD289      0.0000 
     10 C2        -23.1290  -31.9090    6.9350 C.ar      1 FCD289      0.0000 
     11 C3        -24.1890  -32.3050    6.1110 C.ar      1 FCD289      0.0000 
     12 C4        -25.0320  -31.2980    5.6460 C.ar      1 FCD289      0.0000 
     13 C5        -24.9180  -30.0570    6.1550 C.ar      1 FCD289      0.0000 
     14 C6        -23.8500  -29.7050    7.0080 C.ar      1 FCD289      0.0000 
     15 CL2       -23.8020  -28.0170    7.4700 Cl        1 FCD289      0.0000 
     16 H         -19.8408  -28.9840   10.5238 H         1 FCD289      0.0000 
     17 H         -21.9454  -28.4576    9.2204 H         1 FCD289      0.0000 
     18 H         -22.4316  -32.6892    7.2152 H         1 FCD289      0.0000 
     19 H         -24.3321  -33.2684    5.8688 H         1 FCD289      0.0000 
     20 H         -25.7280  -31.5223    4.9201 H         1 FCD289      0.0000 
     21 H         -25.6201  -29.3189    5.9309 H         1 FCD289      0.0000 
@<TRIPOS>BOND
     1    2    1 1    
     2    7    1 1    
     3    3    2 1    
     4    5    2 2    
     5    4    3 ar   
     6    8    3 ar   
     7    6    5 1    
     8   16    5 1    
     9    7    6 2    
    10   17    6 1    
    11    9    7 1    
    12   10    9 ar   
    13   14    9 ar   
    14   11   10 ar   
    15   18   10 1    
    16   12   11 ar   
    17   19   11 1    
    18   13   12 ar   
    19   20   12 1    
    20   14   13 ar   
    21   21   13 1    
    22   15   14 1    
@<TRIPOS>SUBSTRUCTURE
     1 FCD289      1 GROUP   
@<TRIPOS>SET

