#    Name: 1xtr_GNP_1_INTS_M
#    Modification time : Mon Apr  7 15:27:32 2014

@<TRIPOS>MOLECULE
1xtr_GNP_1_INTS_M
   72     0    15     0     0
SMALL
NO_CHARGES


@<TRIPOS>ATOM
      1 N          29.5230   94.0770   57.6995 N.am      2 SEC2        0.0000 
      2 N          30.5850   93.8500   58.4520 N.am     12 SEL2        0.0000 
      3 N          28.4610   94.3040   56.9470 N.am      7 SEP2        0.0000 
      4 Zn         31.3430   93.9585   61.9205 Zn        4 ZIC7        0.0000 
      5 Zn         31.3510   93.9470   60.6990 Zn       14 ZIL7        0.0000 
      6 Zn         31.3350   93.9700   63.1420 Zn        9 ZIP7        0.0000 
      7 N          31.6805   95.4920   60.6355 N.am      2 SEC2        0.0000 
      8 N          31.3510   93.9470   60.6990 N.am     12 SEL2        0.0000 
      9 N          32.0100   97.0370   60.5720 N.am      7 SEP2        0.0000 
     10 NZ         32.0020   90.7400   60.2600 N.4       3 LYC4        0.0000 
     11 NZ         31.7310   91.9600   59.5670 N.4      13 LYL4        0.0000 
     12 NZ         32.2730   89.5200   60.9530 N.4       8 LYP4        0.0000 
     13 N          32.0020   90.7400   60.2600 N.am      2 SEC2        0.0000 
     14 N          31.7310   91.9600   59.5670 N.am     12 SEL2        0.0000 
     15 N          32.2730   89.5200   60.9530 N.am      7 SEP2        0.0000 
     16 NZ         30.9755   89.8700   61.1405 N.4       3 LYC4        0.0000 
     17 NZ         29.6780   90.2200   61.3280 N.4      13 LYL4        0.0000 
     18 N          29.3065   89.7190   62.8410 N.am      2 SEC2        0.0000 
     19 N          29.6780   90.2200   61.3280 N.am     12 SEL2        0.0000 
     20 N          28.9350   89.2180   64.3540 N.am      7 SEP2        0.0000 
     21 N          28.3740   89.3860   61.8380 N.am      2 SEC2        0.0000 
     22 N          27.0700   88.5520   62.3480 N.am      7 SEP2        0.0000 
     23 N          30.9755   89.8700   61.1405 N.am      2 SEC2        0.0000 
     24 Zn         30.4325   93.0745   62.9415 Zn        4 ZIC7        0.0000 
     25 Zn         29.5300   92.1790   62.7410 Zn       14 ZIL7        0.0000 
     26 N          29.4475   91.8510   64.3070 N.am      2 SEC2        0.0000 
     27 N          29.5300   92.1790   62.7410 N.am     12 SEL2        0.0000 
     28 N          29.3650   91.5230   65.8730 N.am      7 SEP2        0.0000 
     29 N          27.2910   89.9960   61.9760 N.am      2 SEC2        0.0000 
     30 N          27.5120   91.4400   61.6040 N.am     12 SEL2        0.0000 
     31 N          26.6900   92.1405   65.3540 N.am      2 SEC2        0.0000 
     32 N          26.6430   92.0840   63.9300 N.am     12 SEL2        0.0000 
     33 N          26.7370   92.1970   66.7780 N.am      7 SEP2        0.0000 
     34 N          25.5180   92.1410   64.5635 N.am      2 SEC2        0.0000 
     35 N          24.3930   92.1980   65.1970 N.am      7 SEP2        0.0000 
     36 CA         25.8965   91.0615   59.5325 C.3       5 GLC5        0.0000 
     37 CA         24.6510   91.8560   60.6460 C.3      15 GLL5        0.0000 
     38 CA         27.1420   90.2670   58.4190 C.3      10 GLP5        0.0000 
     39 O          21.1030   95.0930   61.3100 O.2       1 ALC1        0.0000 
     40 O          21.3970   93.6180   60.7290 O.2      11 ALL1        0.0000 
     41 O          20.8090   96.5680   61.8910 O.2       6 ALP1        0.0000 
     42 CA         22.3840   88.8120   61.4240 C.3       5 GLC5        0.0000 
     43 CA         21.6620   90.7220   61.9950 C.3      15 GLL5        0.0000 
     44 CA         23.1060   86.9020   60.8530 C.3      10 GLP5        0.0000 
     45 N          23.7010   87.1025   64.5860 N.am      2 SEC2        0.0000 
     46 N          22.8470   88.2910   64.5340 N.am     12 SEL2        0.0000 
     47 N          24.5550   85.9140   64.6380 N.am      7 SEP2        0.0000 
     48 CA         21.8550   86.5125   63.3520 C.3       5 GLC5        0.0000 
     49 CA         21.4990   87.9190   64.3650 C.3      15 GLL5        0.0000 
     50 CA         22.2110   85.1060   62.3390 C.3      10 GLP5        0.0000 
     51 CA         22.2085   88.3305   66.0575 C.3       5 GLC5        0.0000 
     52 CA         22.9180   88.7420   67.7500 C.3      10 GLP5        0.0000 
     53 N          19.9840   85.5880   66.8530 N.am      2 SEC2        0.0000 
     54 N          21.0520   86.0410   65.8400 N.am     12 SEL2        0.0000 
     55 N          18.9160   85.1350   67.8660 N.am      7 SEP2        0.0000 
     56 N          21.4825   86.3220   67.0445 N.am      2 SEC2        0.0000 
     57 N          21.9130   86.6030   68.2490 N.am      7 SEP2        0.0000 
     58 O          18.0360   85.9995   64.3590 O.2       1 ALC1        0.0000 
     59 O          19.3880   86.8520   64.5280 O.2      11 ALL1        0.0000 
     60 O          16.6840   85.1470   64.1900 O.2       6 ALP1        0.0000 
     61 O          18.8050   85.8990   65.1340 O.2       1 ALC1        0.0000 
     62 O          18.2220   84.9460   65.7400 O.2       6 ALP1        0.0000 
     63 O          17.1120   86.3435   63.7255 O.2       1 ALC1        0.0000 
     64 O          17.5400   87.5400   63.2610 O.2      11 ALL1        0.0000 
     65 CA         21.9940   87.8235   62.1360 C.3       5 GLC5        0.0000 
     66 CA         20.8820   88.7450   63.4190 C.3      15 GLL5        0.0000 
     67 CA         24.3956   93.6509   60.0948 C.3       5 GLC5        0.0000 
     68 CA         23.1200   91.8790   60.5340 C.3      15 GLL5        0.0000 
     69 CA         25.6280   94.9010   59.1690 C.3      10 GLP5        0.0000 
     70 CA         20.5663   91.4720   63.9663 C.3       5 GLC5        0.0000 
     71 CA         21.9610   92.0800   62.6120 C.3      15 GLL5        0.0000 
     72 CA         19.3210   91.5430   65.6290 C.3      10 GLP5        0.0000 
@<TRIPOS>BOND
@<TRIPOS>SUBSTRUCTURE
     1 ALC1       39 GROUP        1 X    ALC  0     ROOT ALC X 1
     2 SEC2        1 GROUP        1 X    SEC  0     **** SEC X 2
     3 LYC4       10 GROUP        1 X    LYC  0     **** LYC X 4
     4 ZIC7        4 GROUP        1 X    ZIC  0     **** ZIC X 5
     5 GLC5       36 GROUP        1 X    GLC  0     **** GLC X 6
     6 ALP1       41 GROUP        1 Y    ALP  0     ROOT ALP Y 8
     7 SEP2        3 GROUP        1 Y    SEP  0     **** SEP Y 9
     8 LYP4       12 GROUP        1 Y    LYP  0     **** LYP Y 11
     9 ZIP7        6 GROUP        1 Y    ZIP  0     **** ZIP Y 12
    10 GLP5       38 GROUP        1 Y    GLP  0     **** GLP Y 13
    11 ALL1       40 GROUP        1 Z    ALL  0     ROOT ALL Z 15
    12 SEL2        2 GROUP        1 Z    SEL  0     **** SEL Z 16
    13 LYL4       11 GROUP        1 Z    LYL  0     **** LYL Z 18
    14 ZIL7        5 GROUP        1 Z    ZIL  0     **** ZIL Z 19
    15 GLL5       37 GROUP        1 Z    GLL  0     **** GLL Z 20
@<TRIPOS>SET

