#    Name: 1xtr_GNP_1_ligand
#    Modification time : Mon Apr  7 15:27:32 2014

@<TRIPOS>MOLECULE
1xtr_GNP_1_ligand
   44    46     1     0     0
SMALL
NO_CHARGES


@<TRIPOS>ATOM
      1 PG         30.7320   93.1040   59.7170 P.3       1 GNP179      0.0000 
      2 O1G        30.5850   93.8500   58.4520 O.co2     1 GNP179      0.0000 
      3 O2G        31.3510   93.9470   60.6990 O.co2     1 GNP179      0.0000 
      4 O3G        31.7310   91.9600   59.5670 O.co2     1 GNP179      0.0000 
      5 N3B        29.3330   92.4560   60.1610 N.4       1 GNP179      0.0000 
      6 PB         29.1090   91.5520   61.5080 P.3       1 GNP179      0.0000 
      7 O1B        29.6780   90.2200   61.3280 O.co2     1 GNP179      0.0000 
      8 O2B        29.5300   92.1790   62.7410 O.co2     1 GNP179      0.0000 
      9 O3A        27.5120   91.4400   61.6040 O.3       1 GNP179      0.0000 
     10 PA         26.4760   92.3750   62.4780 P.3       1 GNP179      0.0000 
     11 O1A        26.6430   92.0840   63.9300 O.co2     1 GNP179      0.0000 
     12 O2A        26.5710   93.7760   62.0420 O.co2     1 GNP179      0.0000 
     13 O5'        25.0820   91.7220   62.0400 O.3       1 GNP179      0.0000 
     14 C5'        24.6510   91.8560   60.6460 C.3       1 GNP179      0.0000 
     15 C4'        23.1200   91.8790   60.5340 C.3       1 GNP179      0.0000 
     16 O4'        22.5950   90.5790   60.9210 O.3       1 GNP179      0.0000 
     17 C3'        22.4410   92.9340   61.4510 C.3       1 GNP179      0.0000 
     18 O3'        21.3970   93.6180   60.7290 O.3       1 GNP179      0.0000 
     19 C2'        21.9610   92.0800   62.6120 C.3       1 GNP179      0.0000 
     20 O2'        20.7990   92.5920   63.2580 O.3       1 GNP179      0.0000 
     21 C1'        21.6620   90.7220   61.9950 C.3       1 GNP179      0.0000 
     22 N9         21.8520   89.6380   62.9990 N.pl3     1 GNP179      0.0000 
     23 C8         22.9940   89.2870   63.7220 C.2       1 GNP179      0.0000 
     24 N7         22.8470   88.2910   64.5340 N.2       1 GNP179      0.0000 
     25 C5         21.4990   87.9190   64.3650 C.2       1 GNP179      0.0000 
     26 C6         20.7090   86.8710   64.9900 C.2       1 GNP179      0.0000 
     27 O6         21.0520   86.0410   65.8400 O.2       1 GNP179      0.0000 
     28 N1         19.3880   86.8520   64.5280 N.am      1 GNP179      0.0000 
     29 C2         18.8390   87.7090   63.5810 C.2       1 GNP179      0.0000 
     30 N2         17.5400   87.5400   63.2610 N.pl3     1 GNP179      0.0000 
     31 N3         19.5680   88.6900   62.9890 N.2       1 GNP179      0.0000 
     32 C4         20.8820   88.7450   63.4190 C.2       1 GNP179      0.0000 
     33 H          25.0231   91.0197   60.0406 H         1 GNP179      0.0000 
     34 H          25.0376   92.7840   60.2057 H         1 GNP179      0.0000 
     35 H          22.8433   92.0959   59.5158 H         1 GNP179      0.0000 
     36 H          23.2173   93.5764   61.7972 H         1 GNP179      0.0000 
     37 H          22.7882   91.9438   63.2896 H         1 GNP179      0.0000 
     38 H          20.6588   90.7314   61.6362 H         1 GNP179      0.0000 
     39 H          23.8513   89.8075   63.5832 H         1 GNP179      0.0000 
     40 H          18.7429   86.1066   64.9450 H         1 GNP179      0.0000 
     41 H          17.1757   88.1543   62.5610 H         1 GNP179      0.0000 
     42 H          17.0565   86.8154   63.7522 H         1 GNP179      0.0000 
     43 H          21.3421   94.5235   61.1497 H         1 GNP179      0.0000 
     44 H          20.2485   92.9891   62.5237 H         1 GNP179      0.0000 
@<TRIPOS>BOND
     1    2    1 ar   
     2    3    1 ar   
     3    4    1 ar   
     4    5    1 1    
     5    6    5 1    
     6    7    6 ar   
     7    8    6 ar   
     8    9    6 1    
     9   10    9 1    
    10   11   10 ar   
    11   12   10 ar   
    12   13   10 1    
    13   14   13 1    
    14   15   14 1    
    15   33   14 1    
    16   34   14 1    
    17   16   15 1    
    18   17   15 1    
    19   35   15 1    
    20   21   16 1    
    21   18   17 1    
    22   19   17 1    
    23   36   17 1    
    24   43   18 1    
    25   20   19 1    
    26   21   19 1    
    27   37   19 1    
    28   44   20 1    
    29   22   21 1    
    30   38   21 1    
    31   23   22 1    
    32   32   22 1    
    33   24   23 2    
    34   39   23 1    
    35   25   24 1    
    36   26   25 1    
    37   32   25 2    
    38   27   26 2    
    39   28   26 am   
    40   29   28 1    
    41   40   28 1    
    42   30   29 1    
    43   31   29 2    
    44   41   30 1    
    45   42   30 1    
    46   32   31 1    
@<TRIPOS>SUBSTRUCTURE
     1 GNP179      1 GROUP   
@<TRIPOS>SET

