#    Name: 2g1y_5IG_2_INTS_M
#    Modification time : Tue Mar 25 13:25:47 2014

@<TRIPOS>MOLECULE
2g1y_5IG_2_INTS_M
   63     0     9     0     0
SMALL
NO_CHARGES


@<TRIPOS>ATOM
      1 CA        -20.6775   71.3400  121.2845 C.3       3 GLC5        0.0000 
      2 CA        -22.5230   71.2120  122.5060 C.3       9 GLL5        0.0000 
      3 CA        -18.8320   71.4680  120.0630 C.3       6 GLP5        0.0000 
      4 O         -22.5200   70.7315  120.3525 O.2       1 ALC1        0.0000 
      5 O         -23.0850   70.3170  121.7020 O.2       7 ALL1        0.0000 
      6 O         -21.9550   71.1460  119.0030 O.2       4 ALP1        0.0000 
      7 CA        -23.7155   74.5715  122.4425 C.3       3 GLC5        0.0000 
      8 CA        -21.8100   74.8240  122.2050 C.3       9 GLL5        0.0000 
      9 CA        -25.6210   74.3190  122.6800 C.3       6 GLP5        0.0000 
     10 CA        -22.1960   76.4855  121.5785 C.3       3 GLC5        0.0000 
     11 CA        -22.5820   78.1470  120.9520 C.3       6 GLP5        0.0000 
     12 CA        -14.8885   72.2725  125.1320 C.3       3 GLC5        0.0000 
     13 CA        -16.2720   73.9990  124.7270 C.3       9 GLL5        0.0000 
     14 CA        -13.5050   70.5460  125.5370 C.3       6 GLP5        0.0000 
     15 CA        -16.6020   76.0760  121.7620 C.3       3 GLC5        0.0000 
     16 CA        -15.9770   74.6780  123.3630 C.3       9 GLL5        0.0000 
     17 CA        -17.2270   77.4740  120.1610 C.3       6 GLP5        0.0000 
     18 CA        -16.6075   76.6530  123.6615 C.3       3 GLC5        0.0000 
     19 CA        -17.2380   78.6280  123.9600 C.3       6 GLP5        0.0000 
     20 CA        -13.9820   74.7060  122.3975 C.3       3 GLC5        0.0000 
     21 CA        -15.7710   73.6580  122.2340 C.3       9 GLL5        0.0000 
     22 CA        -12.1930   75.7540  122.5610 C.3       6 GLP5        0.0000 
     23 CA        -16.8395   74.5225  120.5935 C.3       3 GLC5        0.0000 
     24 CA        -17.9080   75.3870  118.9530 C.3       6 GLP5        0.0000 
     25 CA        -17.3015   72.5630  121.1485 C.3       3 GLC5        0.0000 
     26 N         -13.9510   75.0775  120.6135 N.am      2 SEC2        0.0000 
     27 N         -15.3060   74.3000  121.0590 N.am      8 SEL2        0.0000 
     28 N         -12.5960   75.8550  120.1680 N.am      5 SEP2        0.0000 
     29 CA        -13.6475   74.1420  118.9570 C.3       3 GLC5        0.0000 
     30 CA        -15.0760   73.4470  119.9570 C.3       9 GLL5        0.0000 
     31 CA        -12.2190   74.8370  117.9570 C.3       6 GLP5        0.0000 
     32 CA        -16.4920   74.4170  119.4550 C.3       3 GLC5        0.0000 
     33 CA        -14.3915   72.6715  118.2220 C.3       3 GLC5        0.0000 
     34 CA        -13.7070   71.8960  116.4870 C.3       6 GLP5        0.0000 
     35 CA        -16.9540   72.4575  120.0100 C.3       3 GLC5        0.0000 
     36 CA        -15.5595   78.9720  129.2650 C.3       3 GLC5        0.0000 
     37 CA        -16.4710   77.9540  127.5490 C.3       9 GLL5        0.0000 
     38 CA        -14.6480   79.9900  130.9810 C.3       6 GLP5        0.0000 
     39 CA        -16.2090   79.5555  127.1695 C.3       3 GLC5        0.0000 
     40 CA        -15.9470   81.1570  126.7900 C.3       6 GLP5        0.0000 
     41 CA        -19.3365   75.1465  120.0260 C.3       3 GLC5        0.0000 
     42 CA        -20.7650   74.9060  121.0990 C.3       9 GLL5        0.0000 
     43 CA        -21.9210   75.7635  120.0730 C.3       3 GLC5        0.0000 
     44 CA        -23.0770   76.6210  119.0470 C.3       6 GLP5        0.0000 
     45 CA        -19.7985   73.1870  120.5810 C.3       3 GLC5        0.0000 
     46 CA        -23.1457   72.7947  125.2447 C.3       3 GLC5        0.0000 
     47 CA        -21.3550   73.1210  124.0760 C.3       9 GLL5        0.0000 
     48 CA        -24.8620   73.1470  126.2160 C.3       6 GLP5        0.0000 
     49 CA        -21.6303   74.1055  119.8775 C.3       3 GLC5        0.0000 
     50 CA        -21.9730   73.3460  118.1030 C.3       6 GLP5        0.0000 
     51 CA        -22.9260   73.8370  125.8240 C.3       3 GLC5        0.0000 
     52 CA        -20.6650   74.0910  124.9850 C.3       9 GLL5        0.0000 
     53 CA        -21.1210   74.2810  128.1325 C.3       3 GLC5        0.0000 
     54 CA        -21.3150   74.9630  125.8790 C.3       9 GLL5        0.0000 
     55 CA        -21.3150   73.1730  129.9680 C.3       6 GLP5        0.0000 
     56 CA        -19.9098   76.4578  128.7360 C.3       3 GLC5        0.0000 
     57 CA        -20.5390   75.8150  126.7150 C.3       9 GLL5        0.0000 
     58 CA        -19.9950   77.1160  130.7830 C.3       6 GLP5        0.0000 
     59 CA        -18.4222   76.6735  129.5540 C.3       3 GLC5        0.0000 
     60 CA        -16.9990   76.5250  127.6320 C.3       9 GLL5        0.0000 
     61 CA        -16.9865   77.9338  125.7752 C.3       3 GLC5        0.0000 
     62 CA        -14.6167   75.6308  124.3580 C.3       3 GLC5        0.0000 
     63 CA        -13.1090   76.9230  124.6710 C.3       6 GLP5        0.0000 
@<TRIPOS>BOND
@<TRIPOS>SUBSTRUCTURE
     1 ALC1        4 GROUP        1 X    ALC  0     ROOT ALC X 1
     2 SEC2       26 GROUP        1 X    SEC  0     **** SEC X 2
     3 GLC5        1 GROUP        1 X    GLC  0     **** GLC X 6
     4 ALP1        6 GROUP        1 Y    ALP  0     ROOT ALP Y 8
     5 SEP2       28 GROUP        1 Y    SEP  0     **** SEP Y 9
     6 GLP5        3 GROUP        1 Y    GLP  0     **** GLP Y 13
     7 ALL1        5 GROUP        1 Z    ALL  0     ROOT ALL Z 15
     8 SEL2       27 GROUP        1 Z    SEL  0     **** SEL Z 16
     9 GLL5        2 GROUP        1 Z    GLL  0     **** GLL Z 20
@<TRIPOS>SET

