#    Name: 2g1y_5IG_2_ligand
#    Modification time : Tue Mar 25 13:25:47 2014

@<TRIPOS>MOLECULE
2g1y_5IG_2_ligand
   55    57     1     0     0
SMALL
NO_CHARGES


@<TRIPOS>ATOM
      1 C1        -21.5040   71.7640  124.4710 C.ar      1 5IG886      0.0000 
      2 N1        -22.0780   70.8120  123.6960 N.ar      1 5IG886      0.0000 
      3 C2        -22.5230   71.2120  122.5060 C.ar      1 5IG886      0.0000 
      4 N2        -22.4420   72.4690  122.0490 N.ar      1 5IG886      0.0000 
      5 C3        -21.8670   73.4410  122.8050 C.ar      1 5IG886      0.0000 
      6 C4        -21.3550   73.1210  124.0760 C.ar      1 5IG886      0.0000 
      7 N3        -21.0540   71.3410  125.6790 N.pl3     1 5IG886      0.0000 
      8 N4        -23.0850   70.3170  121.7020 N.pl3     1 5IG886      0.0000 
      9 C6        -21.8100   74.8240  122.2050 C.3       1 5IG886      0.0000 
     10 C7        -21.3150   74.9630  125.8790 C.ar      1 5IG886      0.0000 
     11 C8        -20.5390   75.8150  126.7150 C.ar      1 5IG886      0.0000 
     12 C9        -19.1100   75.7840  126.6630 C.ar      1 5IG886      0.0000 
     13 C10       -18.4400   74.9010  125.7540 C.ar      1 5IG886      0.0000 
     14 C11       -19.2570   74.0820  124.9350 C.ar      1 5IG886      0.0000 
     15 C12       -20.6650   74.0910  124.9850 C.ar      1 5IG886      0.0000 
     16 O3        -18.4260   76.6470  127.5100 O.3       1 5IG886      0.0000 
     17 C14       -16.9990   76.5250  127.6320 C.3       1 5IG886      0.0000 
     18 C15       -16.2560   75.6490  126.5590 C.2       1 5IG886      0.0000 
     19 N5        -17.0290   74.8710  125.6980 N.am      1 5IG886      0.0000 
     20 C16       -16.2720   73.9990  124.7270 C.3       1 5IG886      0.0000 
     21 C17       -15.9770   74.6780  123.3630 C.3       1 5IG886      0.0000 
     22 C18       -15.7710   73.6580  122.2340 C.3       1 5IG886      0.0000 
     23 O1        -15.3060   74.3000  121.0590 O.3       1 5IG886      0.0000 
     24 C19       -15.0760   73.4470  119.9570 C.3       1 5IG886      0.0000 
     25 C21       -16.7000   75.9370  129.0180 C.3       1 5IG886      0.0000 
     26 C20       -16.4710   77.9540  127.5490 C.3       1 5IG886      0.0000 
     27 O4        -15.0300   75.6610  126.5520 O.2       1 5IG886      0.0000 
     28 C5        -20.7650   74.9060  121.0990 C.3       1 5IG886      0.0000 
     29 H         -21.1448   70.3625  125.8644 H         1 5IG886      0.0000 
     30 H         -20.6713   72.0451  126.2772 H         1 5IG886      0.0000 
     31 H         -22.9679   70.4719  120.7210 H         1 5IG886      0.0000 
     32 H         -23.5745   69.5690  122.1501 H         1 5IG886      0.0000 
     33 H         -21.5627   75.5515  122.9830 H         1 5IG886      0.0000 
     34 H         -22.7878   75.0848  121.7908 H         1 5IG886      0.0000 
     35 H         -22.3293   74.9894  125.9325 H         1 5IG886      0.0000 
     36 H         -21.0047   76.4558  127.3593 H         1 5IG886      0.0000 
     37 H         -18.7863   73.4379  124.2587 H         1 5IG886      0.0000 
     38 H         -16.8428   73.0760  124.5324 H         1 5IG886      0.0000 
     39 H         -15.3102   73.6945  125.1717 H         1 5IG886      0.0000 
     40 H         -15.0785   75.2903  123.4648 H         1 5IG886      0.0000 
     41 H         -16.8141   75.3322  123.1102 H         1 5IG886      0.0000 
     42 H         -16.7333   73.1488  122.0732 H         1 5IG886      0.0000 
     43 H         -15.0598   72.9026  122.6010 H         1 5IG886      0.0000 
     44 H         -14.7536   73.9527  119.1568 H         1 5IG886      0.0000 
     45 H         -14.3863   72.7527  120.1624 H         1 5IG886      0.0000 
     46 H         -15.9067   72.9627  119.6825 H         1 5IG886      0.0000 
     47 H         -15.7181   75.8219  129.1687 H         1 5IG886      0.0000 
     48 H         -17.0424   76.5235  129.7520 H         1 5IG886      0.0000 
     49 H         -17.1225   75.0388  129.1394 H         1 5IG886      0.0000 
     50 H         -15.4742   77.9865  127.6222 H         1 5IG886      0.0000 
     51 H         -16.7157   78.3907  126.6833 H         1 5IG886      0.0000 
     52 H         -16.8375   78.5284  128.2809 H         1 5IG886      0.0000 
     53 H         -19.8493   74.6876  121.4363 H         1 5IG886      0.0000 
     54 H         -20.9624   74.2692  120.3536 H         1 5IG886      0.0000 
     55 H         -20.7193   75.8211  120.6984 H         1 5IG886      0.0000 
@<TRIPOS>BOND
     1    2    1 ar   
     2    6    1 ar   
     3    7    1 1    
     4    3    2 ar   
     5    4    3 ar   
     6    8    3 1    
     7    5    4 ar   
     8    6    5 ar   
     9    9    5 1    
    10   15    6 1    
    11   29    7 1    
    12   30    7 1    
    13   31    8 1    
    14   32    8 1    
    15   28    9 1    
    16   33    9 1    
    17   34    9 1    
    18   11   10 ar   
    19   15   10 ar   
    20   35   10 1    
    21   12   11 ar   
    22   36   11 1    
    23   13   12 ar   
    24   16   12 1    
    25   14   13 ar   
    26   19   13 1    
    27   15   14 ar   
    28   37   14 1    
    29   17   16 1    
    30   18   17 1    
    31   25   17 1    
    32   26   17 1    
    33   19   18 am   
    34   27   18 2    
    35   20   19 1    
    36   21   20 1    
    37   38   20 1    
    38   39   20 1    
    39   22   21 1    
    40   40   21 1    
    41   41   21 1    
    42   23   22 1    
    43   42   22 1    
    44   43   22 1    
    45   24   23 1    
    46   44   24 1    
    47   45   24 1    
    48   46   24 1    
    49   47   25 1    
    50   48   25 1    
    51   49   25 1    
    52   50   26 1    
    53   51   26 1    
    54   52   26 1    
    55   53   28 1    
    56   54   28 1    
    57   55   28 1    
@<TRIPOS>SUBSTRUCTURE
     1 5IG886      1 GROUP   
@<TRIPOS>SET

