#    Name: 4fk1_FAD_3_INTS_M
#    Modification time : Mon Mar 24 20:10:49 2014

@<TRIPOS>MOLECULE
4fk1_FAD_3_INTS_M
  115     0     9     0     0
SMALL
NO_CHARGES


@<TRIPOS>ATOM
      1 CA          9.1490    9.9125    4.7565 C.3       3 GLC5        0.0000 
      2 CA          8.1810    8.6040    5.7490 C.3       9 GLL5        0.0000 
      3 CA         10.1170   11.2210    3.7640 C.3       6 GLP5        0.0000 
      4 CA          7.9040    8.4075    8.7135 C.3       3 GLC5        0.0000 
      5 CA          7.3180    8.2380    6.9080 C.3       9 GLL5        0.0000 
      6 CA          8.4900    8.5770   10.5190 C.3       6 GLP5        0.0000 
      7 CA          8.4225    6.3050    6.8090 C.3       3 GLC5        0.0000 
      8 CA          9.5270    4.3720    6.7100 C.3       6 GLP5        0.0000 
      9 CA          5.3890    6.9350    4.8905 C.3       3 GLC5        0.0000 
     10 CA          5.9530    7.8250    6.4260 C.3       9 GLL5        0.0000 
     11 CA          4.8250    6.0450    3.3550 C.3       6 GLP5        0.0000 
     12 O           5.5245    6.3945    8.1120 O.2       1 ALC1        0.0000 
     13 O           5.6050    6.5790    7.0060 O.2       7 ALL1        0.0000 
     14 O           5.4440    6.2100    9.2180 O.2       4 ALP1        0.0000 
     15 CA          3.1680    8.9895    5.8075 C.3       3 GLC5        0.0000 
     16 CA          5.0290    8.8650    6.9810 C.3       9 GLL5        0.0000 
     17 CA          1.3070    9.1140    4.6340 C.3       6 GLP5        0.0000 
     18 CA          4.6620    8.1560    4.9835 C.3       3 GLC5        0.0000 
     19 CA          4.2950    7.4470    2.9860 C.3       6 GLP5        0.0000 
     20 N           2.6095    8.2030    6.6065 N.am      2 SEC2        0.0000 
     21 N           3.8650    8.2050    7.4330 N.am      8 SEL2        0.0000 
     22 N           1.3540    8.2010    5.7800 N.am      5 SEP2        0.0000 
     23 O           4.6545    7.2075    8.3255 O.2       1 ALC1        0.0000 
     24 O           3.8650    8.2050    7.4330 O.2       7 ALL1        0.0000 
     25 O           3.5890    6.9320    8.3070 O.2       1 ALC1        0.0000 
     26 O           3.3130    5.6590    9.1810 O.2       4 ALP1        0.0000 
     27 CA          7.1570    9.0015    9.3255 C.3       3 GLC5        0.0000 
     28 CA          5.8240    9.4260    8.1320 C.3       9 GLL5        0.0000 
     29 N           5.7890   14.3840    8.1640 N.am      2 SEC2        0.0000 
     30 N           5.1540   12.9670    8.3560 N.am      8 SEL2        0.0000 
     31 N           6.4240   15.8010    7.9720 N.am      5 SEP2        0.0000 
     32 CA          6.7415   13.0045    9.4415 C.3       3 GLC5        0.0000 
     33 CA          4.6600   12.5760    9.5190 C.3       9 GLL5        0.0000 
     34 CA          8.8230   13.4330    9.3640 C.3       6 GLP5        0.0000 
     35 CA          4.2190   13.9145   12.7030 C.3       3 GLC5        0.0000 
     36 CA          4.0140   13.2210   10.6610 C.3       9 GLL5        0.0000 
     37 CA          4.4240   14.6080   14.7450 C.3       6 GLP5        0.0000 
     38 O           3.3655   15.4245   11.7075 O.2       1 ALC1        0.0000 
     39 O           3.7920   14.5300   10.6740 O.2       7 ALL1        0.0000 
     40 O           2.9390   16.3190   12.7410 O.2       4 ALP1        0.0000 
     41 O           4.1615   15.5785    9.7640 O.2       1 ALC1        0.0000 
     42 O           4.5310   16.6270    8.8540 O.2       4 ALP1        0.0000 
     43 N           2.9075   13.1700   12.8125 N.am      2 SEC2        0.0000 
     44 N           3.6460   12.4570   11.6780 N.am      8 SEL2        0.0000 
     45 N           2.1690   13.8830   13.9470 N.am      5 SEP2        0.0000 
     46 CA          4.7750   10.3575   13.5630 C.3       3 GLC5        0.0000 
     47 CA          3.8560   11.1450   11.6790 C.3       9 GLL5        0.0000 
     48 CA          5.6940    9.5700   15.4470 C.3       6 GLP5        0.0000 
     49 CA          3.9015    9.2715   11.7665 C.3       3 GLC5        0.0000 
     50 CA          3.9470    7.3980   11.8540 C.3       6 GLP5        0.0000 
     51 CA          2.0560   10.5560   11.1170 C.3       3 GLC5        0.0000 
     52 CA          0.2560    9.9670   10.5550 C.3       6 GLP5        0.0000 
     53 CA          2.0185   11.9355   12.4140 C.3       3 GLC5        0.0000 
     54 CA          0.1810   12.7260   13.1490 C.3       6 GLP5        0.0000 
     55 N           3.2545    9.4130   10.6585 N.am      2 SEC2        0.0000 
     56 N           4.4350   10.4950   10.6870 N.am      8 SEL2        0.0000 
     57 N           2.0740    8.3310   10.6300 N.am      5 SEP2        0.0000 
     58 CA          4.3995    9.2730   10.7280 C.3       3 GLC5        0.0000 
     59 CA          4.8520   11.1480    9.6020 C.3       9 GLL5        0.0000 
     60 N          13.6990    1.4975   -2.1715 N.am      2 SEC2        0.0000 
     61 N          13.2050    0.8700   -3.3680 N.am      8 SEL2        0.0000 
     62 N          14.1930    2.1250   -0.9750 N.am      5 SEP2        0.0000 
     63 O          12.2595   -1.0060   -4.9725 O.2       1 ALC1        0.0000 
     64 O          11.6320    0.2790   -4.7380 O.2       7 ALL1        0.0000 
     65 O          12.8870   -2.2910   -5.2070 O.2       4 ALP1        0.0000 
     66 N          10.1675   -1.7670   -5.7620 N.am      2 SEC2        0.0000 
     67 N          10.0430   -0.2990   -6.1390 N.am      8 SEL2        0.0000 
     68 N          10.2920   -3.2350   -5.3850 N.am      5 SEP2        0.0000 
     69 N           9.1530   -1.1185   -7.1205 N.am      2 SEC2        0.0000 
     70 N           8.2630   -1.9380   -8.1020 N.am      5 SEP2        0.0000 
     71 CA          3.2140    5.5215   -5.8845 C.3       3 GLC5        0.0000 
     72 CA          5.0450    5.0810   -6.7570 C.3       9 GLL5        0.0000 
     73 CA          1.3830    5.9620   -5.0120 C.3       6 GLP5        0.0000 
     74 CA          4.5350    6.9670   -6.9550 C.3       3 GLC5        0.0000 
     75 CA          4.0250    8.8530   -7.1530 C.3       6 GLP5        0.0000 
     76 CA          3.3620    4.5250   -7.6275 C.3       3 GLC5        0.0000 
     77 CA          1.6790    3.9690   -8.4980 C.3       6 GLP5        0.0000 
     78 CA          5.1375    4.1440   -8.7200 C.3       3 GLC5        0.0000 
     79 CA          5.2300    3.2070  -10.6830 C.3       6 GLP5        0.0000 
     80 CA          6.6245    7.8315   -3.1455 C.3       3 GLC5        0.0000 
     81 CA          6.2380    7.0620   -4.8810 C.3       9 GLL5        0.0000 
     82 CA          7.0110    8.6010   -1.4100 C.3       6 GLP5        0.0000 
     83 CA          5.5705    5.9305   -3.3245 C.3       3 GLC5        0.0000 
     84 CA          4.9030    4.7990   -1.7680 C.3       6 GLP5        0.0000 
     85 CA          5.1315    7.9575   -6.0170 C.3       3 GLC5        0.0000 
     86 CA          7.5485    7.0365   -2.9340 C.3       3 GLC5        0.0000 
     87 CA          8.0860    5.4720   -4.4580 C.3       9 GLL5        0.0000 
     88 CA          8.3395    4.2475   -1.6380 C.3       3 GLC5        0.0000 
     89 CA         10.4930    4.5170   -1.6430 C.3       9 GLL5        0.0000 
     90 CA          6.1860    3.9780   -1.6330 C.3       6 GLP5        0.0000 
     91 O          12.6610    7.0360   -1.6775 O.2       1 ALC1        0.0000 
     92 O          12.5020    5.6880   -1.4150 O.2       7 ALL1        0.0000 
     93 O          12.8200    8.3840   -1.9400 O.2       4 ALP1        0.0000 
     94 CA         13.0250    7.8675    0.6480 C.3       3 GLC5        0.0000 
     95 CA         12.1720    6.2450    1.3960 C.3       9 GLL5        0.0000 
     96 CA         13.8780    9.4900   -0.1000 C.3       6 GLP5        0.0000 
     97 CA         13.7950    5.7095    2.1270 C.3       3 GLC5        0.0000 
     98 CA         15.4180    5.1740    2.8580 C.3       6 GLP5        0.0000 
     99 N          12.8715    5.2450    5.9730 N.am      2 SEC2        0.0000 
    100 N          11.9140    6.2440    5.1740 N.am      8 SEL2        0.0000 
    101 N          13.8290    4.2460    6.7720 N.am      5 SEP2        0.0000 
    102 N          13.9635    8.9645    3.2405 N.am      2 SEC2        0.0000 
    103 N          12.9620    7.9520    3.7410 N.am      8 SEL2        0.0000 
    104 N          14.9650    9.9770    2.7400 N.am      5 SEP2        0.0000 
    105 CA          8.7033   10.2265    6.9093 C.3       3 GLC5        0.0000 
    106 CA          9.6570   12.0320    7.4900 C.3       6 GLP5        0.0000 
    107 CA          4.7009    3.1785   -5.9659 C.3       3 GLC5        0.0000 
    108 CA          6.9570    3.5830   -6.2320 C.3       9 GLL5        0.0000 
    109 CA          3.5600    1.7260   -5.4860 C.3       6 GLP5        0.0000 
    110 CA         12.1200    4.2707    2.3832 C.3       3 GLC5        0.0000 
    111 CA         11.4100    5.1960    0.6270 C.3       9 GLL5        0.0000 
    112 CA         12.4490    2.8210    3.7550 C.3       6 GLP5        0.0000 
    113 CA         11.0319    3.3410    0.1739 C.3       3 GLC5        0.0000 
    114 CA         10.9270    1.5670    0.6530 C.3       6 GLP5        0.0000 
    115 CA          6.8106    4.4626   -3.4071 C.3       3 GLC5        0.0000 
@<TRIPOS>BOND
@<TRIPOS>SUBSTRUCTURE
     1 ALC1       12 GROUP        1 X    ALC  0     ROOT ALC X 1
     2 SEC2       20 GROUP        1 X    SEC  0     **** SEC X 2
     3 GLC5        1 GROUP        1 X    GLC  0     **** GLC X 6
     4 ALP1       14 GROUP        1 Y    ALP  0     ROOT ALP Y 8
     5 SEP2       22 GROUP        1 Y    SEP  0     **** SEP Y 9
     6 GLP5        3 GROUP        1 Y    GLP  0     **** GLP Y 13
     7 ALL1       13 GROUP        1 Z    ALL  0     ROOT ALL Z 15
     8 SEL2       21 GROUP        1 Z    SEL  0     **** SEL Z 16
     9 GLL5        2 GROUP        1 Z    GLL  0     **** GLL Z 20
@<TRIPOS>SET

