#    Name: 4fk1_FAD_3_ligand
#    Modification time : Mon Mar 24 20:10:49 2014

@<TRIPOS>MOLECULE
4fk1_FAD_3_ligand
   84    89     1     0     0
SMALL
NO_CHARGES


@<TRIPOS>ATOM
      1 PA          9.0880    7.0890    3.8330 P.3       1 FAD500      0.0000 
      2 O1A         9.0320    5.6490    3.7550 O.co2     1 FAD500      0.0000 
      3 O2A         8.2270    7.8370    2.9510 O.co2     1 FAD500      0.0000 
      4 O5B         8.7460    7.4100    5.3110 O.3       1 FAD500      0.0000 
      5 C5B         8.1810    8.6040    5.7490 C.3       1 FAD500      0.0000 
      6 C4B         7.3180    8.2380    6.9080 C.3       1 FAD500      0.0000 
      7 O4B         7.1570    9.3870    7.7000 O.3       1 FAD500      0.0000 
      8 C3B         5.9530    7.8250    6.4260 C.3       1 FAD500      0.0000 
      9 O3B         5.6050    6.5790    7.0060 O.3       1 FAD500      0.0000 
     10 C2B         5.0290    8.8650    6.9810 C.3       1 FAD500      0.0000 
     11 O2B         3.8650    8.2050    7.4330 O.3       1 FAD500      0.0000 
     12 C1B         5.8240    9.4260    8.1320 C.3       1 FAD500      0.0000 
     13 N9A         5.4420   10.7990    8.4820 N.pl3     1 FAD500      0.0000 
     14 C8A         5.6230   11.8830    7.7390 C.2       1 FAD500      0.0000 
     15 N7A         5.1540   12.9670    8.3560 N.2       1 FAD500      0.0000 
     16 C5A         4.6600   12.5760    9.5190 C.ar      1 FAD500      0.0000 
     17 C6A         4.0140   13.2210   10.6610 C.ar      1 FAD500      0.0000 
     18 N6A         3.7920   14.5300   10.6740 N.pl3     1 FAD500      0.0000 
     19 N1A         3.6460   12.4570   11.6780 N.ar      1 FAD500      0.0000 
     20 C2A         3.8560   11.1450   11.6790 C.ar      1 FAD500      0.0000 
     21 N3A         4.4350   10.4950   10.6870 N.ar      1 FAD500      0.0000 
     22 C4A         4.8520   11.1480    9.6020 C.ar      1 FAD500      0.0000 
     23 N1         11.6220    2.3520   -3.6790 N.2       1 FAD500      0.0000 
     24 C2         12.1640    1.1570   -3.9210 C.2       1 FAD500      0.0000 
     25 O2         13.2050    0.8700   -3.3680 O.2       1 FAD500      0.0000 
     26 N3         11.6320    0.2790   -4.7380 N.am      1 FAD500      0.0000 
     27 C4         10.5110    0.5280   -5.3780 C.2       1 FAD500      0.0000 
     28 O4         10.0430   -0.2990   -6.1390 O.2       1 FAD500      0.0000 
     29 C4X         9.8400    1.8170   -5.1730 C.2       1 FAD500      0.0000 
     30 N5          8.7090    2.1250   -5.7970 N.2       1 FAD500      0.0000 
     31 C5X         8.1250    3.2950   -5.5750 C.ar      1 FAD500      0.0000 
     32 C6          6.9570    3.5830   -6.2320 C.ar      1 FAD500      0.0000 
     33 C7          6.3200    4.7790   -6.0370 C.ar      1 FAD500      0.0000 
     34 C7M         5.0450    5.0810   -6.7570 C.3       1 FAD500      0.0000 
     35 C8          6.9120    5.7530   -5.1160 C.ar      1 FAD500      0.0000 
     36 C8M         6.2380    7.0620   -4.8810 C.3       1 FAD500      0.0000 
     37 C9          8.0860    5.4720   -4.4580 C.ar      1 FAD500      0.0000 
     38 C9A         8.7210    4.2740   -4.6520 C.ar      1 FAD500      0.0000 
     39 N10         9.9040    3.9780   -3.9880 N.pl3     1 FAD500      0.0000 
     40 C10        10.4850    2.7460   -4.2500 C.2       1 FAD500      0.0000 
     41 C1'        10.5160    4.9330   -3.0880 C.3       1 FAD500      0.0000 
     42 C2'        10.4930    4.5170   -1.6430 C.3       1 FAD500      0.0000 
     43 O2'         9.1490    4.5350   -1.2580 O.3       1 FAD500      0.0000 
     44 C3'        11.2340    5.5510   -0.8320 C.3       1 FAD500      0.0000 
     45 O3'        12.5020    5.6880   -1.4150 O.3       1 FAD500      0.0000 
     46 C4'        11.4100    5.1960    0.6270 C.3       1 FAD500      0.0000 
     47 O4'        10.1420    5.1080    1.2250 O.3       1 FAD500      0.0000 
     48 C5'        12.1720    6.2450    1.3960 C.3       1 FAD500      0.0000 
     49 O5'        12.0470    5.9220    2.7600 O.3       1 FAD500      0.0000 
     50 P          11.9360    6.9590    3.9200 P.3       1 FAD500      0.0000 
     51 O1P        11.9140    6.2440    5.1740 O.co2     1 FAD500      0.0000 
     52 O2P        12.9620    7.9520    3.7410 O.co2     1 FAD500      0.0000 
     53 O3P        10.5520    7.6680    3.7160 O.3       1 FAD500      0.0000 
     54 H           7.5582    9.0737    4.9904 H         1 FAD500      0.0000 
     55 H           8.9278    9.3192    6.0877 H         1 FAD500      0.0000 
     56 H           7.7583    7.4376    7.4488 H         1 FAD500      0.0000 
     57 H           5.9205    7.8382    5.3854 H         1 FAD500      0.0000 
     58 H           4.8684    9.6025    6.2646 H         1 FAD500      0.0000 
     59 H           5.6850    8.7679    8.9794 H         1 FAD500      0.0000 
     60 H           6.0488   11.8893    6.8460 H         1 FAD500      0.0000 
     61 H           4.0563   15.0293    9.8489 H         1 FAD500      0.0000 
     62 H           3.3805   14.8983   11.5077 H         1 FAD500      0.0000 
     63 H           3.5346   10.5843   12.5385 H         1 FAD500      0.0000 
     64 H          12.1178   -0.6557   -4.8867 H         1 FAD500      0.0000 
     65 H           6.5502    2.8838   -6.8866 H         1 FAD500      0.0000 
     66 H           8.4919    6.1737   -3.8105 H         1 FAD500      0.0000 
     67 H          10.0119    5.9235   -3.1722 H         1 FAD500      0.0000 
     68 H          11.5759    5.1166   -3.3796 H         1 FAD500      0.0000 
     69 H          10.9454    3.5777   -1.5359 H         1 FAD500      0.0000 
     70 H          10.6903    6.4901   -0.8984 H         1 FAD500      0.0000 
     71 H          11.9364    4.2614    0.7026 H         1 FAD500      0.0000 
     72 H          11.7425    7.2179    1.1610 H         1 FAD500      0.0000 
     73 H          13.2081    6.2269    1.0606 H         1 FAD500      0.0000 
     74 H           5.1651    5.0601   -7.7495 H         1 FAD500      0.0000 
     75 H           4.3275    4.4209   -6.5346 H         1 FAD500      0.0000 
     76 H           4.6922    5.9871   -6.5234 H         1 FAD500      0.0000 
     77 H           6.7438    7.6287   -4.2306 H         1 FAD500      0.0000 
     78 H           6.1505    7.5914   -5.7248 H         1 FAD500      0.0000 
     79 H           5.3161    6.9441   -4.5120 H         1 FAD500      0.0000 
     80 H           6.0430    6.5808    7.9050 H         1 FAD500      0.0000 
     81 H           4.1569    7.2680    7.6248 H         1 FAD500      0.0000 
     82 H           9.1644    4.7057   -0.2728 H         1 FAD500      0.0000 
     83 H          12.4111    6.4501   -2.0560 H         1 FAD500      0.0000 
     84 H          10.3242    4.9702    2.1986 H         1 FAD500      0.0000 
@<TRIPOS>BOND
     1    2    1 ar   
     2    3    1 ar   
     3    4    1 1    
     4   53    1 1    
     5    5    4 1    
     6    6    5 1    
     7   54    5 1    
     8   55    5 1    
     9    7    6 1    
    10    8    6 1    
    11   56    6 1    
    12   12    7 1    
    13    9    8 1    
    14   10    8 1    
    15   57    8 1    
    16   80    9 1    
    17   11   10 1    
    18   12   10 1    
    19   58   10 1    
    20   81   11 1    
    21   13   12 1    
    22   59   12 1    
    23   14   13 1    
    24   22   13 1    
    25   15   14 2    
    26   60   14 1    
    27   16   15 1    
    28   17   16 ar   
    29   22   16 ar   
    30   18   17 1    
    31   19   17 ar   
    32   61   18 1    
    33   62   18 1    
    34   20   19 ar   
    35   21   20 ar   
    36   63   20 1    
    37   22   21 ar   
    38   24   23 1    
    39   40   23 2    
    40   25   24 2    
    41   26   24 am   
    42   27   26 am   
    43   64   26 1    
    44   28   27 2    
    45   29   27 1    
    46   30   29 2    
    47   40   29 1    
    48   31   30 1    
    49   32   31 ar   
    50   38   31 ar   
    51   33   32 ar   
    52   65   32 1    
    53   34   33 1    
    54   35   33 ar   
    55   74   34 1    
    56   75   34 1    
    57   76   34 1    
    58   36   35 1    
    59   37   35 ar   
    60   77   36 1    
    61   78   36 1    
    62   79   36 1    
    63   38   37 ar   
    64   66   37 1    
    65   39   38 1    
    66   40   39 1    
    67   41   39 1    
    68   42   41 1    
    69   67   41 1    
    70   68   41 1    
    71   43   42 1    
    72   44   42 1    
    73   69   42 1    
    74   82   43 1    
    75   45   44 1    
    76   46   44 1    
    77   70   44 1    
    78   83   45 1    
    79   47   46 1    
    80   48   46 1    
    81   71   46 1    
    82   84   47 1    
    83   49   48 1    
    84   72   48 1    
    85   73   48 1    
    86   50   49 1    
    87   51   50 ar   
    88   52   50 ar   
    89   53   50 1    
@<TRIPOS>SUBSTRUCTURE
     1 FAD500      1 GROUP   
@<TRIPOS>SET

