#    Name: 2jff_LK2_1_INTS_M
#    Modification time : Tue Mar 25 20:39:53 2014

@<TRIPOS>MOLECULE
2jff_LK2_1_INTS_M
   51     0     9     0     0
SMALL
NO_CHARGES


@<TRIPOS>ATOM
      1 NZ        -25.8390    6.6940   20.7245 N.4       2 LYC4        0.0000 
      2 NZ        -25.2850    5.8350   19.1220 N.4       8 LYL4        0.0000 
      3 NZ        -26.3930    7.5530   22.3270 N.4       5 LYP4        0.0000 
      4 NZ        -25.7400    6.4180   21.7790 N.4       2 LYC4        0.0000 
      5 NZ        -25.0870    5.2830   21.2310 N.4       8 LYL4        0.0000 
      6 N         -25.7400    6.4180   21.7790 N.am      1 SEC2        0.0000 
      7 N         -25.0870    5.2830   21.2310 N.am      7 SEL2        0.0000 
      8 N         -26.3930    7.5530   22.3270 N.am      4 SEP2        0.0000 
      9 CA        -28.1095    3.4395   20.2670 C.3       3 GLC5        0.0000 
     10 CA        -26.3460    2.5600   20.4160 C.3       9 GLL5        0.0000 
     11 CA        -29.8730    4.3190   20.1180 C.3       6 GLP5        0.0000 
     12 CA        -26.3900    3.1990   22.2005 C.3       3 GLC5        0.0000 
     13 CA        -26.4340    3.8380   23.9850 C.3       6 GLP5        0.0000 
     14 CA        -25.3360    1.3265   21.7350 C.3       3 GLC5        0.0000 
     15 CA        -24.3260    0.0930   23.0540 C.3       6 GLP5        0.0000 
     16 N         -28.2400    1.2475   22.6285 N.am      1 SEC2        0.0000 
     17 N         -28.0300    1.1560   21.2340 N.am      7 SEL2        0.0000 
     18 N         -28.4500    1.3390   24.0230 N.am      4 SEP2        0.0000 
     19 N         -28.3595   -0.0120   21.8660 N.am      1 SEC2        0.0000 
     20 N         -28.6890   -1.1800   22.4980 N.am      4 SEP2        0.0000 
     21 N         -28.2405   -0.4665   19.3405 N.am      1 SEC2        0.0000 
     22 N         -27.1460    0.5700   19.2940 N.am      7 SEL2        0.0000 
     23 N         -29.3350   -1.5030   19.3870 N.am      4 SEP2        0.0000 
     24 CA        -13.4020   -0.0670   18.3910 C.3       3 GLC5        0.0000 
     25 CA        -13.5990   -0.6210   20.5160 C.3       9 GLL5        0.0000 
     26 CA        -13.2050    0.4870   16.2660 C.3       6 GLP5        0.0000 
     27 CA        -14.7235    1.1275   19.7340 C.3       3 GLC5        0.0000 
     28 CA        -15.8480    2.8760   18.9520 C.3       6 GLP5        0.0000 
     29 CA        -10.4725   -0.8545   19.8230 C.3       3 GLC5        0.0000 
     30 CA        -12.1790   -1.1210   20.6040 C.3       9 GLL5        0.0000 
     31 CA         -8.7660   -0.5880   19.0420 C.3       6 GLP5        0.0000 
     32 CA        -12.0660   -2.1940   18.9120 C.3       3 GLC5        0.0000 
     33 CA        -11.9530   -3.2670   17.2200 C.3       6 GLP5        0.0000 
     34 CA        -23.9312    2.0430   20.9948 C.3       3 GLC5        0.0000 
     35 CA        -24.2530    3.7370   19.5640 C.3       9 GLL5        0.0000 
     36 CA        -23.0840    0.8920   22.5620 C.3       6 GLP5        0.0000 
     37 CA        -21.6598    1.8405   21.5798 C.3       3 GLC5        0.0000 
     38 CA        -20.6850    3.2660   20.3470 C.3       9 GLL5        0.0000 
     39 CA        -17.6373    2.3905   19.6797 C.3       3 GLC5        0.0000 
     40 CA        -19.7860    2.3120   20.8480 C.3       9 GLL5        0.0000 
     41 CA        -17.7818    2.4940   18.6423 C.3       3 GLC5        0.0000 
     42 CA        -19.2560    1.6350   18.5730 C.3       9 GLL5        0.0000 
     43 CA        -16.8295    1.5080   19.4925 C.3       3 GLC5        0.0000 
     44 CA        -18.1690    0.5510   20.4830 C.3       9 GLL5        0.0000 
     45 CA        -16.9657    1.6042   18.4425 C.3       3 GLC5        0.0000 
     46 CA        -17.6290   -0.1490   18.1910 C.3       9 GLL5        0.0000 
     47 CA        -15.8100   -3.0125   22.1007 C.3       3 GLC5        0.0000 
     48 CA        -15.9440   -1.0340   21.3780 C.3       9 GLL5        0.0000 
     49 CA        -16.3980   -4.7480   22.8380 C.3       6 GLP5        0.0000 
     50 CA        -12.0430    1.0385   20.4510 C.3       3 GLC5        0.0000 
     51 CA        -11.1970    2.9480   20.3420 C.3       6 GLP5        0.0000 
@<TRIPOS>BOND
@<TRIPOS>SUBSTRUCTURE
     1 SEC2        6 GROUP        1 X    SEC  0     ROOT SEC X 2
     2 LYC4        1 GROUP        1 X    LYC  0     **** LYC X 4
     3 GLC5        9 GROUP        1 X    GLC  0     **** GLC X 6
     4 SEP2        8 GROUP        1 Y    SEP  0     ROOT SEP Y 9
     5 LYP4        3 GROUP        1 Y    LYP  0     **** LYP Y 11
     6 GLP5       11 GROUP        1 Y    GLP  0     **** GLP Y 13
     7 SEL2        7 GROUP        1 Z    SEL  0     ROOT SEL Z 16
     8 LYL4        2 GROUP        1 Z    LYL  0     **** LYL Z 18
     9 GLL5       10 GROUP        1 Z    GLL  0     **** GLL Z 20
@<TRIPOS>SET

