#    Name: 2jff_LK2_1_ligand
#    Modification time : Tue Mar 25 20:39:53 2014

@<TRIPOS>MOLECULE
2jff_LK2_1_ligand
   49    50     1     0     0
SMALL
NO_CHARGES


@<TRIPOS>ATOM
      1 O32       -22.0190    5.6770   19.3350 O.2       1 LK21440     0.0000 
      2 S11       -21.9440    4.5360   18.4290 S.o2      1 LK21440     0.0000 
      3 O33       -21.5980    4.9850   17.0550 O.2       1 LK21440     0.0000 
      4 N         -23.4250    3.8850   18.3550 N.am      1 LK21440     0.0000 
      5 CA        -24.2530    3.7370   19.5640 C.3       1 LK21440     0.0000 
      6 C         -24.9150    5.0380   20.0050 C.2       1 LK21440     0.0000 
      7 O         -25.2850    5.8350   19.1220 O.co2     1 LK21440     0.0000 
      8 OXT       -25.0870    5.2830   21.2310 O.co2     1 LK21440     0.0000 
      9 CB        -25.3040    2.6510   19.2910 C.3       1 LK21440     0.0000 
     10 CG        -26.3460    2.5600   20.4160 C.3       1 LK21440     0.0000 
     11 CD        -27.2290    1.3350   20.2880 C.2       1 LK21440     0.0000 
     12 OE2       -28.0300    1.1560   21.2340 O.co2     1 LK21440     0.0000 
     13 OE1       -27.1460    0.5700   19.2940 O.co2     1 LK21440     0.0000 
     14 C12       -20.8850    3.4240   18.9710 C.ar      1 LK21440     0.0000 
     15 C13       -20.6850    3.2660   20.3470 C.ar      1 LK21440     0.0000 
     16 C14       -19.7860    2.3120   20.8480 C.ar      1 LK21440     0.0000 
     17 C15       -19.0670    1.4980   19.9670 C.ar      1 LK21440     0.0000 
     18 C16       -19.2560    1.6350   18.5730 C.ar      1 LK21440     0.0000 
     19 C17       -20.1750    2.5890   18.0920 C.ar      1 LK21440     0.0000 
     20 C21       -18.1690    0.5510   20.4830 C.ar      1 LK21440     0.0000 
     21 C20       -17.4530   -0.2710   19.5830 C.ar      1 LK21440     0.0000 
     22 C19       -17.6290   -0.1490   18.1910 C.ar      1 LK21440     0.0000 
     23 C18       -18.5380    0.8140   17.6750 C.ar      1 LK21440     0.0000 
     24 O22       -16.5530   -1.2000   20.0870 O.3       1 LK21440     0.0000 
     25 C23       -15.9440   -1.0340   21.3780 C.3       1 LK21440     0.0000 
     26 C24       -14.5000   -1.5200   21.3490 C.3       1 LK21440     0.0000 
     27 C29       -13.5990   -0.6210   20.5160 C.3       1 LK21440     0.0000 
     28 C44       -12.1790   -1.1210   20.6040 C.3       1 LK21440     0.0000 
     29 H         -23.7219    3.6019   17.4570 H         1 LK21440     0.0000 
     30 H         -23.6291    3.3712   20.3852 H         1 LK21440     0.0000 
     31 H         -24.8024    1.6859   19.1904 H         1 LK21440     0.0000 
     32 H         -25.8128    2.8749   18.3507 H         1 LK21440     0.0000 
     33 H         -26.9669    3.4629   20.3938 H         1 LK21440     0.0000 
     34 H         -25.8226    2.5352   21.3787 H         1 LK21440     0.0000 
     35 H         -21.2089    3.8629   21.0088 H         1 LK21440     0.0000 
     36 H         -19.6579    2.2135   21.8601 H         1 LK21440     0.0000 
     37 H         -20.3279    2.6744   17.0755 H         1 LK21440     0.0000 
     38 H         -18.0328    0.4544   21.4833 H         1 LK21440     0.0000 
     39 H         -17.1086   -0.7470   17.5507 H         1 LK21440     0.0000 
     40 H         -18.6669    0.9077   16.6738 H         1 LK21440     0.0000 
     41 H         -16.4774   -1.6047   22.1495 H         1 LK21440     0.0000 
     42 H         -15.9400    0.0194   21.6872 H         1 LK21440     0.0000 
     43 H         -14.4723   -2.5374   20.9390 H         1 LK21440     0.0000 
     44 H         -14.1157   -1.5635   22.3758 H         1 LK21440     0.0000 
     45 H         -13.6554    0.3936   20.8965 H         1 LK21440     0.0000 
     46 H         -13.9315   -0.6391   19.4833 H         1 LK21440     0.0000 
     47 H         -11.5521   -0.5551   20.0684 H         1 LK21440     0.0000 
     48 H         -11.8427   -1.1202   21.5457 H         1 LK21440     0.0000 
     49 H         -12.0931   -2.0571   20.2629 H         1 LK21440     0.0000 
@<TRIPOS>BOND
     1    2    1 2    
     2    3    2 2    
     3    4    2 am   
     4   14    2 1    
     5    5    4 1    
     6   29    4 1    
     7    6    5 1    
     8    9    5 1    
     9   30    5 1    
    10    7    6 ar   
    11    8    6 ar   
    12   10    9 1    
    13   31    9 1    
    14   32    9 1    
    15   11   10 1    
    16   33   10 1    
    17   34   10 1    
    18   12   11 ar   
    19   13   11 ar   
    20   15   14 ar   
    21   19   14 ar   
    22   16   15 ar   
    23   35   15 1    
    24   17   16 ar   
    25   36   16 1    
    26   18   17 ar   
    27   20   17 ar   
    28   19   18 ar   
    29   23   18 ar   
    30   37   19 1    
    31   21   20 ar   
    32   38   20 1    
    33   22   21 ar   
    34   24   21 1    
    35   23   22 ar   
    36   39   22 1    
    37   40   23 1    
    38   25   24 1    
    39   26   25 1    
    40   41   25 1    
    41   42   25 1    
    42   27   26 1    
    43   43   26 1    
    44   44   26 1    
    45   28   27 1    
    46   45   27 1    
    47   46   27 1    
    48   47   28 1    
    49   48   28 1    
    50   49   28 1    
@<TRIPOS>SUBSTRUCTURE
     1 LK21440     1 GROUP   
@<TRIPOS>SET

