#    Name: 4lv8_ADP_1_INTS_M
#    Modification time : Tue Mar 25 11:30:40 2014

@<TRIPOS>MOLECULE
4lv8_ADP_1_INTS_M
   69     0    15     0     0
SMALL
NO_CHARGES


@<TRIPOS>ATOM
      1 Zn         14.4270  -73.3980  127.4165 Zn        4 ZIC7        0.0000 
      2 Zn         13.5610  -73.8710  127.1390 Zn       14 ZIL7        0.0000 
      3 Zn         15.2930  -72.9250  127.6940 Zn        9 ZIP7        0.0000 
      4 N          12.5300  -74.4110  125.8985 N.am      2 SEC2        0.0000 
      5 N          13.5610  -73.8710  127.1390 N.am     12 SEL2        0.0000 
      6 N          11.4990  -74.9510  124.6580 N.am      7 SEP2        0.0000 
      7 N          11.3865  -76.4645  126.7945 N.am      2 SEC2        0.0000 
      8 N          11.7110  -75.4780  127.8180 N.am     12 SEL2        0.0000 
      9 N          11.0620  -77.4510  125.7710 N.am      7 SEP2        0.0000 
     10 N          10.6380  -75.2500  128.6140 N.am      2 SEC2        0.0000 
     11 N           9.5650  -75.0220  129.4100 N.am      7 SEP2        0.0000 
     12 NZ         13.4655  -75.5250  130.5230 N.4       3 LYC4        0.0000 
     13 NZ         14.0300  -75.7930  128.7290 N.4      13 LYL4        0.0000 
     14 NZ         12.9010  -75.2570  132.3170 N.4       8 LYP4        0.0000 
     15 N          14.2240  -77.3315  129.2435 N.am      2 SEC2        0.0000 
     16 N          14.0300  -75.7930  128.7290 N.am     12 SEL2        0.0000 
     17 N          14.4180  -78.8700  129.7580 N.am      7 SEP2        0.0000 
     18 Zn         14.6230  -72.3965  128.2760 Zn        4 ZIC7        0.0000 
     19 Zn         13.9530  -71.8680  128.8580 Zn       14 ZIL7        0.0000 
     20 NZ         13.3245  -73.9860  131.8255 N.4       3 LYC4        0.0000 
     21 NZ         13.7480  -72.7150  131.3340 N.4      13 LYL4        0.0000 
     22 N          13.3245  -73.9860  131.8255 N.am      2 SEC2        0.0000 
     23 N          13.7480  -72.7150  131.3340 N.am     12 SEL2        0.0000 
     24 N          12.9010  -75.2570  132.3170 N.am      7 SEP2        0.0000 
     25 N          11.0720  -74.4820  129.4420 N.am      2 SEC2        0.0000 
     26 N          12.5790  -73.9420  129.4740 N.am     12 SEL2        0.0000 
     27 N          12.7400  -74.5995  130.8955 N.am      2 SEC2        0.0000 
     28 CA         13.6435  -68.6430  127.8485 C.3       5 GLC5        0.0000 
     29 CA         11.7470  -69.1820  128.6810 C.3      15 GLL5        0.0000 
     30 CA         15.5400  -68.1040  127.0160 C.3      10 GLP5        0.0000 
     31 O          13.8925  -67.5640  129.9705 O.2       1 ALC1        0.0000 
     32 O          12.5960  -67.2650  129.9250 O.2      11 ALL1        0.0000 
     33 O          15.1890  -67.8630  130.0160 O.2       6 ALP1        0.0000 
     34 CA          9.1145  -68.2210  129.4925 C.3       5 GLC5        0.0000 
     35 CA         10.6170  -68.5030  130.6240 C.3      15 GLL5        0.0000 
     36 CA          7.6120  -67.9390  128.3610 C.3      10 GLP5        0.0000 
     37 CA          9.3895  -70.1015  131.3535 C.3       5 GLC5        0.0000 
     38 CA          8.1620  -71.7000  132.0830 C.3      10 GLP5        0.0000 
     39 CA          8.9460  -66.2170  136.8635 C.3       5 GLC5        0.0000 
     40 CA         10.1060  -67.4770  135.4510 C.3      15 GLL5        0.0000 
     41 CA          7.7860  -64.9570  138.2760 C.3      10 GLP5        0.0000 
     42 O          10.1135  -67.2185  137.9350 O.2       1 ALC1        0.0000 
     43 O          10.3810  -67.8520  136.7250 O.2      11 ALL1        0.0000 
     44 O           9.8460  -66.5850  139.1450 O.2       6 ALP1        0.0000 
     45 N           9.4050  -65.0785  136.0315 N.am      2 SEC2        0.0000 
     46 N           9.4250  -66.3500  135.2030 N.am     12 SEL2        0.0000 
     47 N           9.3850  -63.8070  136.8600 N.am      7 SEP2        0.0000 
     48 CA          6.9585  -65.9920  133.8950 C.3       5 GLC5        0.0000 
     49 CA          9.1240  -65.9300  133.9560 C.3      15 GLL5        0.0000 
     50 CA          4.7930  -66.0540  133.8340 C.3      10 GLP5        0.0000 
     51 CA          8.1120  -67.2285  135.4515 C.3       5 GLC5        0.0000 
     52 CA          7.1000  -68.5270  136.9470 C.3      10 GLP5        0.0000 
     53 CA         10.1515  -64.4885  134.6780 C.3       5 GLC5        0.0000 
     54 CA         11.1790  -63.0470  135.4000 C.3      10 GLP5        0.0000 
     55 CA         10.5030  -72.0345  127.4052 C.3       5 GLC5        0.0000 
     56 CA         10.5430  -70.0930  128.9180 C.3      15 GLL5        0.0000 
     57 CA         10.2700  -73.2420  125.8260 C.3      10 GLP5        0.0000 
     58 CA          9.4490  -71.2635  130.5337 C.3       5 GLC5        0.0000 
     59 CA         10.9290  -71.5610  129.0510 C.3      15 GLL5        0.0000 
     60 CA          9.3785  -68.7882  128.5803 C.3       5 GLC5        0.0000 
     61 CA         12.2980  -67.3760  131.6410 C.3       5 GLC5        0.0000 
     62 CA         13.2820  -66.2170  132.9560 C.3      10 GLP5        0.0000 
     63 CA          8.6337  -68.9760  133.4863 C.3       5 GLC5        0.0000 
     64 CA         10.2020  -67.7530  132.9580 C.3      15 GLL5        0.0000 
     65 CA          6.8890  -69.9420  133.3530 C.3      10 GLP5        0.0000 
     66 CA          8.7153  -68.1995  135.9065 C.3       5 GLC5        0.0000 
     67 CA         10.5550  -68.2670  134.2810 C.3      15 GLL5        0.0000 
     68 CA         10.0798  -69.7935  135.7820 C.3       5 GLC5        0.0000 
     69 CA          9.8290  -71.7150  136.6980 C.3      10 GLP5        0.0000 
@<TRIPOS>BOND
@<TRIPOS>SUBSTRUCTURE
     1 ALC1       31 GROUP        1 X    ALC  0     ROOT ALC X 1
     2 SEC2        4 GROUP        1 X    SEC  0     **** SEC X 2
     3 LYC4       12 GROUP        1 X    LYC  0     **** LYC X 4
     4 ZIC7        1 GROUP        1 X    ZIC  0     **** ZIC X 5
     5 GLC5       28 GROUP        1 X    GLC  0     **** GLC X 6
     6 ALP1       33 GROUP        1 Y    ALP  0     ROOT ALP Y 8
     7 SEP2        6 GROUP        1 Y    SEP  0     **** SEP Y 9
     8 LYP4       14 GROUP        1 Y    LYP  0     **** LYP Y 11
     9 ZIP7        3 GROUP        1 Y    ZIP  0     **** ZIP Y 12
    10 GLP5       30 GROUP        1 Y    GLP  0     **** GLP Y 13
    11 ALL1       32 GROUP        1 Z    ALL  0     ROOT ALL Z 15
    12 SEL2        5 GROUP        1 Z    SEL  0     **** SEL Z 16
    13 LYL4       13 GROUP        1 Z    LYL  0     **** LYL Z 18
    14 ZIL7        2 GROUP        1 Z    ZIL  0     **** ZIL Z 19
    15 GLL5       29 GROUP        1 Z    GLL  0     **** GLL Z 20
@<TRIPOS>SET

