#    Name: 4lv8_ADP_1_ligand
#    Modification time : Tue Mar 25 11:30:40 2014

@<TRIPOS>MOLECULE
4lv8_ADP_1_ligand
   39    41     1     0     0
SMALL
NO_CHARGES


@<TRIPOS>ATOM
      1 PB         13.0210  -74.8000  128.1820 P.3       1 ADP601      0.0000 
      2 O1B        13.5610  -73.8710  127.1390 O.co2     1 ADP601      0.0000 
      3 O2B        11.7110  -75.4780  127.8180 O.co2     1 ADP601      0.0000 
      4 O3B        14.0300  -75.7930  128.7290 O.co2     1 ADP601      0.0000 
      5 PA         13.1620  -72.5210  129.9570 P.3       1 ADP601      0.0000 
      6 O1A        13.9530  -71.8680  128.8580 O.co2     1 ADP601      0.0000 
      7 O2A        13.7480  -72.7150  131.3340 O.co2     1 ADP601      0.0000 
      8 O3A        12.5790  -73.9420  129.4740 O.3       1 ADP601      0.0000 
      9 O5'        11.8270  -71.6670  130.1510 O.3       1 ADP601      0.0000 
     10 C5'        10.9290  -71.5610  129.0510 C.3       1 ADP601      0.0000 
     11 C4'        10.5430  -70.0930  128.9180 C.3       1 ADP601      0.0000 
     12 O4'         9.9260  -69.6690  130.1450 O.3       1 ADP601      0.0000 
     13 C3'        11.7470  -69.1820  128.6810 C.3       1 ADP601      0.0000 
     14 O3'        11.3480  -68.1120  127.8040 O.3       1 ADP601      0.0000 
     15 C2'        12.0110  -68.5670  130.0280 C.3       1 ADP601      0.0000 
     16 O2'        12.5960  -67.2650  129.9250 O.3       1 ADP601      0.0000 
     17 C1'        10.6170  -68.5030  130.6240 C.3       1 ADP601      0.0000 
     18 N9         10.7220  -68.6060  132.0880 N.pl3     1 ADP601      0.0000 
     19 C8         11.3360  -69.6130  132.7590 C.2       1 ADP601      0.0000 
     20 N7         11.2410  -69.4210  134.0960 N.2       1 ADP601      0.0000 
     21 C5         10.5550  -68.2670  134.2810 C.ar      1 ADP601      0.0000 
     22 C6         10.1060  -67.4770  135.4510 C.ar      1 ADP601      0.0000 
     23 N6         10.3810  -67.8520  136.7250 N.pl3     1 ADP601      0.0000 
     24 N1          9.4250  -66.3500  135.2030 N.ar      1 ADP601      0.0000 
     25 C2          9.1240  -65.9300  133.9560 C.ar      1 ADP601      0.0000 
     26 N3          9.5010  -66.5810  132.8390 N.ar      1 ADP601      0.0000 
     27 C4         10.2020  -67.7530  132.9580 C.ar      1 ADP601      0.0000 
     28 H          10.0190  -72.1349  129.2096 H         1 ADP601      0.0000 
     29 H          11.3889  -71.8737  128.1164 H         1 ADP601      0.0000 
     30 H           9.8600  -69.9804  128.0974 H         1 ADP601      0.0000 
     31 H          12.5536  -69.7240  128.3592 H         1 ADP601      0.0000 
     32 H          12.5829  -69.2509  130.6060 H         1 ADP601      0.0000 
     33 H          10.1480  -67.6164  130.3292 H         1 ADP601      0.0000 
     34 H          11.7840  -70.3707  132.3348 H         1 ADP601      0.0000 
     35 H          10.8918  -68.7050  136.8321 H         1 ADP601      0.0000 
     36 H          10.0486  -67.2423  137.4446 H         1 ADP601      0.0000 
     37 H           8.5561  -65.0327  133.8508 H         1 ADP601      0.0000 
     38 H          11.6223  -67.2744  128.2765 H         1 ADP601      0.0000 
     39 H          13.5829  -67.4253  129.9094 H         1 ADP601      0.0000 
@<TRIPOS>BOND
     1    2    1 ar   
     2    3    1 ar   
     3    4    1 ar   
     4    8    1 1    
     5    6    5 ar   
     6    7    5 ar   
     7    8    5 1    
     8    9    5 1    
     9   10    9 1    
    10   11   10 1    
    11   28   10 1    
    12   29   10 1    
    13   12   11 1    
    14   13   11 1    
    15   30   11 1    
    16   17   12 1    
    17   14   13 1    
    18   15   13 1    
    19   31   13 1    
    20   38   14 1    
    21   16   15 1    
    22   17   15 1    
    23   32   15 1    
    24   39   16 1    
    25   18   17 1    
    26   33   17 1    
    27   19   18 1    
    28   27   18 1    
    29   20   19 2    
    30   34   19 1    
    31   21   20 1    
    32   22   21 ar   
    33   27   21 ar   
    34   23   22 1    
    35   24   22 ar   
    36   35   23 1    
    37   36   23 1    
    38   25   24 ar   
    39   26   25 ar   
    40   37   25 1    
    41   27   26 ar   
@<TRIPOS>SUBSTRUCTURE
     1 ADP601      1 GROUP   
@<TRIPOS>SET

