#    Name: 1gpd_NAD_1_INTS_M
#    Modification time : Tue Mar 25 03:23:54 2014

@<TRIPOS>MOLECULE
1gpd_NAD_1_INTS_M
   56     0     9     0     0
SMALL
NO_CHARGES


@<TRIPOS>ATOM
      1 CA         -3.8110   12.5805   22.3255 C.3       3 GLC5        0.0000 
      2 CA         -2.8490   10.7510   21.8510 C.3       9 GLL5        0.0000 
      3 CA         -4.7730   14.4100   22.8000 C.3       6 GLP5        0.0000 
      4 CA          0.0160   10.2345   24.7850 C.3       3 GLC5        0.0000 
      5 CA         -1.2780   10.9440   23.6260 C.3       9 GLL5        0.0000 
      6 CA          1.3100    9.5250   25.9440 C.3       6 GLP5        0.0000 
      7 CA          0.5155   11.7765   22.7820 C.3       3 GLC5        0.0000 
      8 CA          2.3090   12.6090   21.9380 C.3       6 GLP5        0.0000 
      9 O          -0.8080   12.4930   23.8130 O.2       1 ALC1        0.0000 
     10 O          -0.2040   11.4850   22.8770 O.2       7 ALL1        0.0000 
     11 O          -1.4120   13.5010   24.7490 O.2       4 ALP1        0.0000 
     12 O          -0.2655   12.8760   23.0060 O.2       1 ALC1        0.0000 
     13 O          -0.3270   14.2670   23.1350 O.2       4 ALP1        0.0000 
     14 CA         -3.5510   13.2260   23.2750 C.3       3 GLC5        0.0000 
     15 CA         -2.3290   12.0420   23.7500 C.3       9 GLL5        0.0000 
     16 CA         -1.2170   13.7785   24.3995 C.3       3 GLC5        0.0000 
     17 CA         -0.1050   15.5150   25.0490 C.3       6 GLP5        0.0000 
     18 CA         -2.6200   11.9540   28.2640 C.3       3 GLC5        0.0000 
     19 CA         -4.1470   11.2020   26.7930 C.3       9 GLL5        0.0000 
     20 CA         -1.0930   12.7060   29.7350 C.3       6 GLP5        0.0000 
     21 N          -7.0135   13.4315   16.0490 N.am      2 SEC2        0.0000 
     22 N          -7.1460   12.2830   16.4300 N.am      8 SEL2        0.0000 
     23 N          -6.8810   14.5800   15.6680 N.am      5 SEP2        0.0000 
     24 CA        -10.1315   12.2760   17.3875 C.3       3 GLC5        0.0000 
     25 CA        -10.1870   10.5370   18.7980 C.3       9 GLL5        0.0000 
     26 CA        -10.0760   14.0150   15.9770 C.3       6 GLP5        0.0000 
     27 CA        -11.1300    8.4985   20.9310 C.3       3 GLC5        0.0000 
     28 CA        -11.3070    9.5110   18.9700 C.3       9 GLL5        0.0000 
     29 CA        -10.9530    7.4860   22.8920 C.3       6 GLP5        0.0000 
     30 O         -13.2140   11.0745   19.8540 O.2       1 ALC1        0.0000 
     31 O         -12.2550   10.0170   19.9000 O.2       7 ALL1        0.0000 
     32 O         -14.1730   12.1320   19.8080 O.2       4 ALP1        0.0000 
     33 O         -12.2980   11.7200   19.6585 O.2       1 ALC1        0.0000 
     34 O         -12.3410   13.4230   19.4170 O.2       4 ALP1        0.0000 
     35 CA        -10.9440   12.4670   16.5605 C.3       3 GLC5        0.0000 
     36 CA        -11.8120   10.9190   17.1440 C.3       9 GLL5        0.0000 
     37 CA        -12.4550   12.7055   18.0005 C.3       3 GLC5        0.0000 
     38 CA        -13.0980   14.4920   18.8570 C.3       6 GLP5        0.0000 
     39 CA        -10.3910   12.3350   15.4945 C.3       3 GLC5        0.0000 
     40 CA        -10.7060   10.6550   15.0120 C.3       9 GLL5        0.0000 
     41 CA        -12.3345   11.5075   10.8565 C.3       3 GLC5        0.0000 
     42 CA        -11.6620   11.3940   12.9610 C.3       9 GLL5        0.0000 
     43 CA        -13.0070   11.6210    8.7520 C.3       6 GLP5        0.0000 
     44 CA        -10.5720   12.3940   11.5390 C.3       3 GLC5        0.0000 
     45 CA         -9.4820   13.3940   10.1170 C.3       6 GLP5        0.0000 
     46 CA        -13.2680   13.8610   13.0885 C.3       3 GLC5        0.0000 
     47 CA        -12.7550   11.8390   13.6660 C.3       9 GLL5        0.0000 
     48 CA        -13.7810   15.8830   12.5110 C.3       6 GLP5        0.0000 
     49 CA         -9.1200   12.1430   19.5730 C.3       3 GLC5        0.0000 
     50 CA         -8.7450   14.0330   20.4710 C.3       6 GLP5        0.0000 
     51 CA        -10.7018   12.6547   13.8768 C.3       3 GLC5        0.0000 
     52 CA        -10.6230   10.7950   13.6340 C.3       9 GLL5        0.0000 
     53 CA        -10.2610   14.2150   14.4560 C.3       6 GLP5        0.0000 
     54 CA        -13.7773   11.0008   12.1578 C.3       3 GLC5        0.0000 
     55 CA        -15.3460   10.3850   11.0020 C.3       6 GLP5        0.0000 
     56 CA        -11.5235   12.9902   14.4005 C.3       3 GLC5        0.0000 
@<TRIPOS>BOND
@<TRIPOS>SUBSTRUCTURE
     1 ALC1        9 GROUP        1 X    ALC  0     ROOT ALC X 1
     2 SEC2       21 GROUP        1 X    SEC  0     **** SEC X 2
     3 GLC5        1 GROUP        1 X    GLC  0     **** GLC X 6
     4 ALP1       11 GROUP        1 Y    ALP  0     ROOT ALP Y 8
     5 SEP2       23 GROUP        1 Y    SEP  0     **** SEP Y 9
     6 GLP5        3 GROUP        1 Y    GLP  0     **** GLP Y 13
     7 ALL1       10 GROUP        1 Z    ALL  0     ROOT ALL Z 15
     8 SEL2       22 GROUP        1 Z    SEL  0     **** SEL Z 16
     9 GLL5        2 GROUP        1 Z    GLL  0     **** GLL Z 20
@<TRIPOS>SET

