#    Name: 1gpd_NAD_1_ligand
#    Modification time : Tue Mar 25 03:23:54 2014

@<TRIPOS>MOLECULE
1gpd_NAD_1_ligand
   70    74     1     0     0
SMALL
NO_CHARGES


@<TRIPOS>ATOM
      1 PA         -4.7790   10.1340   18.7720 P.3       1 NAD335      0.0000 
      2 O1A        -4.8400    8.7010   19.1350 O.co2     1 NAD335      0.0000 
      3 O2A        -3.8130   10.3910   17.6800 O.co2     1 NAD335      0.0000 
      4 O5B        -4.6000   10.8680   20.1830 O.3       1 NAD335      0.0000 
      5 C5B        -4.1110   10.1120   21.3060 C.3       1 NAD335      0.0000 
      6 C4B        -2.8490   10.7510   21.8510 C.3       1 NAD335      0.0000 
      7 O4B        -3.2150   11.9140   22.6480 O.3       1 NAD335      0.0000 
      8 C3B        -2.0290    9.8900   22.8130 C.3       1 NAD335      0.0000 
      9 O3B        -1.1690    8.9950   22.1210 O.3       1 NAD335      0.0000 
     10 C2B        -1.2780   10.9440   23.6260 C.3       1 NAD335      0.0000 
     11 O2B        -0.2040   11.4850   22.8770 O.3       1 NAD335      0.0000 
     12 C1B        -2.3290   12.0420   23.7500 C.3       1 NAD335      0.0000 
     13 N9A        -3.1370   11.9590   24.9990 N.pl3     1 NAD335      0.0000 
     14 C8A        -3.8090   12.9610   25.6650 C.2       1 NAD335      0.0000 
     15 N7A        -4.4240   12.5610   26.7350 N.2       1 NAD335      0.0000 
     16 C5A        -4.1470   11.2020   26.7930 C.ar      1 NAD335      0.0000 
     17 C6A        -4.5160   10.1980   27.7020 C.ar      1 NAD335      0.0000 
     18 N6A        -5.2810   10.4220   28.7810 N.pl3     1 NAD335      0.0000 
     19 N1A        -4.0700    8.9510   27.4640 N.ar      1 NAD335      0.0000 
     20 C2A        -3.3100    8.7360   26.3910 C.ar      1 NAD335      0.0000 
     21 N3A        -2.9030    9.5880   25.4760 N.ar      1 NAD335      0.0000 
     22 C4A        -3.3640   10.8280   25.7390 C.ar      1 NAD335      0.0000 
     23 O3         -6.2320   10.6400   18.3340 O.3       1 NAD335      0.0000 
     24 PN         -6.9640   10.9040   16.9360 P.3       1 NAD335      0.0000 
     25 O1N        -7.1460   12.2830   16.4300 O.co2     1 NAD335      0.0000 
     26 O2N        -6.2610   10.1670   15.8630 O.co2     1 NAD335      0.0000 
     27 O5D        -8.3940   10.2360   17.1980 O.3       1 NAD335      0.0000 
     28 C5D        -8.8030    9.9690   18.5520 C.3       1 NAD335      0.0000 
     29 C4D       -10.1870   10.5370   18.7980 C.3       1 NAD335      0.0000 
     30 O4D       -10.5450   11.3060   17.6540 O.3       1 NAD335      0.0000 
     31 C3D       -11.3070    9.5110   18.9700 C.3       1 NAD335      0.0000 
     32 O3D       -12.2550   10.0170   19.9000 O.3       1 NAD335      0.0000 
     33 C2D       -11.9390    9.4630   17.5800 C.3       1 NAD335      0.0000 
     34 O2D       -13.2800    9.0060   17.5580 O.3       1 NAD335      0.0000 
     35 C1D       -11.8120   10.9190   17.1440 C.3       1 NAD335      0.0000 
     36 N1N       -11.7890   11.1020   15.6650 N.pl3     1 NAD335      0.0000 
     37 C2N       -10.7060   10.6550   15.0120 C.ar      1 NAD335      0.0000 
     38 C3N       -10.6230   10.7950   13.6340 C.ar      1 NAD335      0.0000 
     39 C7N        -9.3700   10.2610   13.0050 C.2       1 NAD335      0.0000 
     40 O7N        -9.2170   10.3450   11.7940 O.2       1 NAD335      0.0000 
     41 N7N        -8.4520    9.7030   13.8200 N.am      1 NAD335      0.0000 
     42 C4N       -11.6620   11.3940   12.9610 C.ar      1 NAD335      0.0000 
     43 C5N       -12.7550   11.8390   13.6660 C.ar      1 NAD335      0.0000 
     44 C6N       -12.8170   11.6920   15.0240 C.ar      1 NAD335      0.0000 
     45 H          -3.8760    9.0797   21.0191 H         1 NAD335      0.0000 
     46 H          -4.8522   10.0742   22.1137 H         1 NAD335      0.0000 
     47 H          -2.2115   11.0661   21.0464 H         1 NAD335      0.0000 
     48 H          -2.7212    9.4074   23.4723 H         1 NAD335      0.0000 
     49 H          -1.0479   10.5826   24.5566 H         1 NAD335      0.0000 
     50 H          -1.8251   12.9986   23.7103 H         1 NAD335      0.0000 
     51 H          -3.7981   13.9056   25.3182 H         1 NAD335      0.0000 
     52 H          -5.6117   11.3583   28.8992 H         1 NAD335      0.0000 
     53 H          -5.4521    9.6327   29.3706 H         1 NAD335      0.0000 
     54 H          -2.9750    7.6827   26.2554 H         1 NAD335      0.0000 
     55 H          -8.1129   10.4237   19.2735 H         1 NAD335      0.0000 
     56 H          -8.8344    8.8911   18.7533 H         1 NAD335      0.0000 
     57 H         -10.1661   11.1721   19.6692 H         1 NAD335      0.0000 
     58 H         -10.9020    8.5900   19.2024 H         1 NAD335      0.0000 
     59 H         -11.2724    8.8948   16.9506 H         1 NAD335      0.0000 
     60 H         -12.5881   11.4823   17.5922 H         1 NAD335      0.0000 
     61 H          -9.9217   10.2030   15.5166 H         1 NAD335      0.0000 
     62 H          -7.5990    9.4112   13.3874 H         1 NAD335      0.0000 
     63 H          -8.7059    9.6306   14.7845 H         1 NAD335      0.0000 
     64 H         -11.6214   11.5080   11.9389 H         1 NAD335      0.0000 
     65 H         -13.5412   12.2917   13.1583 H         1 NAD335      0.0000 
     66 H         -13.6432   12.0311   15.5423 H         1 NAD335      0.0000 
     67 H          -0.2715    9.4357   22.1352 H         1 NAD335      0.0000 
     68 H          -0.3006   12.4764   22.9653 H         1 NAD335      0.0000 
     69 H         -12.6800   10.7957   19.4384 H         1 NAD335      0.0000 
     70 H         -13.5283    8.8864   18.5193 H         1 NAD335      0.0000 
@<TRIPOS>BOND
     1    2    1 ar   
     2    3    1 ar   
     3    4    1 1    
     4   23    1 1    
     5    5    4 1    
     6    6    5 1    
     7   45    5 1    
     8   46    5 1    
     9    7    6 1    
    10    8    6 1    
    11   47    6 1    
    12   12    7 1    
    13    9    8 1    
    14   10    8 1    
    15   48    8 1    
    16   67    9 1    
    17   11   10 1    
    18   12   10 1    
    19   49   10 1    
    20   68   11 1    
    21   13   12 1    
    22   50   12 1    
    23   14   13 1    
    24   22   13 1    
    25   15   14 2    
    26   51   14 1    
    27   16   15 1    
    28   17   16 ar   
    29   22   16 ar   
    30   18   17 1    
    31   19   17 ar   
    32   52   18 1    
    33   53   18 1    
    34   20   19 ar   
    35   21   20 ar   
    36   54   20 1    
    37   22   21 ar   
    38   24   23 1    
    39   25   24 ar   
    40   26   24 ar   
    41   27   24 1    
    42   28   27 1    
    43   29   28 1    
    44   55   28 1    
    45   56   28 1    
    46   30   29 1    
    47   31   29 1    
    48   57   29 1    
    49   35   30 1    
    50   32   31 1    
    51   33   31 1    
    52   58   31 1    
    53   69   32 1    
    54   34   33 1    
    55   35   33 1    
    56   59   33 1    
    57   70   34 1    
    58   36   35 1    
    59   60   35 1    
    60   37   36 ar   
    61   44   36 ar   
    62   38   37 ar   
    63   61   37 1    
    64   39   38 1    
    65   42   38 ar   
    66   40   39 2    
    67   41   39 am   
    68   62   41 1    
    69   63   41 1    
    70   43   42 ar   
    71   64   42 1    
    72   44   43 ar   
    73   65   43 1    
    74   66   44 1    
@<TRIPOS>SUBSTRUCTURE
     1 NAD335      1 GROUP   
@<TRIPOS>SET

