#    Name: 4cby_KEE_3_INTS_M
#    Modification time : Tue Mar 25 09:10:41 2014

@<TRIPOS>MOLECULE
4cby_KEE_3_INTS_M
   38     0    12     0     0
SMALL
NO_CHARGES


@<TRIPOS>ATOM
      1 CA         30.4100  -12.7150    9.0630 C.3       4 GLC5        0.0000 
      2 CA         29.1520  -14.0100    9.2930 C.3      12 GLL5        0.0000 
      3 CA         31.6680  -11.4200    8.8330 C.3       8 GLP5        0.0000 
      4 CA         26.8930  -16.5135   12.5690 C.3       4 GLC5        0.0000 
      5 CA         28.9320  -15.7960   12.7490 C.3      12 GLL5        0.0000 
      6 CA         24.8540  -17.2310   12.3890 C.3       8 GLP5        0.0000 
      7 CA         28.7115  -11.5205   11.8450 C.3       4 GLC5        0.0000 
      8 CA         29.5240  -13.5300   12.2570 C.3      12 GLL5        0.0000 
      9 CA         27.8990   -9.5110   11.4330 C.3       8 GLP5        0.0000 
     10 CA         31.5730  -15.3350    3.6275 C.3       4 GLC5        0.0000 
     11 CA         30.8350  -15.2200    5.5700 C.3      12 GLL5        0.0000 
     12 CA         32.3110  -15.4500    1.6850 C.3       8 GLP5        0.0000 
     13 CA         31.7840  -17.6735    5.9170 C.3       4 GLC5        0.0000 
     14 CA         31.2520  -15.8230    6.7590 C.3      12 GLL5        0.0000 
     15 CA         32.3160  -19.5240    5.0750 C.3       8 GLP5        0.0000 
     16 Zn         25.7070  -16.2265    8.2150 Zn        3 ZIC7        0.0000 
     17 Zn         26.6790  -15.9720    8.2290 Zn       11 ZIL7        0.0000 
     18 Zn         24.7350  -16.4810    8.2010 Zn        7 ZIP7        0.0000 
     19 O          24.7380  -13.1760    9.5430 O.2       1 ALC1        0.0000 
     20 O          25.5940  -14.0640    8.6310 O.2       9 ALL1        0.0000 
     21 O          23.8820  -12.2880   10.4550 O.2       5 ALP1        0.0000 
     22 Zn         24.6070  -15.4200    8.0345 Zn        3 ZIC7        0.0000 
     23 Zn         24.4790  -14.3590    7.8680 Zn       11 ZIL7        0.0000 
     24 N          23.3935  -13.6345    7.7945 N.am      2 SEC2        0.0000 
     25 N          24.4790  -14.3590    7.8680 N.am     10 SEL2        0.0000 
     26 N          22.3080  -12.9100    7.7210 N.am      6 SEP2        0.0000 
     27 CA         27.5005  -15.5373   14.7235 C.3       4 GLC5        0.0000 
     28 CA         25.9440  -15.3930   16.0170 C.3       8 GLP5        0.0000 
     29 CA         27.8887  -14.8650    5.3013 C.3       4 GLC5        0.0000 
     30 CA         29.8500  -14.2170    5.6120 C.3      12 GLL5        0.0000 
     31 CA         26.2060  -15.7060    4.3800 C.3       8 GLP5        0.0000 
     32 CA         31.3801  -13.1690    5.5451 C.3       4 GLC5        0.0000 
     33 CA         29.2930  -13.8310    6.8330 C.3      12 GLL5        0.0000 
     34 CA         32.5570  -11.7160    5.1940 C.3       8 GLP5        0.0000 
     35 CA         32.9387  -15.5330    7.5962 C.3       4 GLC5        0.0000 
     36 CA         34.9040  -15.4360    7.8280 C.3       8 GLP5        0.0000 
     37 CA         27.8582  -14.9616   16.0821 C.3       4 GLC5        0.0000 
     38 CA         29.6090  -14.3090   14.5390 C.3      12 GLL5        0.0000 
@<TRIPOS>BOND
@<TRIPOS>SUBSTRUCTURE
     1 ALC1       19 GROUP        1 X    ALC  0     ROOT ALC X 1
     2 SEC2       24 GROUP        1 X    SEC  0     **** SEC X 2
     3 ZIC7       16 GROUP        1 X    ZIC  0     **** ZIC X 5
     4 GLC5        1 GROUP        1 X    GLC  0     **** GLC X 6
     5 ALP1       21 GROUP        1 Y    ALP  0     ROOT ALP Y 8
     6 SEP2       26 GROUP        1 Y    SEP  0     **** SEP Y 9
     7 ZIP7       18 GROUP        1 Y    ZIP  0     **** ZIP Y 12
     8 GLP5        3 GROUP        1 Y    GLP  0     **** GLP Y 13
     9 ALL1       20 GROUP        1 Z    ALL  0     ROOT ALL Z 15
    10 SEL2       25 GROUP        1 Z    SEL  0     **** SEL Z 16
    11 ZIL7       17 GROUP        1 Z    ZIL  0     **** ZIL Z 19
    12 GLL5        2 GROUP        1 Z    GLL  0     **** GLL Z 20
@<TRIPOS>SET

