#    Name: 4cby_KEE_3_ligand
#    Modification time : Tue Mar 25 09:10:41 2014

@<TRIPOS>MOLECULE
4cby_KEE_3_ligand
   39    42     1     0     0
SMALL
NO_CHARGES


@<TRIPOS>ATOM
      1 C1         26.6390  -14.8710    8.7640 C.2       1 KEE2033     0.0000 
      2 C2         27.6860  -14.2360    9.6900 C.3       1 KEE2033     0.0000 
      3 C3         28.8120  -15.0810   10.3440 C.3       1 KEE2033     0.0000 
      4 C4         29.1520  -14.0100    9.2930 C.3       1 KEE2033     0.0000 
      5 C5         29.1010  -14.7870   11.7940 C.ar      1 KEE2033     0.0000 
      6 C6         28.9320  -15.7960   12.7490 C.ar      1 KEE2033     0.0000 
      7 C7         29.1820  -15.5670   14.1110 C.ar      1 KEE2033     0.0000 
      8 C8         29.6090  -14.3090   14.5390 C.ar      1 KEE2033     0.0000 
      9 C9         29.7740  -13.2940   13.6070 C.ar      1 KEE2033     0.0000 
     10 C10        29.5240  -13.5300   12.2570 C.ar      1 KEE2033     0.0000 
     11 C11        29.7060  -14.4580    8.0000 C.ar      1 KEE2033     0.0000 
     12 C12        29.2930  -13.8310    6.8330 C.ar      1 KEE2033     0.0000 
     13 C13        29.8500  -14.2170    5.6120 C.ar      1 KEE2033     0.0000 
     14 C14        30.8350  -15.2200    5.5700 C.ar      1 KEE2033     0.0000 
     15 C15        31.2520  -15.8230    6.7590 C.ar      1 KEE2033     0.0000 
     16 C16        30.6950  -15.4370    7.9700 C.ar      1 KEE2033     0.0000 
     17 C17        29.8990  -14.0180   15.9660 C.2       1 KEE2033     0.0000 
     18 O18        30.3540  -12.8100   16.4470 O.3       1 KEE2033     0.0000 
     19 C19        30.5100  -12.9500   17.8180 C.2       1 KEE2033     0.0000 
     20 N20        30.1550  -14.2210   18.1600 N.2       1 KEE2033     0.0000 
     21 C21        29.7910  -14.8970   17.0420 C.2       1 KEE2033     0.0000 
     22 O22        26.6790  -15.9720    8.2290 O.2       1 KEE2033     0.0000 
     23 N23        25.5940  -14.0640    8.6310 N.am      1 KEE2033     0.0000 
     24 O24        24.4790  -14.3590    7.8680 O.3       1 KEE2033     0.0000 
     25 H          27.5031  -13.5264   10.3721 H         1 KEE2033     0.0000 
     26 H          28.8036  -15.9165    9.8904 H         1 KEE2033     0.0000 
     27 H          29.4433  -13.2326    9.8356 H         1 KEE2033     0.0000 
     28 H          28.6152  -16.7340   12.4455 H         1 KEE2033     0.0000 
     29 H          29.0501  -16.3251   14.7879 H         1 KEE2033     0.0000 
     30 H          30.0832  -12.3594   13.9131 H         1 KEE2033     0.0000 
     31 H          29.6520  -12.7613   11.5724 H         1 KEE2033     0.0000 
     32 H          28.5859  -13.0910    6.8627 H         1 KEE2033     0.0000 
     33 H          29.5429  -13.7705    4.7409 H         1 KEE2033     0.0000 
     34 H          31.2391  -15.5019    4.6761 H         1 KEE2033     0.0000 
     35 H          31.9746  -16.5552    6.7326 H         1 KEE2033     0.0000 
     36 H          31.0115  -15.8730    8.8459 H         1 KEE2033     0.0000 
     37 H          30.8147  -12.2653   18.4091 H         1 KEE2033     0.0000 
     38 H          29.5107  -15.8028   16.9806 H         1 KEE2033     0.0000 
     39 H          25.5920  -13.1222    9.1359 H         1 KEE2033     0.0000 
@<TRIPOS>BOND
     1    2    1 1    
     2   22    1 2    
     3   23    1 am   
     4    3    2 1    
     5    4    2 1    
     6   25    2 1    
     7    4    3 1    
     8    5    3 1    
     9   26    3 1    
    10   11    4 1    
    11   27    4 1    
    12    6    5 ar   
    13   10    5 ar   
    14    7    6 ar   
    15   28    6 1    
    16    8    7 ar   
    17   29    7 1    
    18    9    8 ar   
    19   17    8 1    
    20   10    9 ar   
    21   30    9 1    
    22   31   10 1    
    23   12   11 ar   
    24   16   11 ar   
    25   13   12 ar   
    26   32   12 1    
    27   14   13 ar   
    28   33   13 1    
    29   15   14 ar   
    30   34   14 1    
    31   16   15 ar   
    32   35   15 1    
    33   36   16 1    
    34   18   17 1    
    35   21   17 2    
    36   19   18 1    
    37   20   19 2    
    38   37   19 1    
    39   21   20 1    
    40   38   21 1    
    41   24   23 1    
    42   39   23 1    
@<TRIPOS>SUBSTRUCTURE
     1 KEE2033     1 GROUP   
@<TRIPOS>SET

