#    Name: 3pjt_C2E_2_INTS_M
#    Modification time : Tue Mar 25 06:41:17 2014

@<TRIPOS>MOLECULE
3pjt_C2E_2_INTS_M
   77     0    12     0     0
SMALL
NO_CHARGES


@<TRIPOS>ATOM
      1 NZ         -5.4910  -84.7895    9.6760 N.4       3 LYC4        0.0000 
      2 NZ         -4.0610  -84.1660    9.8690 N.4      11 LYL4        0.0000 
      3 NZ         -6.9210  -85.4130    9.4830 N.4       7 LYP4        0.0000 
      4 N          -5.4910  -84.7895    9.6760 N.am      2 SEC2        0.0000 
      5 N          -4.0610  -84.1660    9.8690 N.am     10 SEL2        0.0000 
      6 N          -6.9210  -85.4130    9.4830 N.am      6 SEP2        0.0000 
      7 N          -4.6305  -81.7915   11.3865 N.am      2 SEC2        0.0000 
      8 N          -3.1360  -82.2720   11.1920 N.am     10 SEL2        0.0000 
      9 N          -6.1250  -81.3110   11.5810 N.am      6 SEP2        0.0000 
     10 CA          2.8155  -85.8325    9.4025 C.3       4 GLC5        0.0000 
     11 CA          2.0970  -83.9020    9.2850 C.3      12 GLL5        0.0000 
     12 CA          3.5340  -87.7630    9.5200 C.3       8 GLP5        0.0000 
     13 N           3.1005  -84.8700   13.4215 N.am      2 SEC2        0.0000 
     14 N           3.2600  -83.2370   13.4970 N.am     10 SEL2        0.0000 
     15 N           2.9410  -86.5030   13.3460 N.am      6 SEP2        0.0000 
     16 CA          3.4055  -83.0720   15.0445 C.3       4 GLC5        0.0000 
     17 CA          3.8590  -82.0490   13.3030 C.3      12 GLL5        0.0000 
     18 CA          2.9520  -84.0950   16.7860 C.3       8 GLP5        0.0000 
     19 N           5.0405  -82.8905   15.7610 N.am      2 SEC2        0.0000 
     20 N           4.8260  -81.5470   15.4550 N.am     10 SEL2        0.0000 
     21 N           5.2550  -84.2340   16.0670 N.am      6 SEP2        0.0000 
     22 O           5.9495  -79.0685   14.2485 O.2       1 ALC1        0.0000 
     23 O           5.0780  -80.0510   13.6430 O.2       9 ALL1        0.0000 
     24 O           6.8210  -78.0860   14.8540 O.2       5 ALP1        0.0000 
     25 O           6.0540  -78.2665   13.3590 O.2       1 ALC1        0.0000 
     26 O           5.2870  -78.4470   11.8640 O.2       9 ALL1        0.0000 
     27 N           2.8905  -79.6740   10.8155 N.am      2 SEC2        0.0000 
     28 N           4.1250  -80.5080   11.5400 N.am     10 SEL2        0.0000 
     29 N           1.6560  -78.8400   10.0910 N.am      6 SEP2        0.0000 
     30 NZ          1.4570  -86.0295    5.8485 N.4       3 LYC4        0.0000 
     31 NZ          0.4380  -85.0490    5.8980 N.4      11 LYL4        0.0000 
     32 NZ          2.2020  -87.4570    4.5760 N.4       7 LYP4        0.0000 
     33 N           1.4570  -86.0295    5.8485 N.am      2 SEC2        0.0000 
     34 N           0.4380  -85.0490    5.8980 N.am     10 SEL2        0.0000 
     35 N           2.4760  -87.0100    5.7990 N.am      6 SEP2        0.0000 
     36 N           0.7650  -86.0430    4.9205 N.am      2 SEC2        0.0000 
     37 N           1.0920  -87.0370    3.9430 N.am      6 SEP2        0.0000 
     38 N           1.1165  -82.7305    3.4325 N.am      2 SEC2        0.0000 
     39 N           1.6990  -83.2090    4.7550 N.am     10 SEL2        0.0000 
     40 N           0.5340  -82.2520    2.1100 N.am      6 SEP2        0.0000 
     41 CA         -1.5485  -83.9135    4.2960 C.3       4 GLC5        0.0000 
     42 CA         -1.5570  -83.2000    6.1340 C.3      12 GLL5        0.0000 
     43 CA         -1.5400  -84.6270    2.4580 C.3       8 GLP5        0.0000 
     44 N          -4.0435  -80.8175    8.7195 N.am      2 SEC2        0.0000 
     45 N          -3.1060  -82.1700    8.7080 N.am     10 SEL2        0.0000 
     46 N          -4.9810  -79.4650    8.7310 N.am      6 SEP2        0.0000 
     47 N          -5.2355  -80.7025    8.1265 N.am      2 SEC2        0.0000 
     48 N          -5.4900  -81.9400    7.5220 N.am     10 SEL2        0.0000 
     49 N          -6.1185  -80.4845    7.4245 N.am      2 SEC2        0.0000 
     50 N          -6.7470  -79.0290    7.3270 N.am      6 SEP2        0.0000 
     51 O          -6.2985  -81.9965    8.6005 O.2       1 ALC1        0.0000 
     52 O          -5.4900  -81.9400    7.5220 O.2       9 ALL1        0.0000 
     53 O          -7.1070  -82.0530    9.6790 O.2       5 ALP1        0.0000 
     54 CA         -4.4045  -82.5345    3.6480 C.3       4 GLC5        0.0000 
     55 CA         -4.5650  -82.8310    5.5310 C.3      12 GLL5        0.0000 
     56 CA         -4.2440  -82.2380    1.7650 C.3       8 GLP5        0.0000 
     57 N          -3.5900  -87.6635    4.1080 N.am      2 SEC2        0.0000 
     58 N          -4.4250  -86.3480    4.3670 N.am     10 SEL2        0.0000 
     59 N          -2.7550  -88.9790    3.8490 N.am      6 SEP2        0.0000 
     60 CA         -4.6430  -87.4055    2.7220 C.3       4 GLC5        0.0000 
     61 CA         -5.6440  -86.0130    3.8630 C.3      12 GLL5        0.0000 
     62 CA         -3.6420  -88.7980    1.5810 C.3       8 GLP5        0.0000 
     63 O         -10.1940  -84.9245    1.6115 O.2       1 ALC1        0.0000 
     64 O          -9.1550  -84.0890    2.6990 O.2       9 ALL1        0.0000 
     65 O         -11.2330  -85.7600    0.5240 O.2       5 ALP1        0.0000 
     66 CA         -5.0490  -83.4545    2.9765 C.3       4 GLC5        0.0000 
     67 CA         -5.8540  -84.6710    4.1880 C.3      12 GLL5        0.0000 
     68 CA         -7.6135  -84.7210    5.1495 C.3       4 GLC5        0.0000 
     69 CA         -9.3730  -84.7710    6.1110 C.3       8 GLP5        0.0000 
     70 CA          0.7900  -85.7218    8.8720 C.3       4 GLC5        0.0000 
     71 CA          0.9870  -83.6470    8.4750 C.3      12 GLL5        0.0000 
     72 CA          0.0380  -87.6690    8.8640 C.3       8 GLP5        0.0000 
     73 CA          2.4710  -80.8135   13.1988 C.3       4 GLC5        0.0000 
     74 CA          3.6310  -81.6690   11.9840 C.3      12 GLL5        0.0000 
     75 CA          1.1970  -79.7680   13.7540 C.3       8 GLP5        0.0000 
     76 CA          5.4215  -82.7395   13.1567 C.3       4 GLC5        0.0000 
     77 CA          7.0980  -83.6200   13.6700 C.3       8 GLP5        0.0000 
@<TRIPOS>BOND
@<TRIPOS>SUBSTRUCTURE
     1 ALC1       22 GROUP        1 X    ALC  0     ROOT ALC X 1
     2 SEC2        4 GROUP        1 X    SEC  0     **** SEC X 2
     3 LYC4        1 GROUP        1 X    LYC  0     **** LYC X 4
     4 GLC5       10 GROUP        1 X    GLC  0     **** GLC X 6
     5 ALP1       24 GROUP        1 Y    ALP  0     ROOT ALP Y 8
     6 SEP2        6 GROUP        1 Y    SEP  0     **** SEP Y 9
     7 LYP4        3 GROUP        1 Y    LYP  0     **** LYP Y 11
     8 GLP5       12 GROUP        1 Y    GLP  0     **** GLP Y 13
     9 ALL1       23 GROUP        1 Z    ALL  0     ROOT ALL Z 15
    10 SEL2        5 GROUP        1 Z    SEL  0     **** SEL Z 16
    11 LYL4        2 GROUP        1 Z    LYL  0     **** LYL Z 18
    12 GLL5       11 GROUP        1 Z    GLL  0     **** GLL Z 20
@<TRIPOS>SET

