#    Name: 3pjt_C2E_2_ligand
#    Modification time : Tue Mar 25 06:41:17 2014

@<TRIPOS>MOLECULE
3pjt_C2E_2_ligand
   68    74     1     0     0
SMALL
NO_CHARGES


@<TRIPOS>ATOM
      1 P1         -2.9650  -83.1270    9.9270 P.3       1 C2E2256     0.0000 
      2 O2P        -4.0610  -84.1660    9.8690 O.co2     1 C2E2256     0.0000 
      3 O1P        -3.1360  -82.2720   11.1920 O.co2     1 C2E2256     0.0000 
      4 O5'        -1.5810  -83.8740    9.9950 O.3       1 C2E2256     0.0000 
      5 C5'        -0.5000  -83.0900   10.3750 C.3       1 C2E2256     0.0000 
      6 C4'         0.3170  -82.5420    9.2430 C.3       1 C2E2256     0.0000 
      7 O4'         1.3710  -81.7600    9.7530 O.3       1 C2E2256     0.0000 
      8 C3'         0.9870  -83.6470    8.4750 C.3       1 C2E2256     0.0000 
      9 O3'         1.5000  -83.2120    7.2660 O.3       1 C2E2256     0.0000 
     10 C2'         2.0970  -83.9020    9.2850 C.3       1 C2E2256     0.0000 
     11 O2'         3.1830  -84.3240    8.4660 O.3       1 C2E2256     0.0000 
     12 C1'         2.4340  -82.6400    9.9310 C.3       1 C2E2256     0.0000 
     13 N9          2.9080  -82.6420   11.4440 N.pl3     1 C2E2256     0.0000 
     14 C8          2.6780  -83.5960   12.3450 C.2       1 C2E2256     0.0000 
     15 N7          3.2600  -83.2370   13.4970 N.2       1 C2E2256     0.0000 
     16 C5          3.8590  -82.0490   13.3030 C.2       1 C2E2256     0.0000 
     17 C6          4.5990  -81.2070   14.1380 C.2       1 C2E2256     0.0000 
     18 O6          4.8260  -81.5470   15.4550 O.2       1 C2E2256     0.0000 
     19 N1          5.0780  -80.0510   13.6430 N.am      1 C2E2256     0.0000 
     20 C2          4.8350  -79.7120   12.3610 C.2       1 C2E2256     0.0000 
     21 N2          5.2870  -78.4470   11.8640 N.pl3     1 C2E2256     0.0000 
     22 N3          4.1250  -80.5080   11.5400 N.2       1 C2E2256     0.0000 
     23 C4          3.6310  -81.6690   11.9840 C.2       1 C2E2256     0.0000 
     24 P11         0.8030  -83.5820    5.9080 P.3       1 C2E2256     0.0000 
     25 O21         0.4380  -85.0490    5.8980 O.co2     1 C2E2256     0.0000 
     26 O11         1.6990  -83.2090    4.7550 O.co2     1 C2E2256     0.0000 
     27 O5A        -0.4200  -82.6680    5.6410 O.3       1 C2E2256     0.0000 
     28 C5A        -1.5570  -83.2000    6.1340 C.3       1 C2E2256     0.0000 
     29 C4A        -2.5510  -82.1600    6.3890 C.3       1 C2E2256     0.0000 
     30 O4A        -3.4100  -82.0960    5.2110 O.3       1 C2E2256     0.0000 
     31 C3A        -3.3050  -82.7900    7.4940 C.3       1 C2E2256     0.0000 
     32 O3A        -3.1060  -82.1700    8.7080 O.3       1 C2E2256     0.0000 
     33 C2A        -4.6880  -82.9110    7.0270 C.3       1 C2E2256     0.0000 
     34 O2A        -5.4900  -81.9400    7.5220 O.3       1 C2E2256     0.0000 
     35 C1A        -4.5650  -82.8310    5.5310 C.3       1 C2E2256     0.0000 
     36 N91        -4.7590  -84.2560    4.8500 N.pl3     1 C2E2256     0.0000 
     37 C81        -3.8980  -85.2790    4.9730 C.2       1 C2E2256     0.0000 
     38 N71        -4.4250  -86.3480    4.3670 N.2       1 C2E2256     0.0000 
     39 C51        -5.6440  -86.0130    3.8630 C.2       1 C2E2256     0.0000 
     40 C61        -6.6390  -86.7060    3.1440 C.2       1 C2E2256     0.0000 
     41 O61        -6.5060  -88.0440    2.8260 O.2       1 C2E2256     0.0000 
     42 N11        -7.7570  -86.0470    2.7940 N.am      1 C2E2256     0.0000 
     43 C21        -7.9490  -84.7520    3.1120 C.2       1 C2E2256     0.0000 
     44 N21        -9.1550  -84.0890    2.6990 N.pl3     1 C2E2256     0.0000 
     45 N31        -7.0020  -84.0780    3.8080 N.2       1 C2E2256     0.0000 
     46 C41        -5.8540  -84.6710    4.1880 C.2       1 C2E2256     0.0000 
     47 H           0.2039  -83.6553   11.0489 H         1 C2E2256     0.0000 
     48 H          -0.8257  -82.2137   11.0037 H         1 C2E2256     0.0000 
     49 H          -0.3002  -81.9850    8.5786 H         1 C2E2256     0.0000 
     50 H           0.3540  -84.4711    8.4219 H         1 C2E2256     0.0000 
     51 H           1.8703  -84.6339   10.0332 H         1 C2E2256     0.0000 
     52 H           3.3230  -82.1987    9.3631 H         1 C2E2256     0.0000 
     53 H           2.1754  -84.4128   12.1966 H         1 C2E2256     0.0000 
     54 H           5.6386  -79.4151   14.2516 H         1 C2E2256     0.0000 
     55 H           5.1270  -78.2734   10.8923 H         1 C2E2256     0.0000 
     56 H           5.7248  -77.8434   12.5304 H         1 C2E2256     0.0000 
     57 H          -1.3892  -83.7567    7.0886 H         1 C2E2256     0.0000 
     58 H          -2.0133  -83.9493    5.4414 H         1 C2E2256     0.0000 
     59 H          -2.1302  -81.2831    6.6624 H         1 C2E2256     0.0000 
     60 H          -2.9042  -83.8557    7.5340 H         1 C2E2256     0.0000 
     61 H          -5.0275  -83.9203    7.2546 H         1 C2E2256     0.0000 
     62 H          -5.4814  -82.2363    5.2023 H         1 C2E2256     0.0000 
     63 H          -3.0414  -85.2450    5.4247 H         1 C2E2256     0.0000 
     64 H          -8.5073  -86.5579    2.2542 H         1 C2E2256     0.0000 
     65 H          -9.8033  -84.6412    2.1749 H         1 C2E2256     0.0000 
     66 H          -9.2453  -83.1307    2.9702 H         1 C2E2256     0.0000 
     67 H           2.9068  -84.0958    7.5323 H         1 C2E2256     0.0000 
     68 H          -5.9342  -82.3520    8.3176 H         1 C2E2256     0.0000 
@<TRIPOS>BOND
     1    2    1 ar   
     2    3    1 ar   
     3    4    1 1    
     4   32    1 1    
     5    5    4 1    
     6    6    5 1    
     7   47    5 1    
     8   48    5 1    
     9    7    6 1    
    10    8    6 1    
    11   49    6 1    
    12   12    7 1    
    13    9    8 1    
    14   10    8 1    
    15   50    8 1    
    16   24    9 1    
    17   11   10 1    
    18   12   10 1    
    19   51   10 1    
    20   67   11 1    
    21   13   12 1    
    22   52   12 1    
    23   14   13 1    
    24   23   13 1    
    25   15   14 2    
    26   53   14 1    
    27   16   15 1    
    28   17   16 1    
    29   23   16 2    
    30   18   17 2    
    31   19   17 am   
    32   20   19 1    
    33   54   19 1    
    34   21   20 1    
    35   22   20 2    
    36   55   21 1    
    37   56   21 1    
    38   23   22 1    
    39   25   24 ar   
    40   26   24 ar   
    41   27   24 1    
    42   28   27 1    
    43   29   28 1    
    44   57   28 1    
    45   58   28 1    
    46   30   29 1    
    47   31   29 1    
    48   59   29 1    
    49   35   30 1    
    50   32   31 1    
    51   33   31 1    
    52   60   31 1    
    53   34   33 1    
    54   35   33 1    
    55   61   33 1    
    56   68   34 1    
    57   36   35 1    
    58   62   35 1    
    59   37   36 1    
    60   46   36 1    
    61   38   37 2    
    62   63   37 1    
    63   39   38 1    
    64   40   39 1    
    65   46   39 2    
    66   41   40 2    
    67   42   40 am   
    68   43   42 1    
    69   64   42 1    
    70   44   43 1    
    71   45   43 2    
    72   65   44 1    
    73   66   44 1    
    74   46   45 1    
@<TRIPOS>SUBSTRUCTURE
     1 C2E2256     1 GROUP   
@<TRIPOS>SET

