#    Name: 2q3k_MUW_1_INTS_M
#    Modification time : Mon Mar 24 20:41:53 2014

@<TRIPOS>MOLECULE
2q3k_MUW_1_INTS_M
  102     0    12     0     0
SMALL
NO_CHARGES


@<TRIPOS>ATOM
      1 N          19.2630   31.1805    9.1920 N.am      2 SEC2        0.0000 
      2 N          19.8340   30.8070   10.4830 N.am     10 SEL2        0.0000 
      3 N          18.6920   31.5540    7.9010 N.am      6 SEP2        0.0000 
      4 N          21.6630   33.0285   11.4210 N.am      2 SEC2        0.0000 
      5 N          21.0590   31.8390   12.1870 N.am     10 SEL2        0.0000 
      6 N          22.2670   34.2180   10.6550 N.am      6 SEP2        0.0000 
      7 CA         21.2270   29.5790    8.6050 C.3       4 GLC5        0.0000 
      8 CA         21.9290   28.8550   10.2280 C.3      12 GLL5        0.0000 
      9 CA         20.5250   30.3030    6.9820 C.3       8 GLP5        0.0000 
     10 CA         25.3890   28.9775   11.0135 C.3       4 GLC5        0.0000 
     11 CA         25.1630   26.8390   10.9200 C.3      12 GLL5        0.0000 
     12 CA         25.6150   31.1160   11.1070 C.3       8 GLP5        0.0000 
     13 CA         26.5700   25.6010   11.1010 C.3       4 GLC5        0.0000 
     14 CA         27.9770   24.3630   11.2820 C.3       8 GLP5        0.0000 
     15 CA         26.8885   27.7840   11.3045 C.3       4 GLC5        0.0000 
     16 CA         28.6140   28.7290   11.6890 C.3       8 GLP5        0.0000 
     17 OD1        26.0650   24.9940    9.4635 O.co2     3 ASC3        0.0000 
     18 OD1        25.1310   25.9990    9.7340 O.co2    11 ASL3        0.0000 
     19 OD1        26.9990   23.9890    9.1930 O.co2     7 ASP3        0.0000 
     20 O          26.0650   24.9940    9.4635 O.2       1 ALC1        0.0000 
     21 O          25.1310   25.9990    9.7340 O.2       9 ALL1        0.0000 
     22 O          26.9990   23.9890    9.1930 O.2       5 ALP1        0.0000 
     23 O          23.9495   25.1690   10.2985 O.2       1 ALC1        0.0000 
     24 O          22.7680   24.3390   10.8630 O.2       5 ALP1        0.0000 
     25 CA         17.2020   25.3180   13.1635 C.3       4 GLC5        0.0000 
     26 CA         17.5490   26.7860   11.9270 C.3      12 GLL5        0.0000 
     27 CA         16.8550   23.8500   14.4000 C.3       8 GLP5        0.0000 
     28 CA         16.0180   26.2300   11.1250 C.3       4 GLC5        0.0000 
     29 CA         14.4870   25.6740   10.3230 C.3       8 GLP5        0.0000 
     30 CA         15.6880   27.4090   10.9515 C.3       4 GLC5        0.0000 
     31 CA         16.8890   29.1440   11.5800 C.3      12 GLL5        0.0000 
     32 CA         15.9915   30.5420   11.1675 C.3       4 GLC5        0.0000 
     33 CA         15.0940   31.9400   10.7550 C.3       8 GLP5        0.0000 
     34 CA         19.8220   26.8750   15.7235 C.3       4 GLC5        0.0000 
     35 CA         19.9290   28.9250   14.9860 C.3      12 GLL5        0.0000 
     36 CA         19.7150   24.8250   16.4610 C.3       8 GLP5        0.0000 
     37 N          19.3130   28.5095   17.2200 N.am      2 SEC2        0.0000 
     38 N          20.0410   29.2780   16.3910 N.am     10 SEL2        0.0000 
     39 N          18.5850   27.7410   18.0490 N.am      6 SEP2        0.0000 
     40 N          20.6465   28.2870   17.2845 N.am      2 SEC2        0.0000 
     41 N          21.2520   27.2960   18.1780 N.am      6 SEP2        0.0000 
     42 O          21.2485   29.0495   16.7850 O.2       1 ALC1        0.0000 
     43 O          20.0410   29.2780   16.3910 O.2       9 ALL1        0.0000 
     44 O          22.4560   28.8210   17.1790 O.2       5 ALP1        0.0000 
     45 CA         16.5310   32.2275   16.9850 C.3       4 GLC5        0.0000 
     46 CA         16.8990   33.6000   15.5040 C.3      12 GLL5        0.0000 
     47 CA         16.1630   30.8550   18.4660 C.3       8 GLP5        0.0000 
     48 CA         15.5510   34.8370   15.6165 C.3       4 GLC5        0.0000 
     49 CA         14.2030   36.0740   15.7290 C.3       8 GLP5        0.0000 
     50 O          18.2230   35.5120   14.7165 O.2       1 ALC1        0.0000 
     51 O          17.7840   34.7310   15.7710 O.2       9 ALL1        0.0000 
     52 O          18.6620   36.2930   13.6620 O.2       5 ALP1        0.0000 
     53 N          17.0520   34.1755   19.2580 N.am      2 SEC2        0.0000 
     54 N          17.5130   34.8060   18.0370 N.am     10 SEL2        0.0000 
     55 N          16.5910   33.5450   20.4790 N.am      6 SEP2        0.0000 
     56 O          18.2000   37.3125   19.3465 O.2       1 ALC1        0.0000 
     57 O          18.4790   37.3610   17.9520 O.2       9 ALL1        0.0000 
     58 O          17.9210   37.2640   20.7410 O.2       5 ALP1        0.0000 
     59 N          17.8040   38.7725   14.7990 N.am      2 SEC2        0.0000 
     60 N          18.2820   38.8060   16.2900 N.am     10 SEL2        0.0000 
     61 N          17.3260   38.7390   13.3080 N.am      6 SEP2        0.0000 
     62 CA         23.7625   35.7030   18.3630 C.3       4 GLC5        0.0000 
     63 CA         22.1890   36.7690   19.0320 C.3      12 GLL5        0.0000 
     64 CA         25.3360   34.6370   17.6940 C.3       8 GLP5        0.0000 
     65 CA         23.7355   30.1650   10.9657 C.3       4 GLC5        0.0000 
     66 CA         21.7830   29.5730   11.4210 C.3      12 GLL5        0.0000 
     67 CA         24.5475   29.4973   10.8223 C.3       4 GLC5        0.0000 
     68 CA         23.9550   27.7810   11.0410 C.3      12 GLL5        0.0000 
     69 CA         24.3075   26.6920   12.9712 C.3       4 GLC5        0.0000 
     70 CA         24.0560   26.0740   14.9620 C.3       8 GLP5        0.0000 
     71 CA         24.4498   30.0288   11.7080 C.3       4 GLC5        0.0000 
     72 CA         23.8140   28.5010   12.2180 C.3      12 GLL5        0.0000 
     73 CA         23.6703   27.5078   13.6355 C.3       4 GLC5        0.0000 
     74 CA         24.4487   30.1348   13.5840 C.3       4 GLC5        0.0000 
     75 CA         25.6130   31.3280   14.8590 C.3       8 GLP5        0.0000 
     76 CA         15.6527   27.9166   12.9174 C.3       4 GLC5        0.0000 
     77 CA         17.7390   28.2110   12.4320 C.3      12 GLL5        0.0000 
     78 CA         14.0390   27.5120   13.9550 C.3       8 GLP5        0.0000 
     79 CA         16.2780   32.1033   12.4567 C.3       4 GLC5        0.0000 
     80 CA         17.6240   31.5180   14.1650 C.3      12 GLL5        0.0000 
     81 CA         15.7658   31.5616   14.8911 C.3       4 GLC5        0.0000 
     82 CA         14.3510   30.1900   14.9510 C.3       8 GLP5        0.0000 
     83 CA         23.4989   38.1539   16.0886 C.3       4 GLC5        0.0000 
     84 CA         21.5060   37.9660   17.0480 C.3      12 GLL5        0.0000 
     85 CA         24.3340   37.6940   14.4110 C.3       8 GLP5        0.0000 
     86 CA         24.7707   36.9785   18.5115 C.3       4 GLC5        0.0000 
     87 CA         23.3240   38.7900   18.3770 C.3      12 GLL5        0.0000 
     88 CA         26.2950   35.7010   18.2060 C.3       8 GLP5        0.0000 
     89 CA         23.1725   34.3715   17.3722 C.3       4 GLC5        0.0000 
     90 CA         20.9580   34.7570   16.8170 C.3      12 GLL5        0.0000 
     91 CA         22.4490   32.5660   18.4997 C.3       4 GLC5        0.0000 
     92 CA         21.0600   33.4550   17.2840 C.3      12 GLL5        0.0000 
     93 CA         23.5050   32.1600   20.0870 C.3       8 GLP5        0.0000 
     94 CA         23.6683   33.6475   16.8110 C.3       4 GLC5        0.0000 
     95 CA         21.7260   32.4890   16.5410 C.3      12 GLL5        0.0000 
     96 CA         21.0798   34.9285   13.4087 C.3       4 GLC5        0.0000 
     97 CA         22.1750   34.1230   14.8380 C.3      12 GLL5        0.0000 
     98 CA         20.3070   35.2510   11.6020 C.3       8 GLP5        0.0000 
     99 CA         22.8867   35.7750   14.2088 C.3       4 GLC5        0.0000 
    100 CA         23.9210   36.9440   13.2020 C.3       8 GLP5        0.0000 
    101 CA         23.5942   34.6215   16.4547 C.3       4 GLC5        0.0000 
    102 CA         23.8504   32.3592   15.1210 C.3       4 GLC5        0.0000 
@<TRIPOS>BOND
@<TRIPOS>SUBSTRUCTURE
     1 ALC1       20 GROUP        1 X    ALC  0     ROOT ALC X 1
     2 SEC2        1 GROUP        1 X    SEC  0     **** SEC X 2
     3 ASC3       17 GROUP        1 X    ASC  0     **** ASC X 3
     4 GLC5        7 GROUP        1 X    GLC  0     **** GLC X 6
     5 ALP1       22 GROUP        1 Y    ALP  0     ROOT ALP Y 8
     6 SEP2        3 GROUP        1 Y    SEP  0     **** SEP Y 9
     7 ASP3       19 GROUP        1 Y    ASP  0     **** ASP Y 10
     8 GLP5        9 GROUP        1 Y    GLP  0     **** GLP Y 13
     9 ALL1       21 GROUP        1 Z    ALL  0     ROOT ALL Z 15
    10 SEL2        2 GROUP        1 Z    SEL  0     **** SEL Z 16
    11 ASL3       18 GROUP        1 Z    ASL  0     **** ASL Z 17
    12 GLL5        8 GROUP        1 Z    GLL  0     **** GLL Z 20
@<TRIPOS>SET

