#    Name: 2q3k_MUW_1_ligand
#    Modification time : Mon Mar 24 20:41:53 2014

@<TRIPOS>MOLECULE
2q3k_MUW_1_ligand
   92    94     1     0     0
SMALL
NO_CHARGES


@<TRIPOS>ATOM
      1 O9         19.8340   30.8070   10.4830 O.2       1 MUW200      0.0000 
      2 S7         20.5540   30.5910   11.6970 S.o2      1 MUW200      0.0000 
      3 O8         21.0590   31.8390   12.1870 O.2       1 MUW200      0.0000 
      4 C1         21.7830   29.5730   11.4210 C.ar      1 MUW200      0.0000 
      5 C2         21.9290   28.8550   10.2280 C.ar      1 MUW200      0.0000 
      6 C3         23.0050   27.9760   10.0340 C.ar      1 MUW200      0.0000 
      7 C4         23.9550   27.7810   11.0410 C.ar      1 MUW200      0.0000 
      8 C15        25.1630   26.8390   10.9200 C.3       1 MUW200      0.0000 
      9 N45        25.1310   25.9990    9.7340 N.4       1 MUW200      0.0000 
     10 C5         23.8140   28.5010   12.2180 C.ar      1 MUW200      0.0000 
     11 C6         22.7550   29.3820   12.4000 C.ar      1 MUW200      0.0000 
     12 N10        19.4740   29.9610   12.7280 N.pl3     1 MUW200      0.0000 
     13 C11        19.2110   28.5740   12.3150 C.3       1 MUW200      0.0000 
     14 C12        17.7390   28.2110   12.4320 C.3       1 MUW200      0.0000 
     15 C13        17.5490   26.7860   11.9270 C.3       1 MUW200      0.0000 
     16 C14        16.8890   29.1440   11.5800 C.3       1 MUW200      0.0000 
     17 C16        19.8460   30.1870   14.1330 C.3       1 MUW200      0.0000 
     18 C22        19.9290   28.9250   14.9860 C.3       1 MUW200      0.0000 
     19 O23        20.0410   29.2780   16.3910 O.3       1 MUW200      0.0000 
     20 C17        18.9370   31.2020   14.8440 C.3       1 MUW200      0.0000 
     21 C18        17.6240   31.5180   14.1650 C.3       1 MUW200      0.0000 
     22 C19        17.3000   33.0150   14.1520 C.3       1 MUW200      0.0000 
     23 C20        16.8990   33.6000   15.5040 C.3       1 MUW200      0.0000 
     24 N21        17.7840   34.7310   15.7710 N.am      1 MUW200      0.0000 
     25 C39        18.0100   35.2130   16.9940 C.2       1 MUW200      0.0000 
     26 O40        17.5130   34.8060   18.0370 O.2       1 MUW200      0.0000 
     27 C37        19.0100   36.3510   17.0600 C.3       1 MUW200      0.0000 
     28 N38        18.4790   37.3610   17.9520 N.am      1 MUW200      0.0000 
     29 C41        18.1330   38.5480   17.4760 C.2       1 MUW200      0.0000 
     30 O42        17.5850   39.5430   18.3800 O.3       1 MUW200      0.0000 
     31 C44        16.6240   40.4870   17.9120 C.3       1 MUW200      0.0000 
     32 O43        18.2820   38.8060   16.2900 O.2       1 MUW200      0.0000 
     33 C30        20.2910   35.8130   17.6940 C.3       1 MUW200      0.0000 
     34 C24        21.3430   36.8970   17.9320 C.ar      1 MUW200      0.0000 
     35 C25        21.5060   37.9660   17.0480 C.ar      1 MUW200      0.0000 
     36 C26        22.5010   38.9090   17.2630 C.ar      1 MUW200      0.0000 
     37 C27        23.3240   38.7900   18.3770 C.ar      1 MUW200      0.0000 
     38 C28        23.1690   37.7220   19.2570 C.ar      1 MUW200      0.0000 
     39 C29        22.1890   36.7690   19.0320 C.ar      1 MUW200      0.0000 
     40 C31        20.9580   34.7570   16.8170 C.ar      1 MUW200      0.0000 
     41 C32        21.0600   33.4550   17.2840 C.ar      1 MUW200      0.0000 
     42 C33        21.7260   32.4890   16.5410 C.ar      1 MUW200      0.0000 
     43 C34        22.2750   32.8270   15.3150 C.ar      1 MUW200      0.0000 
     44 C35        22.1750   34.1230   14.8380 C.ar      1 MUW200      0.0000 
     45 C36        21.5300   35.0890   15.5930 C.ar      1 MUW200      0.0000 
     46 H          21.2311   28.9740    9.4748 H         1 MUW200      0.0000 
     47 H          23.0940   27.4711    9.1416 H         1 MUW200      0.0000 
     48 H          25.1983   26.2211   11.8398 H         1 MUW200      0.0000 
     49 H          26.0778   27.4651   10.9349 H         1 MUW200      0.0000 
     50 H          24.5110   28.3804   12.9768 H         1 MUW200      0.0000 
     51 H          22.6851   29.9142   13.2916 H         1 MUW200      0.0000 
     52 H          19.7919   27.8729   12.9350 H         1 MUW200      0.0000 
     53 H          19.5249   28.4191   11.2705 H         1 MUW200      0.0000 
     54 H          17.4313   28.2675   13.4460 H         1 MUW200      0.0000 
     55 H          20.8735   30.6442   14.1627 H         1 MUW200      0.0000 
     56 H          20.7967   28.3454   14.6550 H         1 MUW200      0.0000 
     57 H          19.0308   28.3274   14.8002 H         1 MUW200      0.0000 
     58 H          19.5126   32.1456   14.9827 H         1 MUW200      0.0000 
     59 H          18.7347   30.8255   15.8727 H         1 MUW200      0.0000 
     60 H          16.8091   30.9859   14.6772 H         1 MUW200      0.0000 
     61 H          17.6512   31.1547   13.1273 H         1 MUW200      0.0000 
     62 H          16.4829   33.1946   13.4276 H         1 MUW200      0.0000 
     63 H          18.1814   33.5652   13.7710 H         1 MUW200      0.0000 
     64 H          17.0084   32.8306   16.2578 H         1 MUW200      0.0000 
     65 H          15.8650   33.9162   15.4490 H         1 MUW200      0.0000 
     66 H          18.2412   35.1503   14.9221 H         1 MUW200      0.0000 
     67 H          19.2104   36.7187   16.1068 H         1 MUW200      0.0000 
     68 H          18.3918   37.1028   18.9461 H         1 MUW200      0.0000 
     69 H          20.0612   35.3541   18.6471 H         1 MUW200      0.0000 
     70 H          20.8817   38.0514   16.2326 H         1 MUW200      0.0000 
     71 H          22.6288   39.6860   16.6076 H         1 MUW200      0.0000 
     72 H          24.0539   39.4962   18.5537 H         1 MUW200      0.0000 
     73 H          23.7872   37.6430   20.0778 H         1 MUW200      0.0000 
     74 H          22.0837   35.9720   19.6696 H         1 MUW200      0.0000 
     75 H          20.6375   33.2009   18.1917 H         1 MUW200      0.0000 
     76 H          21.8100   31.5307   16.8996 H         1 MUW200      0.0000 
     77 H          22.7609   32.1091   14.7545 H         1 MUW200      0.0000 
     78 H          22.5793   34.3687   13.9237 H         1 MUW200      0.0000 
     79 H          21.4722   36.0591   15.2485 H         1 MUW200      0.0000 
     80 H          25.1188   26.5421    8.8945 H         1 MUW200      0.0000 
     81 H          25.9287   25.3982    9.6828 H         1 MUW200      0.0000 
     82 H          24.3210   25.4128    9.7158 H         1 MUW200      0.0000 
     83 H          17.8272   26.6905   10.9712 H         1 MUW200      0.0000 
     84 H          18.0871   26.1297   12.4559 H         1 MUW200      0.0000 
     85 H          16.5938   26.4958   11.9846 H         1 MUW200      0.0000 
     86 H          16.9888   30.0983   11.8617 H         1 MUW200      0.0000 
     87 H          17.1400   29.0960   10.6132 H         1 MUW200      0.0000 
     88 H          15.9163   28.9203   11.6417 H         1 MUW200      0.0000 
     89 H          16.9887   41.0526   17.1723 H         1 MUW200      0.0000 
     90 H          15.8029   40.0377   17.5599 H         1 MUW200      0.0000 
     91 H          16.3296   41.1083   18.6381 H         1 MUW200      0.0000 
     92 H          20.9934   29.5576   16.5123 H         1 MUW200      0.0000 
@<TRIPOS>BOND
     1    2    1 2    
     2    3    2 2    
     3    4    2 1    
     4   12    2 1    
     5    5    4 ar   
     6   11    4 ar   
     7    6    5 ar   
     8   46    5 1    
     9    7    6 ar   
    10   47    6 1    
    11    8    7 1    
    12   10    7 ar   
    13    9    8 1    
    14   48    8 1    
    15   49    8 1    
    16   80    9 1    
    17   81    9 1    
    18   82    9 1    
    19   11   10 ar   
    20   50   10 1    
    21   51   11 1    
    22   13   12 1    
    23   17   12 1    
    24   14   13 1    
    25   52   13 1    
    26   53   13 1    
    27   15   14 1    
    28   16   14 1    
    29   54   14 1    
    30   83   15 1    
    31   84   15 1    
    32   85   15 1    
    33   86   16 1    
    34   87   16 1    
    35   88   16 1    
    36   18   17 1    
    37   20   17 1    
    38   55   17 1    
    39   19   18 1    
    40   56   18 1    
    41   57   18 1    
    42   92   19 1    
    43   21   20 1    
    44   58   20 1    
    45   59   20 1    
    46   22   21 1    
    47   60   21 1    
    48   61   21 1    
    49   23   22 1    
    50   62   22 1    
    51   63   22 1    
    52   24   23 1    
    53   64   23 1    
    54   65   23 1    
    55   25   24 am   
    56   66   24 1    
    57   26   25 2    
    58   27   25 1    
    59   28   27 1    
    60   33   27 1    
    61   67   27 1    
    62   29   28 am   
    63   68   28 1    
    64   30   29 1    
    65   32   29 2    
    66   31   30 1    
    67   89   31 1    
    68   90   31 1    
    69   91   31 1    
    70   34   33 1    
    71   40   33 1    
    72   69   33 1    
    73   35   34 ar   
    74   39   34 ar   
    75   36   35 ar   
    76   70   35 1    
    77   37   36 ar   
    78   71   36 1    
    79   38   37 ar   
    80   72   37 1    
    81   39   38 ar   
    82   73   38 1    
    83   74   39 1    
    84   41   40 ar   
    85   45   40 ar   
    86   42   41 ar   
    87   75   41 1    
    88   43   42 ar   
    89   76   42 1    
    90   44   43 ar   
    91   77   43 1    
    92   45   44 ar   
    93   78   44 1    
    94   79   45 1    
@<TRIPOS>SUBSTRUCTURE
     1 MUW200      1 GROUP   
@<TRIPOS>SET

