#    Name: 1pxx_DIF_4_INTS_M
#    Modification time : Mon Mar 24 22:25:36 2014

@<TRIPOS>MOLECULE
1pxx_DIF_4_INTS_M
   55     0     6     0     0
SMALL
NO_CHARGES


@<TRIPOS>ATOM
      1 CA         61.2620   44.6725   80.1745 C.3       2 GLC5        0.0000 
      2 CA         60.4940   44.9640   78.1570 C.3       6 GLL5        0.0000 
      3 CA         62.0300   44.3810   82.1920 C.3       4 GLP5        0.0000 
      4 CA         61.6870   46.0600   77.3275 C.3       2 GLC5        0.0000 
      5 CA         62.8800   47.1560   76.4980 C.3       4 GLP5        0.0000 
      6 CA         55.5200   42.2270   79.3275 C.3       2 GLC5        0.0000 
      7 CA         55.0500   43.8280   78.3660 C.3       6 GLL5        0.0000 
      8 CA         55.9900   40.6260   80.2890 C.3       4 GLP5        0.0000 
      9 CA         55.2615   45.3370   76.9645 C.3       2 GLC5        0.0000 
     10 CA         55.4730   46.8460   75.5630 C.3       4 GLP5        0.0000 
     11 CA         54.3345   43.5050   76.7595 C.3       2 GLC5        0.0000 
     12 CA         53.6190   43.1820   75.1530 C.3       4 GLP5        0.0000 
     13 CA         53.2650   44.7860   78.6425 C.3       2 GLC5        0.0000 
     14 CA         51.4800   45.7440   78.9190 C.3       4 GLP5        0.0000 
     15 CA         57.0935   45.5800   75.5730 C.3       2 GLC5        0.0000 
     16 CA         58.7140   44.3140   75.5830 C.3       6 GLL5        0.0000 
     17 CA         59.1265   43.1535   71.6095 C.3       2 GLC5        0.0000 
     18 CA         59.2710   43.1410   73.5530 C.3       6 GLL5        0.0000 
     19 CA         58.9820   43.1660   69.6660 C.3       4 GLP5        0.0000 
     20 CA         57.9255   38.9460   76.7105 C.3       2 GLC5        0.0000 
     21 CA         57.8820   40.6040   76.0040 C.3       6 GLL5        0.0000 
     22 CA         57.9690   37.2880   77.4170 C.3       4 GLP5        0.0000 
     23 CA         59.3040   40.3740   76.8490 C.3       2 GLC5        0.0000 
     24 CA         60.7260   40.1440   77.6940 C.3       4 GLP5        0.0000 
     25 CA         57.8535   39.5280   74.3785 C.3       2 GLC5        0.0000 
     26 CA         57.8250   38.4520   72.7530 C.3       4 GLP5        0.0000 
     27 CA         59.5565   40.0955   74.9955 C.3       2 GLC5        0.0000 
     28 CA         61.2310   39.5870   73.9870 C.3       4 GLP5        0.0000 
     29 N          56.5875   39.0590   74.7035 N.am      1 SEC2        0.0000 
     30 N          55.6860   39.8690   75.3340 N.am      5 SEL2        0.0000 
     31 N          57.4890   38.2490   74.0730 N.am      3 SEP2        0.0000 
     32 N          54.7930   41.6425   76.3995 N.am      1 SEC2        0.0000 
     33 N          55.8720   41.3620   77.0130 N.am      5 SEL2        0.0000 
     34 N          53.7140   41.9230   75.7860 N.am      3 SEP2        0.0000 
     35 CA         57.9802   44.1245   80.2720 C.3       2 GLC5        0.0000 
     36 CA         58.8730   45.1310   78.7660 C.3       6 GLL5        0.0000 
     37 CA         57.1900   42.5550   81.3570 C.3       4 GLP5        0.0000 
     38 CA         59.7398   45.2620   81.0025 C.3       2 GLC5        0.0000 
     39 CA         60.7090   44.8300   82.8180 C.3       4 GLP5        0.0000 
     40 CA         59.8212   47.1195   78.1840 C.3       2 GLC5        0.0000 
     41 CA         58.6680   46.2570   79.6080 C.3       6 GLL5        0.0000 
     42 CA         60.8720   48.5450   77.1810 C.3       4 GLP5        0.0000 
     43 CA         57.1600   43.5403   79.9655 C.3       2 GLC5        0.0000 
     44 CA         56.4750   44.7220   78.8010 C.3       6 GLL5        0.0000 
     45 CA         57.0130   44.3950   80.5897 C.3       2 GLC5        0.0000 
     46 CA         56.2870   45.8500   79.6220 C.3       6 GLL5        0.0000 
     47 CA         60.0652   46.0673   74.8710 C.3       2 GLC5        0.0000 
     48 CA         61.1860   47.8120   74.8160 C.3       4 GLP5        0.0000 
     49 CA         58.0919   44.7889   73.2602 C.3       2 GLC5        0.0000 
     50 CA         59.1750   44.3310   74.2690 C.3       6 GLL5        0.0000 
     51 CA         57.0760   45.8460   72.2810 C.3       4 GLP5        0.0000 
     52 CA         59.6827   41.1820   76.3416 C.3       2 GLC5        0.0000 
     53 CA         58.9020   41.9380   74.1460 C.3       6 GLL5        0.0000 
     54 CA         56.5852   46.6104   77.8457 C.3       2 GLC5        0.0000 
     55 CA         56.0270   47.8860   76.5450 C.3       4 GLP5        0.0000 
@<TRIPOS>BOND
@<TRIPOS>SUBSTRUCTURE
     1 SEC2       29 GROUP        1 X    SEC  0     ROOT SEC X 2
     2 GLC5        1 GROUP        1 X    GLC  0     **** GLC X 6
     3 SEP2       31 GROUP        1 Y    SEP  0     ROOT SEP Y 9
     4 GLP5        3 GROUP        1 Y    GLP  0     **** GLP Y 13
     5 SEL2       30 GROUP        1 Z    SEL  0     ROOT SEL Z 16
     6 GLL5        2 GROUP        1 Z    GLL  0     **** GLL Z 20
@<TRIPOS>SET

