#    Name: 1pxx_DIF_4_ligand
#    Modification time : Mon Mar 24 22:25:36 2014

@<TRIPOS>MOLECULE
1pxx_DIF_4_ligand
   29    30     1     0     0
SMALL
NO_CHARGES


@<TRIPOS>ATOM
      1 C1         58.6680   46.2570   79.6080 C.ar      1 DIF3701     0.0000 
      2 C2         58.8730   45.1310   78.7660 C.ar      1 DIF3701     0.0000 
      3 CL2        60.4940   44.9640   78.1570 Cl        1 DIF3701     0.0000 
      4 C3         57.7850   44.3290   78.3470 C.ar      1 DIF3701     0.0000 
      5 C4         56.4750   44.7220   78.8010 C.ar      1 DIF3701     0.0000 
      6 CL4        55.0500   43.8280   78.3660 Cl        1 DIF3701     0.0000 
      7 C5         56.2870   45.8500   79.6220 C.ar      1 DIF3701     0.0000 
      8 C6         57.3850   46.6200   80.0230 C.ar      1 DIF3701     0.0000 
      9 N1         57.8220   43.1470   77.5060 N.pl3     1 DIF3701     0.0000 
     10 C7         58.4110   41.9010   75.4690 C.ar      1 DIF3701     0.0000 
     11 C8         58.3430   43.1030   76.1960 C.ar      1 DIF3701     0.0000 
     12 C9         58.7140   44.3140   75.5830 C.ar      1 DIF3701     0.0000 
     13 C10        59.1750   44.3310   74.2690 C.ar      1 DIF3701     0.0000 
     14 C11        59.2710   43.1410   73.5530 C.ar      1 DIF3701     0.0000 
     15 C12        58.9020   41.9380   74.1460 C.ar      1 DIF3701     0.0000 
     16 C13        57.8820   40.6040   76.0040 C.3       1 DIF3701     0.0000 
     17 C14        56.3900   40.5600   76.0700 C.2       1 DIF3701     0.0000 
     18 O1         55.6860   39.8690   75.3340 O.co2     1 DIF3701     0.0000 
     19 O2         55.8720   41.3620   77.0130 O.co2     1 DIF3701     0.0000 
     20 H          59.4840   46.8064   79.9108 H         1 DIF3701     0.0000 
     21 H          55.3414   46.1054   79.9253 H         1 DIF3701     0.0000 
     22 H          57.2471   47.4418   80.6153 H         1 DIF3701     0.0000 
     23 H          57.4267   42.2647   77.9188 H         1 DIF3701     0.0000 
     24 H          58.6417   45.1917   76.1159 H         1 DIF3701     0.0000 
     25 H          59.4434   45.2191   73.8296 H         1 DIF3701     0.0000 
     26 H          59.6155   43.1518   72.5837 H         1 DIF3701     0.0000 
     27 H          58.9850   41.0553   73.6188 H         1 DIF3701     0.0000 
     28 H          58.2984   40.4318   77.0137 H         1 DIF3701     0.0000 
     29 H          58.2450   39.7750   75.3687 H         1 DIF3701     0.0000 
@<TRIPOS>BOND
     1    2    1 ar   
     2    8    1 ar   
     3   20    1 1    
     4    3    2 1    
     5    4    2 ar   
     6    5    4 ar   
     7    9    4 1    
     8    6    5 1    
     9    7    5 ar   
    10    8    7 ar   
    11   21    7 1    
    12   22    8 1    
    13   11    9 1    
    14   23    9 1    
    15   11   10 ar   
    16   15   10 ar   
    17   16   10 1    
    18   12   11 ar   
    19   13   12 ar   
    20   24   12 1    
    21   14   13 ar   
    22   25   13 1    
    23   15   14 ar   
    24   26   14 1    
    25   27   15 1    
    26   17   16 1    
    27   28   16 1    
    28   29   16 1    
    29   18   17 ar   
    30   19   17 ar   
@<TRIPOS>SUBSTRUCTURE
     1 DIF3701     1 GROUP   
@<TRIPOS>SET

