#    Name: 2i0a_MUI_1_INTS_M
#    Modification time : Tue Mar 25 17:15:39 2014

@<TRIPOS>MOLECULE
2i0a_MUI_1_INTS_M
   95     0     9     0     0
SMALL
NO_CHARGES


@<TRIPOS>ATOM
      1 CA         20.2485   26.0445    2.9945 C.3       3 GLC5        0.0000 
      2 CA         19.8080   24.5120    3.9400 C.3       9 GLL5        0.0000 
      3 CA         20.6890   27.5770    2.0490 C.3       6 GLP5        0.0000 
      4 CA         20.4015   28.1280    8.1990 C.3       3 GLC5        0.0000 
      5 CA         20.3150   25.9010    7.9720 C.3       9 GLL5        0.0000 
      6 CA         20.4880   30.3550    8.4260 C.3       6 GLP5        0.0000 
      7 N          22.5555   23.4680   12.5575 N.am      2 SEC2        0.0000 
      8 N          21.6440   23.8610   11.4630 N.am      8 SEL2        0.0000 
      9 N          23.4670   23.0750   13.6520 N.am      5 SEP2        0.0000 
     10 CA         20.8445   28.7595    9.4105 C.3       3 GLC5        0.0000 
     11 CA         21.2010   27.1640   10.3950 C.3       9 GLL5        0.0000 
     12 CA         22.3805   26.1190   13.4375 C.3       3 GLC5        0.0000 
     13 CA         21.9140   27.3160   11.7480 C.3       9 GLL5        0.0000 
     14 CA         22.8470   24.9220   15.1270 C.3       6 GLP5        0.0000 
     15 CA         23.2740   29.0195   11.5225 C.3       3 GLC5        0.0000 
     16 CA         24.6340   30.7230   11.2970 C.3       6 GLP5        0.0000 
     17 O          20.2460   26.5050   14.1555 O.2       1 ALC1        0.0000 
     18 O          20.4170   27.9480   13.5300 O.2       7 ALL1        0.0000 
     19 O          20.0750   25.0620   14.7810 O.2       4 ALP1        0.0000 
     20 CA         17.1305   30.5430   11.2910 C.3       3 GLC5        0.0000 
     21 CA         17.5020   28.5870   11.8650 C.3       9 GLL5        0.0000 
     22 CA         16.7590   32.4990   10.7170 C.3       6 GLP5        0.0000 
     23 CA         18.8740   29.2930    9.4825 C.3       3 GLC5        0.0000 
     24 CA         17.2600   28.2310   10.5390 C.3       9 GLL5        0.0000 
     25 CA         17.2295   30.1010    9.9325 C.3       3 GLC5        0.0000 
     26 CA         17.1990   31.9710    9.3260 C.3       6 GLP5        0.0000 
     27 N          19.3830   27.5795   17.8655 N.am      2 SEC2        0.0000 
     28 N          19.9060   28.0150   16.5600 N.am      8 SEL2        0.0000 
     29 N          18.8600   27.1440   19.1710 N.am      5 SEP2        0.0000 
     30 O          20.7695   27.7015   17.4620 O.2       1 ALC1        0.0000 
     31 O          19.9060   28.0150   16.5600 O.2       7 ALL1        0.0000 
     32 O          21.6330   27.3880   18.3640 O.2       4 ALP1        0.0000 
     33 O          21.4470   28.4430   17.0060 O.2       1 ALC1        0.0000 
     34 O          22.9880   28.8710   17.4520 O.2       4 ALP1        0.0000 
     35 CA         17.6350   30.4070   17.8905 C.3       3 GLC5        0.0000 
     36 CA         19.1370   30.2990   16.2850 C.3       9 GLL5        0.0000 
     37 CA         16.1330   30.5150   19.4960 C.3       6 GLP5        0.0000 
     38 CA         22.9470   32.5755   18.9685 C.3       3 GLC5        0.0000 
     39 CA         22.4280   33.1840   17.1590 C.3       9 GLL5        0.0000 
     40 CA         23.4660   31.9670   20.7780 C.3       6 GLP5        0.0000 
     41 CA         23.1465   34.5790   15.5875 C.3       3 GLC5        0.0000 
     42 CA         23.8650   35.9740   14.0160 C.3       6 GLP5        0.0000 
     43 CA         24.0245   33.8990   17.7315 C.3       3 GLC5        0.0000 
     44 CA         25.6210   34.6140   18.3040 C.3       6 GLP5        0.0000 
     45 CA         23.0645   34.0495   14.4525 C.3       3 GLC5        0.0000 
     46 CA         22.2640   32.1250   14.8890 C.3       9 GLL5        0.0000 
     47 CA         23.9635   30.7430   14.9085 C.3       3 GLC5        0.0000 
     48 CA         25.6630   29.3610   14.9280 C.3       6 GLP5        0.0000 
     49 CA         23.3050   32.1400   12.9335 C.3       3 GLC5        0.0000 
     50 CA         24.3460   32.1550   10.9780 C.3       6 GLP5        0.0000 
     51 CA         15.9585   32.8835   14.0650 C.3       3 GLC5        0.0000 
     52 CA         17.1930   33.1010   15.8520 C.3       9 GLL5        0.0000 
     53 CA         14.7240   32.6660   12.2780 C.3       6 GLP5        0.0000 
     54 CA         15.3190   30.8230   15.5100 C.3       3 GLC5        0.0000 
     55 CA         16.2110   32.5170   16.6620 C.3       9 GLL5        0.0000 
     56 CA         14.4270   29.1290   14.3580 C.3       6 GLP5        0.0000 
     57 CA         16.4650   32.9995   18.9335 C.3       3 GLC5        0.0000 
     58 CA         15.7060   34.6590   17.6890 C.3       9 GLL5        0.0000 
     59 CA         17.2240   31.3400   20.1780 C.3       6 GLP5        0.0000 
     60 CA         14.3905   35.1800   16.0445 C.3       3 GLC5        0.0000 
     61 CA         13.0750   35.7010   14.4000 C.3       6 GLP5        0.0000 
     62 N          14.4970   34.6745   20.0090 N.am      2 SEC2        0.0000 
     63 N          14.9750   35.4000   18.5900 N.am      8 SEL2        0.0000 
     64 N          14.0190   33.9490   21.4280 N.am      5 SEP2        0.0000 
     65 CA         15.8335   36.1910   20.6700 C.3       3 GLC5        0.0000 
     66 CA         15.2940   36.7590   18.9010 C.3       9 GLL5        0.0000 
     67 CA         16.3730   35.6230   22.4390 C.3       6 GLP5        0.0000 
     68 CA         13.7175   35.9825   19.7010 C.3       3 GLC5        0.0000 
     69 CA         12.1410   35.2060   20.5010 C.3       6 GLP5        0.0000 
     70 CA         14.2630   37.6360   17.3315 C.3       3 GLC5        0.0000 
     71 CA         13.2320   38.5130   15.7620 C.3       6 GLP5        0.0000 
     72 CA         15.4130   36.6210   15.7705 C.3       3 GLC5        0.0000 
     73 CA         16.6790   35.2490   16.8710 C.3       9 GLL5        0.0000 
     74 CA         14.1470   37.9930   14.6700 C.3       6 GLP5        0.0000 
     75 CA         21.2123   27.1025    6.4555 C.3       3 GLC5        0.0000 
     76 CA         22.2000   28.5560    5.5760 C.3       6 GLP5        0.0000 
     77 CA         16.0155   27.1038   12.1070 C.3       3 GLC5        0.0000 
     78 CA         17.8880   27.6200   12.7850 C.3       9 GLL5        0.0000 
     79 CA         14.3360   26.1040   11.8890 C.3       6 GLP5        0.0000 
     80 CA         16.0986   28.6639   13.5221 C.3       3 GLC5        0.0000 
     81 CA         15.9895   27.8953    9.0235 C.3       3 GLC5        0.0000 
     82 CA         14.6580   28.2180    7.7170 C.3       6 GLP5        0.0000 
     83 CA         15.8285   26.8383   11.1095 C.3       3 GLC5        0.0000 
     84 CA         16.1155   26.1103   11.7920 C.3       3 GLC5        0.0000 
     85 CA         17.7720   25.9410   11.0340 C.3       9 GLL5        0.0000 
     86 CA         17.1111   25.5321   13.8699 C.3       3 GLC5        0.0000 
     87 CA         18.0180   26.2920   12.3560 C.3       9 GLL5        0.0000 
     88 CA         16.1940   24.0130   14.8080 C.3       6 GLP5        0.0000 
     89 CA         23.9620   31.8618   17.0360 C.3       3 GLC5        0.0000 
     90 CA         21.6620   32.1890   16.2950 C.3       9 GLL5        0.0000 
     91 CA         25.8790   31.0370   17.3450 C.3       6 GLP5        0.0000 
     92 CA         15.9882   31.7090   18.3075 C.3       3 GLC5        0.0000 
     93 CA         13.9104   33.2760   16.7205 C.3       3 GLC5        0.0000 
     94 CA         15.4760   33.2890   17.5760 C.3       9 GLL5        0.0000 
     95 CA         12.0460   32.7710   16.0370 C.3       6 GLP5        0.0000 
@<TRIPOS>BOND
@<TRIPOS>SUBSTRUCTURE
     1 ALC1       17 GROUP        1 X    ALC  0     ROOT ALC X 1
     2 SEC2        7 GROUP        1 X    SEC  0     **** SEC X 2
     3 GLC5        1 GROUP        1 X    GLC  0     **** GLC X 6
     4 ALP1       19 GROUP        1 Y    ALP  0     ROOT ALP Y 8
     5 SEP2        9 GROUP        1 Y    SEP  0     **** SEP Y 9
     6 GLP5        3 GROUP        1 Y    GLP  0     **** GLP Y 13
     7 ALL1       18 GROUP        1 Z    ALL  0     ROOT ALL Z 15
     8 SEL2        8 GROUP        1 Z    SEL  0     **** SEL Z 16
     9 GLL5        2 GROUP        1 Z    GLL  0     **** GLL Z 20
@<TRIPOS>SET

