#    Name: 2i0a_MUI_1_ligand
#    Modification time : Tue Mar 25 17:15:39 2014

@<TRIPOS>MOLECULE
2i0a_MUI_1_ligand
   84    87     1     0     0
SMALL
NO_CHARGES


@<TRIPOS>ATOM
      1 O45        20.8850   22.5110    4.6420 O.2       1 MUI200      0.0000 
      2 C46        20.4790   23.6320    4.9430 C.2       1 MUI200      0.0000 
      3 C47        19.8080   24.5120    3.9400 C.3       1 MUI200      0.0000 
      4 C40        20.6710   24.1630    6.3340 C.ar      1 MUI200      0.0000 
      5 C41        20.1340   25.3970    6.6980 C.ar      1 MUI200      0.0000 
      6 C42        20.3150   25.9010    7.9720 C.ar      1 MUI200      0.0000 
      7 C45        21.4030   23.4380    7.2640 C.ar      1 MUI200      0.0000 
      8 C44        21.5950   23.9420    8.5470 C.ar      1 MUI200      0.0000 
      9 C43        21.0330   25.1700    8.9220 C.ar      1 MUI200      0.0000 
     10 N24        21.2330   25.7270   10.1970 N.am      1 MUI200      0.0000 
     11 C26        21.5610   25.0660   11.2880 C.2       1 MUI200      0.0000 
     12 O27        21.6440   23.8610   11.4630 O.2       1 MUI200      0.0000 
     13 O28        21.8790   26.0090   12.3310 O.3       1 MUI200      0.0000 
     14 C25        21.2010   27.1640   10.3950 C.3       1 MUI200      0.0000 
     15 C29        21.9140   27.3160   11.7480 C.3       1 MUI200      0.0000 
     16 C21        21.1500   28.3670   12.4960 C.2       1 MUI200      0.0000 
     17 O22        21.2200   29.5310   12.1150 O.2       1 MUI200      0.0000 
     18 N20        20.4170   27.9480   13.5300 N.am      1 MUI200      0.0000 
     19 C19        19.5000   28.8090   14.2840 C.3       1 MUI200      0.0000 
     20 C32        18.1890   28.0010   14.2300 C.3       1 MUI200      0.0000 
     21 C38        17.8880   27.6200   12.7850 C.ar      1 MUI200      0.0000 
     22 C37        17.5020   28.5870   11.8650 C.ar      1 MUI200      0.0000 
     23 C36        17.2600   28.2310   10.5390 C.ar      1 MUI200      0.0000 
     24 C35        17.3820   26.9140   10.1210 C.ar      1 MUI200      0.0000 
     25 C34        17.7720   25.9410   11.0340 C.ar      1 MUI200      0.0000 
     26 C33        18.0180   26.2920   12.3560 C.ar      1 MUI200      0.0000 
     27 C17        19.9750   29.1550   15.6950 C.3       1 MUI200      0.0000 
     28 O18        19.9060   28.0150   16.5600 O.3       1 MUI200      0.0000 
     29 C16        19.1370   30.2990   16.2850 C.3       1 MUI200      0.0000 
     30 N11        19.3880   31.5470   15.5200 N.pl3     1 MUI200      0.0000 
     31 C12        20.1700   32.5410   16.2880 C.3       1 MUI200      0.0000 
     32 C13        21.6620   32.1890   16.2950 C.3       1 MUI200      0.0000 
     33 C15        22.4280   33.1840   17.1590 C.3       1 MUI200      0.0000 
     34 C14        22.2640   32.1250   14.8890 C.3       1 MUI200      0.0000 
     35 S8         18.0720   32.2190   14.8140 S.o2      1 MUI200      0.0000 
     36 O10        17.2770   31.1770   14.2510 O.2       1 MUI200      0.0000 
     37 O9         18.6210   33.0520   13.7690 O.2       1 MUI200      0.0000 
     38 C5         17.1930   33.1010   15.8520 C.ar      1 MUI200      0.0000 
     39 C6         16.2110   32.5170   16.6620 C.ar      1 MUI200      0.0000 
     40 C7         15.4760   33.2890   17.5760 C.ar      1 MUI200      0.0000 
     41 C2         15.7060   34.6590   17.6890 C.ar      1 MUI200      0.0000 
     42 O19        14.9750   35.4000   18.5900 O.3       1 MUI200      0.0000 
     43 C18        15.2940   36.7590   18.9010 C.3       1 MUI200      0.0000 
     44 C3         16.6790   35.2490   16.8710 C.ar      1 MUI200      0.0000 
     45 C4         17.4090   34.4720   15.9660 C.ar      1 MUI200      0.0000 
     46 H          19.5934   25.9388    6.0010 H         1 MUI200      0.0000 
     47 H          19.9220   26.8179    8.2288 H         1 MUI200      0.0000 
     48 H          21.8050   22.5264    7.0062 H         1 MUI200      0.0000 
     49 H          22.1544   23.4111    9.2302 H         1 MUI200      0.0000 
     50 H          20.2093   27.5305   10.4940 H         1 MUI200      0.0000 
     51 H          21.7643   27.6804    9.6577 H         1 MUI200      0.0000 
     52 H          22.9010   27.6471   11.5392 H         1 MUI200      0.0000 
     53 H          20.4620   26.9498   13.8654 H         1 MUI200      0.0000 
     54 H          19.3266   29.7162   13.7121 H         1 MUI200      0.0000 
     55 H          17.3842   28.6082   14.6220 H         1 MUI200      0.0000 
     56 H          18.3015   27.1060   14.8270 H         1 MUI200      0.0000 
     57 H          17.3942   29.5658   12.1601 H         1 MUI200      0.0000 
     58 H          16.9857   28.9616    9.8595 H         1 MUI200      0.0000 
     59 H          17.1866   26.6591    9.1477 H         1 MUI200      0.0000 
     60 H          17.8781   24.9647   10.7320 H         1 MUI200      0.0000 
     61 H          18.3010   25.5676   13.0361 H         1 MUI200      0.0000 
     62 H          21.0028   29.5155   15.6210 H         1 MUI200      0.0000 
     63 H          19.4157   30.4284   17.3284 H         1 MUI200      0.0000 
     64 H          18.0867   30.0218   16.2291 H         1 MUI200      0.0000 
     65 H          19.8214   32.5833   17.3257 H         1 MUI200      0.0000 
     66 H          20.0538   33.5392   15.8519 H         1 MUI200      0.0000 
     67 H          21.7714   31.2005   16.7563 H         1 MUI200      0.0000 
     68 H          16.0239   31.5058   16.5873 H         1 MUI200      0.0000 
     69 H          14.7639   32.8361   18.1642 H         1 MUI200      0.0000 
     70 H          16.8563   36.2595   16.9376 H         1 MUI200      0.0000 
     71 H          18.1233   34.9273   15.3703 H         1 MUI200      0.0000 
     72 H          20.4054   24.7130    3.1637 H         1 MUI200      0.0000 
     73 H          18.9798   24.0902    3.5710 H         1 MUI200      0.0000 
     74 H          19.5382   25.3892    4.3371 H         1 MUI200      0.0000 
     75 H          23.4070   32.9812   17.1798 H         1 MUI200      0.0000 
     76 H          22.3298   34.1206   16.8227 H         1 MUI200      0.0000 
     77 H          22.1072   33.1775   18.1061 H         1 MUI200      0.0000 
     78 H          23.2373   31.8968   14.9118 H         1 MUI200      0.0000 
     79 H          21.8141   31.4338   14.3235 H         1 MUI200      0.0000 
     80 H          22.1787   32.9978   14.4084 H         1 MUI200      0.0000 
     81 H          16.2137   36.8464   19.2838 H         1 MUI200      0.0000 
     82 H          15.2570   37.3439   18.0908 H         1 MUI200      0.0000 
     83 H          14.6598   37.1454   19.5707 H         1 MUI200      0.0000 
     84 H          20.8120   27.9527   16.9786 H         1 MUI200      0.0000 
@<TRIPOS>BOND
     1    2    1 2    
     2    3    2 1    
     3    4    2 1    
     4   72    3 1    
     5   73    3 1    
     6   74    3 1    
     7    5    4 ar   
     8    7    4 ar   
     9    6    5 ar   
    10   46    5 1    
    11    9    6 ar   
    12   47    6 1    
    13    8    7 ar   
    14   48    7 1    
    15    9    8 ar   
    16   49    8 1    
    17   10    9 1    
    18   11   10 am   
    19   14   10 1    
    20   12   11 2    
    21   13   11 1    
    22   15   13 1    
    23   15   14 1    
    24   50   14 1    
    25   51   14 1    
    26   16   15 1    
    27   52   15 1    
    28   17   16 2    
    29   18   16 am   
    30   19   18 1    
    31   53   18 1    
    32   20   19 1    
    33   27   19 1    
    34   54   19 1    
    35   21   20 1    
    36   55   20 1    
    37   56   20 1    
    38   22   21 ar   
    39   26   21 ar   
    40   23   22 ar   
    41   57   22 1    
    42   24   23 ar   
    43   58   23 1    
    44   25   24 ar   
    45   59   24 1    
    46   26   25 ar   
    47   60   25 1    
    48   61   26 1    
    49   28   27 1    
    50   29   27 1    
    51   62   27 1    
    52   84   28 1    
    53   30   29 1    
    54   63   29 1    
    55   64   29 1    
    56   31   30 1    
    57   35   30 1    
    58   32   31 1    
    59   65   31 1    
    60   66   31 1    
    61   33   32 1    
    62   34   32 1    
    63   67   32 1    
    64   75   33 1    
    65   76   33 1    
    66   77   33 1    
    67   78   34 1    
    68   79   34 1    
    69   80   34 1    
    70   36   35 2    
    71   37   35 2    
    72   38   35 1    
    73   39   38 ar   
    74   45   38 ar   
    75   40   39 ar   
    76   68   39 1    
    77   41   40 ar   
    78   69   40 1    
    79   42   41 1    
    80   44   41 ar   
    81   43   42 1    
    82   81   43 1    
    83   82   43 1    
    84   83   43 1    
    85   45   44 ar   
    86   70   44 1    
    87   71   45 1    
@<TRIPOS>SUBSTRUCTURE
     1 MUI200      1 GROUP   
@<TRIPOS>SET

