#    Name: 3qtq_X35_1_INTS_M
#    Modification time : Tue Mar 25 10:07:15 2014

@<TRIPOS>MOLECULE
3qtq_X35_1_INTS_M
   51     0     9     0     0
SMALL
NO_CHARGES


@<TRIPOS>ATOM
      1 N         -64.2345  -82.6790  -87.1085 N.am      2 SEC2        0.0000 
      2 N         -65.3260  -82.0010  -86.0600 N.am      8 SEL2        0.0000 
      3 N         -63.1430  -83.3570  -88.1570 N.am      5 SEP2        0.0000 
      4 O         -66.6315  -81.8735  -88.7835 O.2       1 ALC1        0.0000 
      5 O         -66.7390  -81.0890  -87.6840 O.2       7 ALL1        0.0000 
      6 O         -66.5240  -82.6580  -89.8830 O.2       4 ALP1        0.0000 
      7 CA        -70.4680  -79.5260  -82.6015 C.3       3 GLC5        0.0000 
      8 CA        -69.7890  -78.4780  -84.0780 C.3       9 GLL5        0.0000 
      9 CA        -71.1470  -80.5740  -81.1250 C.3       6 GLP5        0.0000 
     10 CA        -71.8920  -78.5790  -83.7295 C.3       3 GLC5        0.0000 
     11 CA        -73.9950  -78.6800  -83.3810 C.3       6 GLP5        0.0000 
     12 N         -71.6190  -77.1575  -82.8130 N.am      2 SEC2        0.0000 
     13 N         -70.2250  -77.7000  -83.0130 N.am      8 SEL2        0.0000 
     14 N         -73.0130  -76.6150  -82.6130 N.am      5 SEP2        0.0000 
     15 CA        -70.5335  -77.0180  -80.3570 C.3       3 GLC5        0.0000 
     16 CA        -69.3510  -77.0550  -82.1470 C.3       9 GLL5        0.0000 
     17 CA        -71.7160  -76.9810  -78.5670 C.3       6 GLP5        0.0000 
     18 CA        -70.2490  -78.8145  -81.6360 C.3       3 GLC5        0.0000 
     19 CA        -66.4850  -82.5620  -83.2015 C.3       3 GLC5        0.0000 
     20 CA        -66.0340  -80.8100  -83.8760 C.3       9 GLL5        0.0000 
     21 CA        -66.9360  -84.3140  -82.5270 C.3       6 GLP5        0.0000 
     22 CA        -67.9700  -81.6060  -83.0855 C.3       3 GLC5        0.0000 
     23 CA        -69.9060  -82.4020  -82.2950 C.3       6 GLP5        0.0000 
     24 CA        -67.3135  -82.2450  -85.0310 C.3       3 GLC5        0.0000 
     25 CA        -68.5930  -83.6800  -86.1860 C.3       6 GLP5        0.0000 
     26 CA        -65.2200  -79.6995  -85.3615 C.3       3 GLC5        0.0000 
     27 CA        -64.4060  -78.5890  -86.8470 C.3       6 GLP5        0.0000 
     28 O         -62.9960  -83.0060  -85.0210 O.2       1 ALC1        0.0000 
     29 O         -64.0840  -82.6850  -84.1970 O.2       7 ALL1        0.0000 
     30 O         -61.9080  -83.3270  -85.8450 O.2       4 ALP1        0.0000 
     31 CA        -65.3550  -83.4415  -82.6515 C.3       3 GLC5        0.0000 
     32 CA        -63.7740  -82.5690  -82.7760 C.3       9 GLL5        0.0000 
     33 CA        -63.9115  -84.3265  -83.7235 C.3       3 GLC5        0.0000 
     34 CA        -64.0490  -86.0840  -84.6710 C.3       6 GLP5        0.0000 
     35 CA        -61.5365  -78.8425  -82.2705 C.3       3 GLC5        0.0000 
     36 CA        -62.1950  -80.5310  -82.5310 C.3       9 GLL5        0.0000 
     37 CA        -60.8780  -77.1540  -82.0100 C.3       6 GLP5        0.0000 
     38 CA        -62.6310  -79.0880  -83.7375 C.3       3 GLC5        0.0000 
     39 CA        -63.0670  -77.6450  -84.9440 C.3       6 GLP5        0.0000 
     40 CA        -67.5907  -82.2313  -86.0333 C.3       3 GLC5        0.0000 
     41 CA        -66.8490  -80.4050  -85.3510 C.3       9 GLL5        0.0000 
     42 CA        -65.4973  -79.6857  -86.3637 C.3       3 GLC5        0.0000 
     43 CA        -66.3280  -81.1600  -86.4100 C.3       9 GLL5        0.0000 
     44 CA        -67.2987  -77.0820  -85.5157 C.3       3 GLC5        0.0000 
     45 CA        -68.3940  -78.6320  -84.3090 C.3       9 GLL5        0.0000 
     46 CA        -66.6570  -75.8660  -87.1640 C.3       6 GLP5        0.0000 
     47 CA        -60.3843  -81.1153  -83.0577 C.3       3 GLC5        0.0000 
     48 CA        -58.4660  -80.9770  -83.5600 C.3       6 GLP5        0.0000 
     49 CA        -69.1516  -76.0332  -83.6449 C.3       3 GLC5        0.0000 
     50 CA        -67.4870  -77.9640  -83.4260 C.3       9 GLL5        0.0000 
     51 CA        -69.8310  -74.3800  -84.2640 C.3       6 GLP5        0.0000 
@<TRIPOS>BOND
@<TRIPOS>SUBSTRUCTURE
     1 ALC1        4 GROUP        1 X    ALC  0     ROOT ALC X 1
     2 SEC2        1 GROUP        1 X    SEC  0     **** SEC X 2
     3 GLC5        7 GROUP        1 X    GLC  0     **** GLC X 6
     4 ALP1        6 GROUP        1 Y    ALP  0     ROOT ALP Y 8
     5 SEP2        3 GROUP        1 Y    SEP  0     **** SEP Y 9
     6 GLP5        9 GROUP        1 Y    GLP  0     **** GLP Y 13
     7 ALL1        5 GROUP        1 Z    ALL  0     ROOT ALL Z 15
     8 SEL2        2 GROUP        1 Z    SEL  0     **** SEL Z 16
     9 GLL5        8 GROUP        1 Z    GLL  0     **** GLL Z 20
@<TRIPOS>SET

