#    Name: 3qtq_X35_1_ligand
#    Modification time : Tue Mar 25 10:07:15 2014

@<TRIPOS>MOLECULE
3qtq_X35_1_ligand
   28    29     1     0     0
SMALL
NO_CHARGES


@<TRIPOS>ATOM
      1 N1        -65.3260  -82.0010  -86.0600 N.2       1 X35476      0.0000 
      2 C2        -66.3280  -81.1600  -86.4100 C.2       1 X35476      0.0000 
      3 N3        -66.7390  -81.0890  -87.6840 N.pl3     1 X35476      0.0000 
      4 C4        -66.8490  -80.4050  -85.3510 C.2       1 X35476      0.0000 
      5 C5        -67.8690  -79.4570  -85.4530 C.2       1 X35476      0.0000 
      6 C6        -68.3940  -78.6320  -84.3090 C.ar      1 X35476      0.0000 
      7 C7        -69.7890  -78.4780  -84.0780 C.ar      1 X35476      0.0000 
      8 N8        -70.2250  -77.7000  -83.0130 N.ar      1 X35476      0.0000 
      9 C9        -69.3510  -77.0550  -82.1470 C.ar      1 X35476      0.0000 
     10 C10       -67.9590  -77.1720  -82.3370 C.ar      1 X35476      0.0000 
     11 C11       -67.4870  -77.9640  -83.4260 C.ar      1 X35476      0.0000 
     12 O12       -68.4480  -79.2160  -86.6480 O.2       1 X35476      0.0000 
     13 S13       -66.0340  -80.8100  -83.8760 S.3       1 X35476      0.0000 
     14 C14       -65.0590  -81.9250  -84.7510 C.2       1 X35476      0.0000 
     15 N15       -64.0840  -82.6850  -84.1970 N.pl3     1 X35476      0.0000 
     16 C16       -63.7740  -82.5690  -82.7760 C.3       1 X35476      0.0000 
     17 C17       -62.4100  -81.9760  -82.5800 C.2       1 X35476      0.0000 
     18 C18       -62.1950  -80.5310  -82.5310 C.2       1 X35476      0.0000 
     19 H         -66.2708  -81.6903  -88.3315 H         1 X35476      0.0000 
     20 H         -67.4770  -80.4411  -87.8728 H         1 X35476      0.0000 
     21 H         -70.4527  -78.9417  -84.6985 H         1 X35476      0.0000 
     22 H         -69.7085  -76.4928  -81.3684 H         1 X35476      0.0000 
     23 H         -67.3067  -76.7106  -81.7230 H         1 X35476      0.0000 
     24 H         -66.4779  -78.0577  -83.5807 H         1 X35476      0.0000 
     25 H         -63.5338  -83.3601  -84.7413 H         1 X35476      0.0000 
     26 H         -63.8044  -83.5557  -82.2939 H         1 X35476      0.0000 
     27 H         -64.5135  -81.9320  -82.2718 H         1 X35476      0.0000 
     28 H         -61.6256  -82.6088  -82.4803 H         1 X35476      0.0000 
@<TRIPOS>BOND
     1    2    1 1    
     2   14    1 2    
     3    3    2 1    
     4    4    2 2    
     5   19    3 1    
     6   20    3 1    
     7    5    4 1    
     8   13    4 1    
     9    6    5 1    
    10   12    5 2    
    11    7    6 ar   
    12   11    6 ar   
    13    8    7 ar   
    14   21    7 1    
    15    9    8 ar   
    16   10    9 ar   
    17   22    9 1    
    18   11   10 ar   
    19   23   10 1    
    20   24   11 1    
    21   14   13 1    
    22   15   14 1    
    23   16   15 1    
    24   25   15 1    
    25   17   16 1    
    26   26   16 1    
    27   27   16 1    
    28   18   17 2    
    29   28   17 1    
@<TRIPOS>SUBSTRUCTURE
     1 X35476      1 GROUP   
@<TRIPOS>SET

