#    Name: 2baq_PQB_1_INTS_M
#    Modification time : Mon Mar 24 20:28:48 2014

@<TRIPOS>MOLECULE
2baq_PQB_1_INTS_M
   69     0     9     0     0
SMALL
NO_CHARGES


@<TRIPOS>ATOM
      1 O          -4.0010   -3.3380   19.6955 O.2       1 ALC1        0.0000 
      2 O          -3.5520   -1.8300   19.6560 O.2       7 ALL1        0.0000 
      3 O          -4.4500   -4.8460   19.7350 O.2       4 ALP1        0.0000 
      4 CA         -2.6700   -1.0035   18.3140 C.3       3 GLC5        0.0000 
      5 CA         -3.2620   -0.7100   20.4000 C.3       9 GLL5        0.0000 
      6 CA         -2.0780   -1.2970   16.2280 C.3       6 GLP5        0.0000 
      7 CA         -4.8215    0.3055   22.0775 C.3       3 GLC5        0.0000 
      8 CA         -2.8300   -0.6780   21.7220 C.3       9 GLL5        0.0000 
      9 CA         -6.8130    1.2890   22.4330 C.3       6 GLP5        0.0000 
     10 CA         -5.9620   -0.6260   19.5975 C.3       3 GLC5        0.0000 
     11 CA         -5.1590    0.7950   18.5190 C.3       9 GLL5        0.0000 
     12 CA         -6.7650   -2.0470   20.6760 C.3       6 GLP5        0.0000 
     13 CA         -4.3805    4.0805   16.7020 C.3       3 GLC5        0.0000 
     14 CA         -3.6260    1.9820   16.5670 C.3       9 GLL5        0.0000 
     15 CA         -5.1350    6.1790   16.8370 C.3       6 GLP5        0.0000 
     16 N          -2.9405   -4.3415   22.4980 N.am      2 SEC2        0.0000 
     17 N          -3.0010   -2.9290   22.1980 N.am      8 SEL2        0.0000 
     18 N          -2.8800   -5.7540   22.7980 N.am      5 SEP2        0.0000 
     19 CA          0.7690   -1.9375   22.9000 C.3       3 GLC5        0.0000 
     20 CA         -0.7490   -0.9680   23.9500 C.3       9 GLL5        0.0000 
     21 CA          2.2870   -2.9070   21.8500 C.3       6 GLP5        0.0000 
     22 CA          0.3235   -0.0405   22.3910 C.3       3 GLC5        0.0000 
     23 CA          1.3960    0.8870   20.8320 C.3       6 GLP5        0.0000 
     24 CA         -1.3030   -4.0625   26.4695 C.3       3 GLC5        0.0000 
     25 CA         -1.9860   -1.9630   26.2780 C.3       9 GLL5        0.0000 
     26 CA         -0.6200   -6.1620   26.6610 C.3       6 GLP5        0.0000 
     27 CA         -4.6620   -3.8450   25.6790 C.3       3 GLC5        0.0000 
     28 CA         -3.2970   -3.6180   27.3160 C.3       9 GLL5        0.0000 
     29 CA         -6.0270   -4.0720   24.0420 C.3       6 GLP5        0.0000 
     30 CA         -6.6370   -2.1655   28.6535 C.3       3 GLC5        0.0000 
     31 CA         -5.4790   -3.6350   28.5580 C.3       9 GLL5        0.0000 
     32 CA         -7.7950   -0.6960   28.7490 C.3       6 GLP5        0.0000 
     33 CA         -6.1955   -4.7810   26.9735 C.3       3 GLC5        0.0000 
     34 CA         -6.9120   -5.9270   25.3890 C.3       6 GLP5        0.0000 
     35 CA         -4.3090   -3.1045   24.5355 C.3       3 GLC5        0.0000 
     36 CA         -2.5910   -2.1370   25.0290 C.3       9 GLL5        0.0000 
     37 CA         -4.9055   -1.3705   20.8685 C.3       3 GLC5        0.0000 
     38 CA         -1.1285   -0.7860   20.0935 C.3       3 GLC5        0.0000 
     39 CA          0.7890   -0.8780   19.1260 C.3       6 GLP5        0.0000 
     40 CA         -5.1370    2.1805   20.1208 C.3       3 GLC5        0.0000 
     41 CA         -3.7950    0.9890   18.7340 C.3       9 GLL5        0.0000 
     42 CA         -5.7970    3.4690   21.6150 C.3       6 GLP5        0.0000 
     43 CA         -6.5400    2.5535   17.9712 C.3       3 GLC5        0.0000 
     44 CA         -7.6220    4.1290   18.0150 C.3       6 GLP5        0.0000 
     45 CA         -5.4490   -0.4240   16.4637 C.3       3 GLC5        0.0000 
     46 CA         -5.7570    1.1610   17.3360 C.3       9 GLL5        0.0000 
     47 CA         -5.4400   -1.8260   15.0000 C.3       6 GLP5        0.0000 
     48 CA         -6.4592    3.0322   16.9040 C.3       3 GLC5        0.0000 
     49 CA         -5.6000    2.1130   15.2230 C.3       9 GLL5        0.0000 
     50 CA         -4.6907    2.2322   13.9125 C.3       3 GLC5        0.0000 
     51 CA         -4.9930    1.7580   16.3630 C.3       9 GLL5        0.0000 
     52 CA         -4.0850    2.5290   12.0320 C.3       6 GLP5        0.0000 
     53 CA         -6.9522    2.1206   15.0306 C.3       3 GLC5        0.0000 
     54 CA         -8.4170    2.4550   14.0250 C.3       6 GLP5        0.0000 
     55 CA         -4.9506    0.0664   15.5900 C.3       3 GLC5        0.0000 
     56 CA         -1.8345    0.6875   24.4280 C.3       3 GLC5        0.0000 
     57 CA         -1.9690   -1.6480   23.8680 C.3       9 GLL5        0.0000 
     58 CA         -2.3100    2.6830   24.9470 C.3       6 GLP5        0.0000 
     59 CA         -1.3838    0.8257   25.3545 C.3       3 GLC5        0.0000 
     60 CA         -0.7640   -1.2770   26.3400 C.3       9 GLL5        0.0000 
     61 CA         -3.6705   -1.1984   25.9091 C.3       3 GLC5        0.0000 
     62 CA         -5.2080   -0.4690   26.4550 C.3       6 GLP5        0.0000 
     63 CA          0.4276   -2.4941   26.7370 C.3       3 GLC5        0.0000 
     64 CA          2.0770   -3.4910   27.4540 C.3       6 GLP5        0.0000 
     65 CA         -4.4300   -2.1340   27.2170 C.3       3 GLC5        0.0000 
     66 CA         -2.1360   -4.9805   27.3200 C.3       3 GLC5        0.0000 
     67 CA         -1.2305   -3.4592   23.5020 C.3       3 GLC5        0.0000 
     68 CA         -0.4860   -5.1960   22.5350 C.3       6 GLP5        0.0000 
     69 CA         -3.0531    0.1310   16.7781 C.3       3 GLC5        0.0000 
@<TRIPOS>BOND
@<TRIPOS>SUBSTRUCTURE
     1 ALC1        1 GROUP        1 X    ALC  0     ROOT ALC X 1
     2 SEC2       16 GROUP        1 X    SEC  0     **** SEC X 2
     3 GLC5        4 GROUP        1 X    GLC  0     **** GLC X 6
     4 ALP1        3 GROUP        1 Y    ALP  0     ROOT ALP Y 8
     5 SEP2       18 GROUP        1 Y    SEP  0     **** SEP Y 9
     6 GLP5        6 GROUP        1 Y    GLP  0     **** GLP Y 13
     7 ALL1        2 GROUP        1 Z    ALL  0     ROOT ALL Z 15
     8 SEL2       17 GROUP        1 Z    SEL  0     **** SEL Z 16
     9 GLL5        5 GROUP        1 Z    GLL  0     **** GLL Z 20
@<TRIPOS>SET

