#    Name: 2baq_PQB_1_ligand
#    Modification time : Mon Mar 24 20:28:48 2014

@<TRIPOS>MOLECULE
2baq_PQB_1_ligand
   44    46     1     0     0
SMALL
NO_CHARGES


@<TRIPOS>ATOM
      1 N1         -3.5520   -1.8300   19.6560 N.pl3     1 PQB401      0.0000 
      2 C2         -3.2620   -0.7100   20.4000 C.2       1 PQB401      0.0000 
      3 C3         -2.8300   -0.6780   21.7220 C.2       1 PQB401      0.0000 
      4 C4         -2.6600    0.6880   22.0900 C.2       1 PQB401      0.0000 
      5 N5         -2.9820    1.4210   21.0610 N.2       1 PQB401      0.0000 
      6 N6         -3.3370    0.5730   19.9920 N.pl3     1 PQB401      0.0000 
      7 C7         -3.7950    0.9890   18.7340 C.ar      1 PQB401      0.0000 
      8 C8         -5.1590    0.7950   18.5190 C.ar      1 PQB401      0.0000 
      9 C9         -5.7570    1.1610   17.3360 C.ar      1 PQB401      0.0000 
     10 C10        -4.9930    1.7580   16.3630 C.ar      1 PQB401      0.0000 
     11 F11        -5.6000    2.1130   15.2230 F         1 PQB401      0.0000 
     12 C12        -3.6260    1.9820   16.5670 C.ar      1 PQB401      0.0000 
     13 C13        -3.0170    1.6040   17.7560 C.ar      1 PQB401      0.0000 
     14 C14        -2.6130   -1.8400   22.5670 C.2       1 PQB401      0.0000 
     15 O15        -3.0010   -2.9290   22.1980 O.2       1 PQB401      0.0000 
     16 C16        -1.9690   -1.6480   23.8680 C.ar      1 PQB401      0.0000 
     17 C17        -0.7490   -0.9680   23.9500 C.ar      1 PQB401      0.0000 
     18 C18        -0.1510   -0.7860   25.1840 C.ar      1 PQB401      0.0000 
     19 C19        -0.7640   -1.2770   26.3400 C.ar      1 PQB401      0.0000 
     20 C20        -1.9860   -1.9630   26.2780 C.ar      1 PQB401      0.0000 
     21 O21        -2.5390   -2.4070   27.4420 O.3       1 PQB401      0.0000 
     22 C22        -3.2970   -3.6180   27.3160 C.3       1 PQB401      0.0000 
     23 C23        -4.0070   -3.9800   28.6420 C.3       1 PQB401      0.0000 
     24 O25        -3.5630   -3.2170   29.7620 O.3       1 PQB401      0.0000 
     25 C26        -5.4790   -3.6350   28.5580 C.3       1 PQB401      0.0000 
     26 O27        -6.1120   -4.8230   28.1150 O.3       1 PQB401      0.0000 
     27 C28        -2.5910   -2.1370   25.0290 C.ar      1 PQB401      0.0000 
     28 H          -2.3579    0.9495   22.9604 H         1 PQB401      0.0000 
     29 H          -5.7290    0.3637   19.2745 H         1 PQB401      0.0000 
     30 H          -6.7572    0.9907   17.1833 H         1 PQB401      0.0000 
     31 H          -3.0706    2.4325   15.8237 H         1 PQB401      0.0000 
     32 H          -2.0254    1.7715   17.9113 H         1 PQB401      0.0000 
     33 H          -0.3071   -0.6099   23.0974 H         1 PQB401      0.0000 
     34 H           0.7472   -0.2888   25.2577 H         1 PQB401      0.0000 
     35 H          -0.3110   -1.1334   27.2575 H         1 PQB401      0.0000 
     36 H          -2.6585   -4.4721   27.0445 H         1 PQB401      0.0000 
     37 H          -4.0750   -3.5333   26.5424 H         1 PQB401      0.0000 
     38 H          -3.9255   -5.0279   28.8201 H         1 PQB401      0.0000 
     39 H          -5.5978   -2.8212   27.8574 H         1 PQB401      0.0000 
     40 H          -5.8138   -3.3335   29.5399 H         1 PQB401      0.0000 
     41 H          -3.4918   -2.6229   24.9575 H         1 PQB401      0.0000 
     42 H          -3.4733   -2.5937   20.2967 H         1 PQB401      0.0000 
     43 H          -2.8951   -2.5735   29.3883 H         1 PQB401      0.0000 
     44 H          -5.3948   -5.3391   27.6468 H         1 PQB401      0.0000 
@<TRIPOS>BOND
     1    2    1 1    
     2   42    1 1    
     3    3    2 2    
     4    6    2 1    
     5    4    3 1    
     6   14    3 1    
     7    5    4 2    
     8   28    4 1    
     9    6    5 1    
    10    7    6 1    
    11    8    7 ar   
    12   13    7 ar   
    13    9    8 ar   
    14   29    8 1    
    15   10    9 ar   
    16   30    9 1    
    17   11   10 1    
    18   12   10 ar   
    19   13   12 ar   
    20   31   12 1    
    21   32   13 1    
    22   15   14 2    
    23   16   14 1    
    24   17   16 ar   
    25   27   16 ar   
    26   18   17 ar   
    27   33   17 1    
    28   19   18 ar   
    29   34   18 1    
    30   20   19 ar   
    31   35   19 1    
    32   21   20 1    
    33   27   20 ar   
    34   22   21 1    
    35   23   22 1    
    36   36   22 1    
    37   37   22 1    
    38   24   23 1    
    39   25   23 1    
    40   38   23 1    
    41   43   24 1    
    42   26   25 1    
    43   39   25 1    
    44   40   25 1    
    45   44   26 1    
    46   41   27 1    
@<TRIPOS>SUBSTRUCTURE
     1 PQB401      1 GROUP   
@<TRIPOS>SET

