#    Name: 2uyi_K02_2_INTS_M
#    Modification time : Tue Mar 25 00:27:24 2014

@<TRIPOS>MOLECULE
2uyi_K02_2_INTS_M
   76     0     3     0     0
SMALL
NO_CHARGES


@<TRIPOS>ATOM
      1 CA          5.7640   24.8000   36.1010 C.3       1 GLC5        0.0000 
      2 CA          5.6470   25.9070   34.5020 C.3       3 GLL5        0.0000 
      3 CA          5.8810   23.6930   37.7000 C.3       2 GLP5        0.0000 
      4 CA          3.9960   26.6845   34.2070 C.3       1 GLC5        0.0000 
      5 CA          2.3450   27.4620   33.9120 C.3       2 GLP5        0.0000 
      6 CA          6.8590   25.7045   36.8405 C.3       1 GLC5        0.0000 
      7 CA          7.0250   26.7480   35.1160 C.3       3 GLL5        0.0000 
      8 CA          6.6930   24.6610   38.5650 C.3       2 GLP5        0.0000 
      9 CA          9.0230   27.3155   31.6550 C.3       1 GLC5        0.0000 
     10 CA          7.3250   26.9290   32.7420 C.3       3 GLL5        0.0000 
     11 CA         10.7210   27.7020   30.5680 C.3       2 GLP5        0.0000 
     12 CA          1.3155   26.4350   29.4940 C.3       1 GLC5        0.0000 
     13 CA          3.2280   25.8260   29.2980 C.3       3 GLL5        0.0000 
     14 CA         -0.5970   27.0440   29.6900 C.3       2 GLP5        0.0000 
     15 CA          2.7730   27.2060   30.5555 C.3       1 GLC5        0.0000 
     16 CA          2.3180   28.5860   31.8130 C.3       2 GLP5        0.0000 
     17 CA          3.0340   22.5875   29.3155 C.3       1 GLC5        0.0000 
     18 CA          4.1040   23.9010   27.8410 C.3       3 GLL5        0.0000 
     19 CA          1.9640   21.2740   30.7900 C.3       2 GLP5        0.0000 
     20 CA          5.2070   21.1455   26.6800 C.3       1 GLC5        0.0000 
     21 CA          4.1610   22.8520   26.7720 C.3       3 GLL5        0.0000 
     22 CA          6.2530   19.4390   26.5880 C.3       2 GLP5        0.0000 
     23 CA          1.0745   21.8790   24.0250 C.3       1 GLC5        0.0000 
     24 CA          2.8230   21.8220   24.8870 C.3       3 GLL5        0.0000 
     25 CA         -0.6740   21.9360   23.1630 C.3       2 GLP5        0.0000 
     26 CA          2.2915   19.8835   25.0925 C.3       1 GLC5        0.0000 
     27 CA          1.7600   17.9450   25.2980 C.3       2 GLP5        0.0000 
     28 CA          4.1265   20.3740   25.1520 C.3       1 GLC5        0.0000 
     29 CA          5.4300   18.9260   25.4170 C.3       2 GLP5        0.0000 
     30 CA          3.7720   21.3115   23.2975 C.3       1 GLC5        0.0000 
     31 CA          4.7210   20.8010   21.7080 C.3       2 GLP5        0.0000 
     32 CA          0.5625   22.8735   24.6410 C.3       1 GLC5        0.0000 
     33 CA          1.7990   23.8110   26.1190 C.3       3 GLL5        0.0000 
     34 CA         -0.1820   24.3425   26.1710 C.3       1 GLC5        0.0000 
     35 CA         -2.1630   24.8740   26.2230 C.3       2 GLP5        0.0000 
     36 CA          0.8000   26.4530   26.9690 C.3       1 GLC5        0.0000 
     37 CA          1.7000   24.8280   27.2490 C.3       3 GLL5        0.0000 
     38 CA         -0.1000   28.0780   26.6890 C.3       2 GLP5        0.0000 
     39 CA         -0.2480   24.4285   27.3115 C.3       1 GLC5        0.0000 
     40 CA         -2.1960   24.0290   27.3740 C.3       2 GLP5        0.0000 
     41 CA          9.9730   25.6295   30.3725 C.3       1 GLC5        0.0000 
     42 CA          9.2250   23.5570   30.1770 C.3       3 GLL5        0.0000 
     43 CA         10.1160   23.6785   31.8330 C.3       1 GLC5        0.0000 
     44 CA         11.0070   23.8000   33.4890 C.3       2 GLP5        0.0000 
     45 CA          6.0485   22.1815   32.8350 C.3       1 GLC5        0.0000 
     46 CA          5.9840   22.2330   31.0170 C.3       3 GLL5        0.0000 
     47 CA          6.1130   22.1300   34.6530 C.3       2 GLP5        0.0000 
     48 CA          6.3195   20.9425   32.5900 C.3       1 GLC5        0.0000 
     49 CA          5.6050   20.7940   30.7560 C.3       3 GLL5        0.0000 
     50 CA          7.0340   21.0910   34.4240 C.3       2 GLP5        0.0000 
     51 CA          4.9795   19.1360   30.3520 C.3       1 GLC5        0.0000 
     52 CA          4.3540   17.4780   29.9480 C.3       2 GLP5        0.0000 
     53 CA          5.9290   20.1165   28.6720 C.3       1 GLC5        0.0000 
     54 CA          4.9420   27.4270   32.9015 C.3       1 GLC5        0.0000 
     55 CA          3.1520   28.2950   33.0070 C.3       2 GLP5        0.0000 
     56 CA          6.0870   28.2048   35.0675 C.3       1 GLC5        0.0000 
     57 CA          5.8380   30.0820   35.3260 C.3       2 GLP5        0.0000 
     58 CA          8.3070   27.6127   36.1493 C.3       1 GLC5        0.0000 
     59 CA          7.7950   27.2130   34.0310 C.3       3 GLL5        0.0000 
     60 CA          9.2040   28.2450   37.7250 C.3       2 GLP5        0.0000 
     61 CA          7.1385   28.7815   33.7592 C.3       1 GLC5        0.0000 
     62 CA          6.7170   30.4920   34.1320 C.3       2 GLP5        0.0000 
     63 CA          2.7835   24.5453   30.7052 C.3       1 GLC5        0.0000 
     64 CA          1.5670   23.5530   31.9530 C.3       2 GLP5        0.0000 
     65 CA          3.6703   26.0080   26.9973 C.3       1 GLC5        0.0000 
     66 CA          2.9710   24.7110   28.0200 C.3       3 GLL5        0.0000 
     67 CA          3.8030   27.7100   26.0640 C.3       2 GLP5        0.0000 
     68 CA          1.1718   23.7192   28.8953 C.3       1 GLC5        0.0000 
     69 CA          0.0080   22.6690   30.1560 C.3       2 GLP5        0.0000 
     70 CA          2.7763   26.0147   26.3740 C.3       1 GLC5        0.0000 
     71 CA          4.7728   26.5014   28.0489 C.3       1 GLC5        0.0000 
     72 CA          5.0970   24.1760   28.8140 C.3       3 GLL5        0.0000 
     73 CA          4.9970   28.1460   26.9620 C.3       2 GLP5        0.0000 
     74 CA          3.8793   21.3938   30.8383 C.3       1 GLC5        0.0000 
     75 CA          8.3932   25.4977   34.0341 C.3       1 GLC5        0.0000 
     76 CA          9.7770   24.2610   34.1770 C.3       2 GLP5        0.0000 
@<TRIPOS>BOND
@<TRIPOS>SUBSTRUCTURE
     1 GLC5        1 GROUP        1 X    GLC  0     ROOT GLC X 6
     2 GLP5        3 GROUP        1 Y    GLP  0     ROOT GLP Y 13
     3 GLL5        2 GROUP        1 Z    GLL  0     ROOT GLL Z 20
@<TRIPOS>SET

