#    Name: 2uyi_K02_2_ligand
#    Modification time : Tue Mar 25 00:27:24 2014

@<TRIPOS>MOLECULE
2uyi_K02_2_ligand
   49    51     1     0     0
SMALL
NO_CHARGES


@<TRIPOS>ATOM
      1 O1          4.1050   25.1400   32.1710 O.2       1 K02604      0.0000 
      2 C13         5.1800   25.6280   31.8690 C.2       1 K02604      0.0000 
      3 C14         6.1390   26.1890   32.8500 C.2       1 K02604      0.0000 
      4 S2          5.6470   25.9070   34.5020 S.3       1 K02604      0.0000 
      5 C15         7.0250   26.7480   35.1160 C.2       1 K02604      0.0000 
      6 C16         7.7950   27.2130   34.0310 C.2       1 K02604      0.0000 
      7 C17         7.3250   26.9290   32.7420 C.2       1 K02604      0.0000 
      8 N2          5.5440   25.7010   30.6130 N.am      1 K02604      0.0000 
      9 C12         4.7720   25.2490   29.6170 C.2       1 K02604      0.0000 
     10 S1          3.2280   25.8260   29.2980 S.3       1 K02604      0.0000 
     11 C6          2.9710   24.7110   28.0200 C.2       1 K02604      0.0000 
     12 C5          4.1040   23.9010   27.8410 C.2       1 K02604      0.0000 
     13 C11         4.1610   22.8520   26.7720 C.3       1 K02604      0.0000 
     14 C9          2.7540   22.5980   26.2330 C.3       1 K02604      0.0000 
     15 C10         2.8230   21.8220   24.8870 C.3       1 K02604      0.0000 
     16 C8          1.7990   23.8110   26.1190 C.3       1 K02604      0.0000 
     17 C7          1.7000   24.8280   27.2490 C.3       1 K02604      0.0000 
     18 C4          5.0970   24.1760   28.8140 C.2       1 K02604      0.0000 
     19 C3          6.4230   23.4900   28.9030 C.2       1 K02604      0.0000 
     20 O2          7.1040   23.6000   27.9130 O.2       1 K02604      0.0000 
     21 N1          6.8480   22.7580   29.9710 N.am      1 K02604      0.0000 
     22 C2          8.2750   22.3740   30.1600 C.3       1 K02604      0.0000 
     23 C1          9.2250   23.5570   30.1770 C.3       1 K02604      0.0000 
     24 C18         5.9840   22.2330   31.0170 C.3       1 K02604      0.0000 
     25 C19         5.6050   20.7940   30.7560 C.3       1 K02604      0.0000 
     26 H           7.0870   26.7888   36.0084 H         1 K02604      0.0000 
     27 H           8.6450   27.7265   34.1798 H         1 K02604      0.0000 
     28 H           7.7391   27.1927   31.9323 H         1 K02604      0.0000 
     29 H           6.4855   26.1332   30.3621 H         1 K02604      0.0000 
     30 H           4.5550   21.9252   27.1790 H         1 K02604      0.0000 
     31 H           4.7961   23.1846   25.9560 H         1 K02604      0.0000 
     32 H           2.2587   21.8712   26.9470 H         1 K02604      0.0000 
     33 H           0.7627   23.4091   25.9080 H         1 K02604      0.0000 
     34 H           2.0600   24.3607   25.1653 H         1 K02604      0.0000 
     35 H           1.6026   25.8121   26.8309 H         1 K02604      0.0000 
     36 H           0.8590   24.5847   27.8705 H         1 K02604      0.0000 
     37 H           8.5852   21.6843   29.3529 H         1 K02604      0.0000 
     38 H           8.3883   21.8171   31.1089 H         1 K02604      0.0000 
     39 H           5.0592   22.8282   31.0924 H         1 K02604      0.0000 
     40 H           6.4835   22.2888   31.9981 H         1 K02604      0.0000 
     41 H           3.3322   22.3291   24.1916 H         1 K02604      0.0000 
     42 H           3.2737   20.9355   24.9921 H         1 K02604      0.0000 
     43 H           1.9125   21.6454   24.5130 H         1 K02604      0.0000 
     44 H          10.1743   23.2692   30.3032 H         1 K02604      0.0000 
     45 H           9.1871   24.0760   29.3231 H         1 K02604      0.0000 
     46 H           9.0111   24.1945   30.9172 H         1 K02604      0.0000 
     47 H           6.4085   20.2002   30.7135 H         1 K02604      0.0000 
     48 H           5.0097   20.4309   31.4728 H         1 K02604      0.0000 
     49 H           5.1173   20.6897   29.8892 H         1 K02604      0.0000 
@<TRIPOS>BOND
     1    2    1 2    
     2    3    2 1    
     3    8    2 am   
     4    4    3 1    
     5    7    3 2    
     6    5    4 1    
     7    6    5 2    
     8   26    5 1    
     9    7    6 1    
    10   27    6 1    
    11   28    7 1    
    12    9    8 1    
    13   29    8 1    
    14   10    9 1    
    15   18    9 2    
    16   11   10 1    
    17   12   11 2    
    18   17   11 1    
    19   13   12 1    
    20   18   12 1    
    21   14   13 1    
    22   30   13 1    
    23   31   13 1    
    24   15   14 1    
    25   16   14 1    
    26   32   14 1    
    27   41   15 1    
    28   42   15 1    
    29   43   15 1    
    30   17   16 1    
    31   33   16 1    
    32   34   16 1    
    33   35   17 1    
    34   36   17 1    
    35   19   18 1    
    36   20   19 2    
    37   21   19 am   
    38   22   21 1    
    39   24   21 1    
    40   23   22 1    
    41   37   22 1    
    42   38   22 1    
    43   44   23 1    
    44   45   23 1    
    45   46   23 1    
    46   25   24 1    
    47   39   24 1    
    48   40   24 1    
    49   47   25 1    
    50   48   25 1    
    51   49   25 1    
@<TRIPOS>SUBSTRUCTURE
     1 K02604      1 GROUP   
@<TRIPOS>SET

