#    Name: 3ncr_ADP_1_INTS_M
#    Modification time : Tue Mar 25 01:16:27 2014

@<TRIPOS>MOLECULE
3ncr_ADP_1_INTS_M
   67     0    15     0     0
SMALL
NO_CHARGES


@<TRIPOS>ATOM
      1 Zn         15.6980   13.2880   25.9320 Zn        4 ZIC7        0.0000 
      2 Zn         15.8170   13.3490   24.9740 Zn       14 ZIL7        0.0000 
      3 Zn         15.5790   13.2270   26.8900 Zn        9 ZIP7        0.0000 
      4 N          16.9275   12.5625   24.4985 N.am      2 SEC2        0.0000 
      5 N          15.8170   13.3490   24.9740 N.am     12 SEL2        0.0000 
      6 N          18.0380   11.7760   24.0230 N.am      7 SEP2        0.0000 
      7 N          17.1350   13.4120   22.1635 N.am      2 SEC2        0.0000 
      8 N          16.6310   14.5550   23.0280 N.am     12 SEL2        0.0000 
      9 N          17.6390   12.2690   21.2990 N.am      7 SEP2        0.0000 
     10 N          14.7350   16.8115   23.7525 N.am      2 SEC2        0.0000 
     11 N          14.5210   15.1260   24.0790 N.am     12 SEL2        0.0000 
     12 N          14.9490   18.4970   23.4260 N.am      7 SEP2        0.0000 
     13 NZ         15.0535   14.2695   28.5600 N.4       3 LYC4        0.0000 
     14 NZ         15.7380   15.1140   27.3440 N.4      13 LYL4        0.0000 
     15 NZ         14.3690   13.4250   29.7760 N.4       8 LYP4        0.0000 
     16 Zn         15.6585   14.1705   27.1170 Zn        4 ZIC7        0.0000 
     17 Zn         15.7380   15.1140   27.3440 Zn       14 ZIL7        0.0000 
     18 N          15.1510   17.9790   25.0080 N.am      2 SEC2        0.0000 
     19 N          15.3530   17.4610   26.5900 N.am     12 SEL2        0.0000 
     20 N          15.1020   18.7220   27.3155 N.am      2 SEC2        0.0000 
     21 N          14.8510   19.9830   28.0410 N.am      7 SEP2        0.0000 
     22 CA         17.0600   18.6090   25.6715 C.3       5 GLC5        0.0000 
     23 CA         18.0460   17.9730   27.4090 C.3      15 GLL5        0.0000 
     24 CA         16.0740   19.2450   23.9340 C.3      10 GLP5        0.0000 
     25 CA         20.0035   19.4280   29.6100 C.3       5 GLC5        0.0000 
     26 CA         19.3010   18.0220   28.2650 C.3      15 GLL5        0.0000 
     27 CA         20.7060   20.8340   30.9550 C.3      10 GLP5        0.0000 
     28 CA         19.9765   19.5760   26.8140 C.3       5 GLC5        0.0000 
     29 CA         20.6520   21.1300   25.3630 C.3      10 GLP5        0.0000 
     30 CA         21.6220   16.1820   26.3055 C.3       5 GLC5        0.0000 
     31 CA         20.4440   17.1630   27.7550 C.3      15 GLL5        0.0000 
     32 CA         22.8000   15.2010   24.8560 C.3      10 GLP5        0.0000 
     33 O          22.4930   17.4950   30.6460 O.2       1 ALC1        0.0000 
     34 O          22.0410   17.9660   29.3990 O.2      11 ALL1        0.0000 
     35 O          22.9450   17.0240   31.8930 O.2       6 ALP1        0.0000 
     36 CA         17.3665   13.2580   30.9535 C.3       5 GLC5        0.0000 
     37 CA         19.4000   13.3540   31.1680 C.3      15 GLL5        0.0000 
     38 CA         15.3330   13.1620   30.7390 C.3      10 GLP5        0.0000 
     39 CA         19.4545   11.7750   34.2310 C.3       5 GLC5        0.0000 
     40 CA         19.7540   12.2760   32.0930 C.3      15 GLL5        0.0000 
     41 CA         19.1550   11.2740   36.3690 C.3      10 GLP5        0.0000 
     42 O          19.0855   10.0175   33.2280 O.2       1 ALC1        0.0000 
     43 O          19.1090   11.1150   32.1260 O.2      11 ALL1        0.0000 
     44 O          19.0620    8.9200   34.3300 O.2       6 ALP1        0.0000 
     45 N          20.9895   11.5100   34.0905 N.am      2 SEC2        0.0000 
     46 N          20.7260   12.5200   32.9340 N.am     12 SEL2        0.0000 
     47 N          21.2530   10.5000   35.2470 N.am      7 SEP2        0.0000 
     48 CA         22.6560   13.2230   31.5545 C.3       5 GLC5        0.0000 
     49 CA         21.4030   13.6530   32.9570 C.3      15 GLL5        0.0000 
     50 CA         23.9090   12.7930   30.1520 C.3      10 GLP5        0.0000 
     51 CA         22.8540   15.3195   32.6625 C.3       5 GLC5        0.0000 
     52 CA         24.3050   16.9860   32.3680 C.3      10 GLP5        0.0000 
     53 CA         22.4885   12.1570   33.7055 C.3       5 GLC5        0.0000 
     54 CA         23.5740   10.6610   34.4540 C.3      10 GLP5        0.0000 
     55 N          22.0480   15.8400   32.0310 N.am      2 SEC2        0.0000 
     56 N          21.1510   14.6560   32.1690 N.am     12 SEL2        0.0000 
     57 N          22.9450   17.0240   31.8930 N.am      7 SEP2        0.0000 
     58 CA         22.0460   13.6840   30.7005 C.3       5 GLC5        0.0000 
     59 CA         20.1830   14.5750   31.2490 C.3      15 GLL5        0.0000 
     60 CA         17.1332   18.9012   28.5805 C.3       5 GLC5        0.0000 
     61 CA         15.5930   19.8050   29.3240 C.3      10 GLP5        0.0000 
     62 CA         22.7070   17.3515   27.7698 C.3       5 GLC5        0.0000 
     63 CA         24.5760   17.6850   27.1620 C.3      10 GLP5        0.0000 
     64 CA         20.6945   18.8287   30.2370 C.3       5 GLC5        0.0000 
     65 CA         21.2320   16.8730   29.0000 C.3      15 GLL5        0.0000 
     66 CA         20.2570   12.0160   29.9838 C.3       5 GLC5        0.0000 
     67 CA         20.9370   11.2170   28.3370 C.3      10 GLP5        0.0000 
@<TRIPOS>BOND
@<TRIPOS>SUBSTRUCTURE
     1 ALC1       33 GROUP        1 X    ALC  0     ROOT ALC X 1
     2 SEC2        4 GROUP        1 X    SEC  0     **** SEC X 2
     3 LYC4       13 GROUP        1 X    LYC  0     **** LYC X 4
     4 ZIC7        1 GROUP        1 X    ZIC  0     **** ZIC X 5
     5 GLC5       22 GROUP        1 X    GLC  0     **** GLC X 6
     6 ALP1       35 GROUP        1 Y    ALP  0     ROOT ALP Y 8
     7 SEP2        6 GROUP        1 Y    SEP  0     **** SEP Y 9
     8 LYP4       15 GROUP        1 Y    LYP  0     **** LYP Y 11
     9 ZIP7        3 GROUP        1 Y    ZIP  0     **** ZIP Y 12
    10 GLP5       24 GROUP        1 Y    GLP  0     **** GLP Y 13
    11 ALL1       34 GROUP        1 Z    ALL  0     ROOT ALL Z 15
    12 SEL2        5 GROUP        1 Z    SEL  0     **** SEL Z 16
    13 LYL4       14 GROUP        1 Z    LYL  0     **** LYL Z 18
    14 ZIL7        2 GROUP        1 Z    ZIL  0     **** ZIL Z 19
    15 GLL5       23 GROUP        1 Z    GLL  0     **** GLL Z 20
@<TRIPOS>SET

