#    Name: 3ncr_ADP_1_ligand
#    Modification time : Tue Mar 25 01:16:27 2014

@<TRIPOS>MOLECULE
3ncr_ADP_1_ligand
   39    41     1     0     0
SMALL
NO_CHARGES


@<TRIPOS>ATOM
      1 PB         15.8530   14.6000   24.2590 P.3       1 ADP120      0.0000 
      2 O1B        15.8170   13.3490   24.9740 O.co2     1 ADP120      0.0000 
      3 O2B        16.6310   14.5550   23.0280 O.co2     1 ADP120      0.0000 
      4 O3B        14.5210   15.1260   24.0790 O.co2     1 ADP120      0.0000 
      5 PA         16.1880   16.2930   26.6120 P.3       1 ADP120      0.0000 
      6 O1A        15.7380   15.1140   27.3440 O.co2     1 ADP120      0.0000 
      7 O2A        15.3530   17.4610   26.5900 O.co2     1 ADP120      0.0000 
      8 O3A        16.5540   15.7750   25.1720 O.3       1 ADP120      0.0000 
      9 O5'        17.6030   16.6710   27.2060 O.3       1 ADP120      0.0000 
     10 C5'        18.0460   17.9730   27.4090 C.3       1 ADP120      0.0000 
     11 C4'        19.3010   18.0220   28.2650 C.3       1 ADP120      0.0000 
     12 O4'        19.0260   17.5170   29.5560 O.3       1 ADP120      0.0000 
     13 C3'        20.4440   17.1630   27.7550 C.3       1 ADP120      0.0000 
     14 O3'        21.2000   17.7200   26.6830 O.3       1 ADP120      0.0000 
     15 C2'        21.2320   16.8730   29.0000 C.3       1 ADP120      0.0000 
     16 O2'        22.0410   17.9660   29.3990 O.3       1 ADP120      0.0000 
     17 C1'        20.1340   16.7740   30.0380 C.3       1 ADP120      0.0000 
     18 N9         19.6950   15.3990   30.3300 N.pl3     1 ADP120      0.0000 
     19 C8         18.7140   14.7840   29.7140 C.2       1 ADP120      0.0000 
     20 N7         18.5050   13.5590   30.2010 N.2       1 ADP120      0.0000 
     21 C5         19.4000   13.3540   31.1680 C.ar      1 ADP120      0.0000 
     22 C6         19.7540   12.2760   32.0930 C.ar      1 ADP120      0.0000 
     23 N6         19.1090   11.1150   32.1260 N.pl3     1 ADP120      0.0000 
     24 N1         20.7260   12.5200   32.9340 N.ar      1 ADP120      0.0000 
     25 C2         21.4030   13.6530   32.9570 C.ar      1 ADP120      0.0000 
     26 N3         21.1510   14.6560   32.1690 N.ar      1 ADP120      0.0000 
     27 C4         20.1830   14.5750   31.2490 C.ar      1 ADP120      0.0000 
     28 H          17.2823   18.6038   27.9133 H         1 ADP120      0.0000 
     29 H          18.2818   18.4912   26.4544 H         1 ADP120      0.0000 
     30 H          19.6518   19.0415   28.3312 H         1 ADP120      0.0000 
     31 H          19.9780   16.1964   27.4634 H         1 ADP120      0.0000 
     32 H          21.7122   15.9622   28.9332 H         1 ADP120      0.0000 
     33 H          20.5043   17.2381   30.9567 H         1 ADP120      0.0000 
     34 H          18.1785   15.1755   28.9668 H         1 ADP120      0.0000 
     35 H          18.6939   10.8177   31.2662 H         1 ADP120      0.0000 
     36 H          19.0969   10.6433   33.0077 H         1 ADP120      0.0000 
     37 H          22.2066   13.7433   33.6706 H         1 ADP120      0.0000 
     38 H          20.5870   17.6940   25.8933 H         1 ADP120      0.0000 
     39 H          22.4230   17.6960   30.2828 H         1 ADP120      0.0000 
@<TRIPOS>BOND
     1    2    1 ar   
     2    3    1 ar   
     3    4    1 ar   
     4    8    1 1    
     5    6    5 ar   
     6    7    5 ar   
     7    8    5 1    
     8    9    5 1    
     9   10    9 1    
    10   11   10 1    
    11   28   10 1    
    12   29   10 1    
    13   12   11 1    
    14   13   11 1    
    15   30   11 1    
    16   17   12 1    
    17   14   13 1    
    18   15   13 1    
    19   31   13 1    
    20   38   14 1    
    21   16   15 1    
    22   17   15 1    
    23   32   15 1    
    24   39   16 1    
    25   18   17 1    
    26   33   17 1    
    27   19   18 1    
    28   27   18 1    
    29   20   19 2    
    30   34   19 1    
    31   21   20 1    
    32   22   21 ar   
    33   27   21 ar   
    34   23   22 1    
    35   24   22 ar   
    36   35   23 1    
    37   36   23 1    
    38   25   24 ar   
    39   26   25 ar   
    40   37   25 1    
    41   27   26 ar   
@<TRIPOS>SUBSTRUCTURE
     1 ADP120      1 GROUP   
@<TRIPOS>SET

