#    Name: 3b4f_TUO_1_INTS_M
#    Modification time : Mon Mar 24 18:51:37 2014

@<TRIPOS>MOLECULE
3b4f_TUO_1_INTS_M
   38     0    12     0     0
SMALL
NO_CHARGES


@<TRIPOS>ATOM
      1 CA         -3.3075    0.6575   14.4470 C.3       4 GLC5        0.0000 
      2 CA         -5.0200    1.9580   14.5960 C.3      12 GLL5        0.0000 
      3 CA         -1.5950   -0.6430   14.2980 C.3       8 GLP5        0.0000 
      4 N          -3.9725    0.6275   18.7055 N.am      2 SEC2        0.0000 
      5 N          -5.2090    0.8740   18.2180 N.am     10 SEL2        0.0000 
      6 N          -2.7360    0.3810   19.1930 N.am      6 SEP2        0.0000 
      7 O          -4.6505   -1.0475   17.0420 O.2       1 ALC1        0.0000 
      8 O          -5.6520   -0.1380   16.4070 O.2       9 ALL1        0.0000 
      9 O          -3.6490   -1.9570   17.6770 O.2       5 ALP1        0.0000 
     10 Zn         -6.1385   -0.8565   15.9350 Zn        3 ZIC7        0.0000 
     11 Zn         -5.6520   -0.1380   16.4070 Zn       11 ZIL7        0.0000 
     12 Zn         -6.6250   -1.5750   15.4630 Zn        7 ZIP7        0.0000 
     13 CA         -7.5490    5.1890   15.5595 C.3       4 GLC5        0.0000 
     14 CA         -5.7020    4.6350   15.1040 C.3      12 GLL5        0.0000 
     15 CA         -9.3960    5.7430   16.0150 C.3       8 GLP5        0.0000 
     16 O          -5.0345    3.1705    8.6250 O.2       1 ALC1        0.0000 
     17 O          -4.2070    2.9650    9.4790 O.2       9 ALL1        0.0000 
     18 O          -5.8620    3.3760    7.7710 O.2       5 ALP1        0.0000 
     19 CA         -1.8995    0.2015   12.6363 C.3       4 GLC5        0.0000 
     20 CA         -2.4140    1.6580   11.2490 C.3      12 GLL5        0.0000 
     21 CA         -1.3680   -1.0373    9.6137 C.3       4 GLC5        0.0000 
     22 CA         -1.9940    0.4340   10.7000 C.3      12 GLL5        0.0000 
     23 CA         -0.3310   -1.9440    8.4940 C.3       8 GLP5        0.0000 
     24 CA         -4.1888   -1.9330    9.8578 C.3       4 GLC5        0.0000 
     25 CA         -2.8160   -0.6950   10.7670 C.3      12 GLL5        0.0000 
     26 CA         -4.9320   -3.2130    8.6500 C.3       8 GLP5        0.0000 
     27 CA         -2.5202   -0.6480   12.6817 C.3       4 GLC5        0.0000 
     28 CA         -4.0750   -0.6110   11.3640 C.3      12 GLL5        0.0000 
     29 CA         -5.8980   -0.6775   12.1658 C.3       4 GLC5        0.0000 
     30 CA         -7.5120   -1.3520   12.7020 C.3       8 GLP5        0.0000 
     31 CA         -2.8418    0.2692   13.0810 C.3       4 GLC5        0.0000 
     32 CA         -4.4930    0.6050   11.8950 C.3      12 GLL5        0.0000 
     33 CA         -7.7498    3.2160   15.4760 C.3       4 GLC5        0.0000 
     34 CA         -5.6280    2.3050   15.7980 C.3      12 GLL5        0.0000 
     35 CA         -9.6960    3.4620   15.0380 C.3       8 GLP5        0.0000 
     36 CA         -4.8882    4.7975   17.0800 C.3       4 GLC5        0.0000 
     37 CA         -5.9790    3.6350   16.0300 C.3      12 GLL5        0.0000 
     38 CA         -3.9360    5.4600   18.5930 C.3       8 GLP5        0.0000 
@<TRIPOS>BOND
@<TRIPOS>SUBSTRUCTURE
     1 ALC1        7 GROUP        1 X    ALC  0     ROOT ALC X 1
     2 SEC2        4 GROUP        1 X    SEC  0     **** SEC X 2
     3 ZIC7       10 GROUP        1 X    ZIC  0     **** ZIC X 5
     4 GLC5        1 GROUP        1 X    GLC  0     **** GLC X 6
     5 ALP1        9 GROUP        1 Y    ALP  0     ROOT ALP Y 8
     6 SEP2        6 GROUP        1 Y    SEP  0     **** SEP Y 9
     7 ZIP7       12 GROUP        1 Y    ZIP  0     **** ZIP Y 12
     8 GLP5        3 GROUP        1 Y    GLP  0     **** GLP Y 13
     9 ALL1        8 GROUP        1 Z    ALL  0     ROOT ALL Z 15
    10 SEL2        5 GROUP        1 Z    SEL  0     **** SEL Z 16
    11 ZIL7       11 GROUP        1 Z    ZIL  0     **** ZIL Z 19
    12 GLL5        2 GROUP        1 Z    GLL  0     **** GLL Z 20
@<TRIPOS>SET

