#    Name: 3b4f_TUO_1_ligand
#    Modification time : Mon Mar 24 18:51:37 2014

@<TRIPOS>MOLECULE
3b4f_TUO_1_ligand
   36    38     1     0     0
SMALL
NO_CHARGES


@<TRIPOS>ATOM
      1 CAE        -2.4140    1.6580   11.2490 C.ar      1 TUO300      0.0000 
      2 CAA        -1.9940    0.4340   10.7000 C.ar      1 TUO300      0.0000 
      3 CAB        -2.8160   -0.6950   10.7670 C.ar      1 TUO300      0.0000 
      4 CAC        -4.0750   -0.6110   11.3640 C.ar      1 TUO300      0.0000 
      5 CAG        -4.4930    0.6050   11.8950 C.ar      1 TUO300      0.0000 
      6 CAF        -3.6840    1.7580   11.8330 C.ar      1 TUO300      0.0000 
      7 CAN        -4.1570    2.9510   12.4100 C.2       1 TUO300      0.0000 
      8 CAM        -4.7460    2.9690   13.6630 C.ar      1 TUO300      0.0000 
      9 CAL        -5.0200    1.9580   14.5960 C.ar      1 TUO300      0.0000 
     10 CAK        -5.6280    2.3050   15.7980 C.ar      1 TUO300      0.0000 
     11 SAJ        -6.1020    1.2520   17.1160 S.o2      1 TUO300      0.0000 
     12 OAS        -5.2090    0.8740   18.2180 O.2       1 TUO300      0.0000 
     13 OAD        -7.5510    1.0130   17.0290 O.2       1 TUO300      0.0000 
     14 NAI        -5.6520   -0.1380   16.4070 N.pl3     1 TUO300      0.0000 
     15 CAT        -5.9790    3.6350   16.0300 C.ar      1 TUO300      0.0000 
     16 CAU        -5.7020    4.6350   15.1040 C.ar      1 TUO300      0.0000 
     17 CAV        -5.0820    4.3000   13.9150 C.ar      1 TUO300      0.0000 
     18 NAW        -4.7130    5.0600   12.8800 N.pl3     1 TUO300      0.0000 
     19 CAO        -4.1610    4.2810   11.9520 C.2       1 TUO300      0.0000 
     20 CAP        -3.6340    4.9130   10.6450 C.2       1 TUO300      0.0000 
     21 OAH        -3.1760    6.0570   10.6680 O.2       1 TUO300      0.0000 
     22 NAQ        -3.7040    4.2100    9.5330 N.am      1 TUO300      0.0000 
     23 NAR        -4.2070    2.9650    9.4790 N.pl3     1 TUO300      0.0000 
     24 H          -1.7945    2.4703   11.2214 H         1 TUO300      0.0000 
     25 H          -1.0733    0.3718   10.2457 H         1 TUO300      0.0000 
     26 H          -2.4919   -1.5877   10.3758 H         1 TUO300      0.0000 
     27 H          -4.6797   -1.4327   11.4093 H         1 TUO300      0.0000 
     28 H          -5.4225    0.6734   12.3499 H         1 TUO300      0.0000 
     29 H          -4.7767    0.9916   14.3925 H         1 TUO300      0.0000 
     30 H          -6.4594    3.8830   16.9174 H         1 TUO300      0.0000 
     31 H          -5.9559    5.6067   15.3043 H         1 TUO300      0.0000 
     32 H          -4.8298    6.0249   12.8172 H         1 TUO300      0.0000 
     33 H          -3.3455    4.6419    8.6218 H         1 TUO300      0.0000 
     34 H          -4.5967    2.6856    8.6015 H         1 TUO300      0.0000 
     35 H          -4.1467    2.4291   10.3212 H         1 TUO300      0.0000 
     36 H          -4.9534   -0.5220   17.0107 H         1 TUO300      0.0000 
@<TRIPOS>BOND
     1    2    1 ar   
     2    6    1 ar   
     3   24    1 1    
     4    3    2 ar   
     5   25    2 1    
     6    4    3 ar   
     7   26    3 1    
     8    5    4 ar   
     9   27    4 1    
    10    6    5 ar   
    11   28    5 1    
    12    7    6 1    
    13    8    7 1    
    14   19    7 2    
    15    9    8 ar   
    16   17    8 ar   
    17   10    9 ar   
    18   29    9 1    
    19   11   10 1    
    20   15   10 ar   
    21   12   11 2    
    22   13   11 2    
    23   14   11 1    
    24   36   14 1    
    25   16   15 ar   
    26   30   15 1    
    27   17   16 ar   
    28   31   16 1    
    29   18   17 1    
    30   19   18 1    
    31   32   18 1    
    32   20   19 1    
    33   21   20 2    
    34   22   20 am   
    35   23   22 1    
    36   33   22 1    
    37   34   23 1    
    38   35   23 1    
@<TRIPOS>SUBSTRUCTURE
     1 TUO300      1 GROUP   
@<TRIPOS>SET

