#    Name: 1P4A_1_CAVITY_N1_6.mol2
#    Modification time : Mon Mar 10 23:42:45 2014

@<TRIPOS>MOLECULE
1P4A_1_CAVITY_N1_6.mol2
   89     0     6     0     0
SMALL
NO_CHARGES


@<TRIPOS>ATOM
      1 OG         41.7036   84.1250   64.8954 O.2       1 SER1        0.0000 
      2 N          41.3939   83.0941   65.9401 N.2       2 ALA2        0.0000 
      3 DU         40.3775   84.7791   65.1478 H         6 CUB7        0.0000 
      4 N          40.0678   83.7482   66.1924 N.2       2 ALA2        0.0000 
      5 N          42.2275   76.7746   59.9510 N.2       2 ALA2        0.0000 
      6 O          41.2111   78.4596   59.1587 O.2       2 ALA2        0.0000 
      7 N          42.3325   84.9964   65.9419 N.2       2 ALA2        0.0000 
      8 N          45.7501   79.7658   61.7933 N.2       2 ALA2        0.0000 
      9 OG         45.4404   78.7349   62.8380 O.2       1 SER1        0.0000 
     10 DU         45.0434   82.4817   59.9563 H         6 CUB7        0.0000 
     11 N          44.7337   81.4508   61.0010 N.2       2 ALA2        0.0000 
     12 DU         44.4240   80.4199   62.0456 H         6 CUB7        0.0000 
     13 OG         44.1143   79.3890   63.0903 O.2       1 SER1        0.0000 
     14 OD1        43.7173   83.1357   60.2086 O.3       3 ASP3        0.0000 
     15 DU         43.4076   82.1048   61.2533 H         6 CUB7        0.0000 
     16 DU         43.0979   81.0739   62.2980 H         6 CUB7        0.0000 
     17 OG         42.7882   80.0430   63.3426 O.2       1 SER1        0.0000 
     18 OG         42.4785   79.0121   64.3873 O.2       1 SER1        0.0000 
     19 CA         42.1688   77.9812   65.4320 C.3       5 GLY6        0.0000 
     20 OD1        42.3912   83.7898   60.4609 O.3       3 ASP3        0.0000 
     21 OD1        42.0815   82.7589   61.5056 O.3       3 ASP3        0.0000 
     22 DU         41.7718   81.7280   62.5503 H         6 CUB7        0.0000 
     23 CA         41.4621   80.6971   63.5949 C.3       5 GLY6        0.0000 
     24 CA         41.1524   79.6662   64.6396 C.3       5 GLY6        0.0000 
     25 DU         40.7554   83.4130   61.7579 H         6 CUB7        0.0000 
     26 DU         40.4457   82.3821   62.8026 H         6 CUB7        0.0000 
     27 CA         40.1360   81.3512   63.8473 C.3       5 GLY6        0.0000 
     28 O          39.4293   84.0670   62.0102 O.2       2 ALA2        0.0000 
     29 OD1        39.1196   83.0361   63.0549 O.3       3 ASP3        0.0000 
     30 OD1        37.7935   83.6902   63.3072 O.3       3 ASP3        0.0000 
     31 O          39.1101   84.2265   59.9191 O.2       2 ALA2        0.0000 
     32 O          38.8004   83.1956   60.9638 O.2       2 ALA2        0.0000 
     33 O          38.4907   82.1647   62.0085 O.2       2 ALA2        0.0000 
     34 NZ         43.1661   78.6769   59.9528 N.2       4 LYS4        0.0000 
     35 NZ         42.8564   77.6460   60.9975 N.2       4 LYS4        0.0000 
     36 CA         42.5467   76.6151   62.0421 C.3       5 GLY6        0.0000 
     37 CA         42.1497   80.3619   59.1604 C.3       5 GLY6        0.0000 
     38 NZ         41.8400   79.3310   60.2051 N.2       4 LYS4        0.0000 
     39 N          41.5303   78.3001   61.2498 N.2       2 ALA2        0.0000 
     40 N          41.2206   77.2692   62.2944 N.2       2 ALA2        0.0000 
     41 OD1        40.8236   81.0160   59.4128 O.3       3 ASP3        0.0000 
     42 O          40.5139   79.9851   60.4574 O.2       2 ALA2        0.0000 
     43 OD1        39.4975   81.6700   59.6651 O.3       3 ASP3        0.0000 
     44 O          39.1878   80.6391   60.7097 O.2       2 ALA2        0.0000 
     45 N          45.1212   78.8943   60.7469 N.2       2 ALA2        0.0000 
     46 NZ         44.8115   77.8634   61.7916 N.2       4 LYS4        0.0000 
     47 NZ         44.4145   81.6102   58.9099 N.2       4 LYS4        0.0000 
     48 NZ         44.1048   80.5793   59.9545 N.2       4 LYS4        0.0000 
     49 NZ         43.7951   79.5484   60.9992 N.2       4 LYS4        0.0000 
     50 NZ         43.4854   78.5175   62.0439 N.2       4 LYS4        0.0000 
     51 CA         43.1757   77.4866   63.0886 C.3       5 GLY6        0.0000 
     52 OD1        42.7787   81.2334   60.2069 O.3       3 ASP3        0.0000 
     53 DU         42.4690   80.2025   61.2515 H         6 CUB7        0.0000 
     54 N          42.1593   79.1716   62.2962 N.2       2 ALA2        0.0000 
     55 N          41.8496   78.1407   63.3409 N.2       2 ALA2        0.0000 
     56 OD1        41.4526   81.8874   60.4592 O.3       3 ASP3        0.0000 
     57 N          41.1429   80.8565   61.5038 N.2       2 ALA2        0.0000 
     58 N          40.8332   79.8256   62.5485 N.2       2 ALA2        0.0000 
     59 N          40.5235   78.7947   63.5932 N.2       2 ALA2        0.0000 
     60 OD1        40.1265   82.5415   60.7115 O.3       3 ASP3        0.0000 
     61 N          39.8168   81.5106   61.7562 N.2       2 ALA2        0.0000 
     62 CA         39.5071   80.4797   62.8008 C.3       5 GLY6        0.0000 
     63 O          48.3341   80.8546   63.6338 O.2       2 ALA2        0.0000 
     64 CA         47.6274   83.5705   61.7968 C.3       5 GLY6        0.0000 
     65 CA         47.3177   82.5396   62.8415 C.3       5 GLY6        0.0000 
     66 O          47.0080   81.5087   63.8862 O.2       2 ALA2        0.0000 
     67 CA         45.9916   83.1937   63.0938 C.3       5 GLY6        0.0000 
     68 N          46.9984   82.6991   60.7504 N.2       2 ALA2        0.0000 
     69 N          46.6887   81.6682   61.7951 N.2       2 ALA2        0.0000 
     70 N          46.3790   80.6373   62.8397 N.2       2 ALA2        0.0000 
     71 CA         45.6723   83.3531   61.0027 C.3       5 GLY6        0.0000 
     72 CA         45.3626   82.3222   62.0474 C.3       5 GLY6        0.0000 
     73 OG         45.0529   81.2913   63.0921 O.2       1 SER1        0.0000 
     74 OG         44.7432   80.2604   64.1367 O.2       1 SER1        0.0000 
     75 CA         44.3462   84.0072   61.2550 C.3       5 GLY6        0.0000 
     76 CA         44.0365   82.9763   62.2997 C.3       5 GLY6        0.0000 
     77 OG         43.7268   81.9454   63.3444 O.2       1 SER1        0.0000 
     78 OG         43.4171   80.9145   64.3890 O.2       1 SER1        0.0000 
     79 OG         43.1074   79.8836   65.4337 O.2       1 SER1        0.0000 
     80 CA         42.7104   83.6304   62.5520 C.3       5 GLY6        0.0000 
     81 OG         42.4007   82.5995   63.5967 O.2       1 SER1        0.0000 
     82 OG         42.0910   81.5686   64.6414 O.2       1 SER1        0.0000 
     83 OG         41.7813   80.5377   65.6860 O.2       1 SER1        0.0000 
     84 DU         41.3843   84.2844   62.8043 H         6 CUB7        0.0000 
     85 DU         41.0746   83.2535   63.8490 H         6 CUB7        0.0000 
     86 N          40.7649   82.2226   64.8937 N.2       2 ALA2        0.0000 
     87 DU         39.7485   83.9076   64.1013 H         6 CUB7        0.0000 
     88 OD1        39.4389   82.8767   65.1460 O.3       3 ASP3        0.0000 
     89 OD1        38.1128   83.5308   65.3983 O.3       3 ASP3        0.0000 
@<TRIPOS>BOND
@<TRIPOS>SUBSTRUCTURE
     1 SER1        1 GROUP   
     2 ALA2        2 GROUP   
     3 ASP3       14 GROUP   
     4 LYS4       34 GROUP   
     5 GLY6       19 GROUP   
     6 CUB7        3 GROUP   
@<TRIPOS>SET

