#    Name: 1p4a_PCP_1_INTS_M
#    Modification time : Mon Mar 24 21:07:34 2014

@<TRIPOS>MOLECULE
1p4a_PCP_1_INTS_M
   75     0    12     0     0
SMALL
NO_CHARGES


@<TRIPOS>ATOM
      1 CA         44.6125   77.8100   63.4585 C.3       4 GLC5        0.0000 
      2 CA         44.7580   79.1680   61.6750 C.3      12 GLL5        0.0000 
      3 CA         44.4670   76.4520   65.2420 C.3       8 GLP5        0.0000 
      4 CA         45.3825   83.6080   62.7405 C.3       4 GLC5        0.0000 
      5 CA         45.3360   81.5140   62.1830 C.3      12 GLL5        0.0000 
      6 CA         45.4290   85.7020   63.2980 C.3       8 GLP5        0.0000 
      7 CA         48.1010   82.3025   64.6650 C.3       4 GLC5        0.0000 
      8 CA         47.5820   80.8690   63.0300 C.3      12 GLL5        0.0000 
      9 CA         48.6200   83.7360   66.3000 C.3       8 GLP5        0.0000 
     10 CA         48.9485   79.6895   61.8450 C.3       4 GLC5        0.0000 
     11 CA         50.3150   78.5100   60.6600 C.3       8 GLP5        0.0000 
     12 CA         49.0515   81.8430   62.9700 C.3       4 GLC5        0.0000 
     13 CA         50.5210   82.8170   62.9100 C.3       8 GLP5        0.0000 
     14 N          46.2225   77.3105   60.7660 N.am      2 SEC2        0.0000 
     15 N          45.3000   78.4760   60.5630 N.am     10 SEL2        0.0000 
     16 N          47.1450   76.1450   60.9690 N.am      6 SEP2        0.0000 
     17 O          46.5595   78.9400   60.2870 O.2       1 ALC1        0.0000 
     18 O          45.3000   78.4760   60.5630 O.2       9 ALL1        0.0000 
     19 O          47.8190   79.4040   60.0110 O.2       5 ALP1        0.0000 
     20 N          47.0245   77.2895   61.7405 N.am      2 SEC2        0.0000 
     21 N          46.9040   78.4340   62.5120 N.am     10 SEL2        0.0000 
     22 N          47.8520   82.0145   65.5630 N.am      2 SEC2        0.0000 
     23 N          48.1220   81.1720   64.3130 N.am     10 SEL2        0.0000 
     24 N          47.5820   82.8570   66.8130 N.am      6 SEP2        0.0000 
     25 N          47.5800   81.1930   66.4290 N.am      2 SEC2        0.0000 
     26 N          47.5780   79.5290   66.0450 N.am     10 SEL2        0.0000 
     27 N          47.4975   78.3885   66.7795 N.am      2 SEC2        0.0000 
     28 N          47.4170   77.2480   67.5140 N.am      6 SEP2        0.0000 
     29 N          46.4710   79.0125   65.9640 N.am      2 SEC2        0.0000 
     30 N          45.3640   78.4960   65.8830 N.am      6 SEP2        0.0000 
     31 N          49.9935   79.7810   63.1005 N.am      2 SEC2        0.0000 
     32 N          49.3110   79.0140   64.2630 N.am     10 SEL2        0.0000 
     33 N          50.6760   80.5480   61.9380 N.am      6 SEP2        0.0000 
     34 N          50.5290   78.8795   65.1030 N.am      2 SEC2        0.0000 
     35 N          51.7470   78.7450   65.9430 N.am      6 SEP2        0.0000 
     36 N          50.8905   80.9370   65.3955 N.am      2 SEC2        0.0000 
     37 N          49.7940   80.7290   66.0620 N.am     10 SEL2        0.0000 
     38 N          51.9870   81.1450   64.7290 N.am      6 SEP2        0.0000 
     39 N          50.7705   79.7370   66.0025 N.am      2 SEC2        0.0000 
     40 N          49.9425   79.3770   67.0525 N.am      2 SEC2        0.0000 
     41 N          50.0910   78.0250   68.0430 N.am      6 SEP2        0.0000 
     42 NZ         42.1265   81.6945   58.4675 N.4       3 LYC4        0.0000 
     43 NZ         42.7370   80.1520   59.1210 N.4      11 LYL4        0.0000 
     44 NZ         41.5160   83.2370   57.8140 N.4       7 LYP4        0.0000 
     45 N          43.6255   79.2635   58.4165 N.am      2 SEC2        0.0000 
     46 N          42.7370   80.1520   59.1210 N.am     10 SEL2        0.0000 
     47 N          44.5140   78.3750   57.7120 N.am      6 SEP2        0.0000 
     48 N          39.5670   78.8750   60.5345 N.am      2 SEC2        0.0000 
     49 N          41.1290   79.4040   61.0430 N.am     10 SEL2        0.0000 
     50 N          38.0050   78.3460   60.0260 N.am      6 SEP2        0.0000 
     51 N          41.3505   82.5250   59.0275 N.am      2 SEC2        0.0000 
     52 N          41.1850   81.8130   60.2410 N.am     10 SEL2        0.0000 
     53 N          41.5160   83.2370   57.8140 N.am      6 SEP2        0.0000 
     54 N          38.4885   79.8725   60.6325 N.am      2 SEC2        0.0000 
     55 N          38.9720   81.3990   61.2390 N.am     10 SEL2        0.0000 
     56 N          37.5960   82.1680   60.7770 N.am      2 SEC2        0.0000 
     57 N          36.2200   82.9370   60.3150 N.am      6 SEP2        0.0000 
     58 NZ         40.4890   82.0080   58.3230 N.4       3 LYC4        0.0000 
     59 NZ         39.4620   80.7790   58.8320 N.4      11 LYL4        0.0000 
     60 N          38.7335   79.5625   59.4290 N.am      2 SEC2        0.0000 
     61 N          39.4620   80.7790   58.8320 N.am     10 SEL2        0.0000 
     62 N          39.0335   79.8445   58.0355 N.am      2 SEC2        0.0000 
     63 N          38.6050   78.9100   57.2390 N.am      6 SEP2        0.0000 
     64 NZ         40.4300   83.2280   58.6565 N.4       3 LYC4        0.0000 
     65 NZ         39.3440   83.2190   59.4990 N.4      11 LYL4        0.0000 
     66 NZ         37.7820   83.0780   59.9070 N.4       3 LYC4        0.0000 
     67 NZ         35.9800   83.3690   59.0850 N.4       7 LYP4        0.0000 
     68 N          40.4300   83.2280   58.6565 N.am      2 SEC2        0.0000 
     69 N          39.3440   83.2190   59.4990 N.am     10 SEL2        0.0000 
     70 N          38.1330   83.6270   58.9620 N.am      2 SEC2        0.0000 
     71 N          36.9220   84.0350   58.4250 N.am      6 SEP2        0.0000 
     72 N          37.7820   83.0780   59.9070 N.am      2 SEC2        0.0000 
     73 CA         45.8303   78.5093   64.3443 C.3       4 GLC5        0.0000 
     74 CA         46.0880   80.6170   63.1550 C.3      12 GLL5        0.0000 
     75 CA         45.7490   77.1250   65.6910 C.3       8 GLP5        0.0000 
@<TRIPOS>BOND
@<TRIPOS>SUBSTRUCTURE
     1 ALC1       17 GROUP        1 X    ALC  0     ROOT ALC X 1
     2 SEC2       14 GROUP        1 X    SEC  0     **** SEC X 2
     3 LYC4       42 GROUP        1 X    LYC  0     **** LYC X 4
     4 GLC5        1 GROUP        1 X    GLC  0     **** GLC X 6
     5 ALP1       19 GROUP        1 Y    ALP  0     ROOT ALP Y 8
     6 SEP2       16 GROUP        1 Y    SEP  0     **** SEP Y 9
     7 LYP4       44 GROUP        1 Y    LYP  0     **** LYP Y 11
     8 GLP5        3 GROUP        1 Y    GLP  0     **** GLP Y 13
     9 ALL1       18 GROUP        1 Z    ALL  0     ROOT ALL Z 15
    10 SEL2       15 GROUP        1 Z    SEL  0     **** SEL Z 16
    11 LYL4       43 GROUP        1 Z    LYL  0     **** LYL Z 18
    12 GLL5        2 GROUP        1 Z    GLL  0     **** GLL Z 20
@<TRIPOS>SET

