#    Name: 1p4a_PCP_1_ligand
#    Modification time : Mon Mar 24 21:07:34 2014

@<TRIPOS>MOLECULE
1p4a_PCP_1_ligand
   32    32     1     0     0
SMALL
NO_CHARGES


@<TRIPOS>ATOM
      1 C1         44.4920   80.6150   61.2930 C.3       1 PCP604      0.0000 
      2 C2         44.7580   79.1680   61.6750 C.3       1 PCP604      0.0000 
      3 C3         45.7350   79.1700   62.8400 C.3       1 PCP604      0.0000 
      4 C4         46.0880   80.6170   63.1550 C.3       1 PCP604      0.0000 
      5 C5         45.3360   81.5140   62.1830 C.3       1 PCP604      0.0000 
      6 CP         47.5820   80.8690   63.0300 C.3       1 PCP604      0.0000 
      7 O1         43.1170   80.8970   61.5070 O.3       1 PCP604      0.0000 
      8 O2         45.3000   78.4760   60.5630 O.3       1 PCP604      0.0000 
      9 O3         46.9040   78.4340   62.5120 O.3       1 PCP604      0.0000 
     10 OP         48.1220   81.1720   64.3130 O.3       1 PCP604      0.0000 
     11 P          48.7510   80.0180   65.2390 P.3       1 PCP604      0.0000 
     12 O1P        47.5780   79.5290   66.0450 O.co2     1 PCP604      0.0000 
     13 O2P        49.3110   79.0140   64.2630 O.co2     1 PCP604      0.0000 
     14 O3P        49.7940   80.7290   66.0620 O.co2     1 PCP604      0.0000 
     15 PA         42.0220   80.4500   60.4180 P.3       1 PCP604      0.0000 
     16 O1A        42.7370   80.1520   59.1210 O.co2     1 PCP604      0.0000 
     17 O2A        41.1290   79.4040   61.0430 O.co2     1 PCP604      0.0000 
     18 O3A        41.1850   81.8130   60.2410 O.3       1 PCP604      0.0000 
     19 PB         39.6090   81.7990   59.9310 P.3       1 PCP604      0.0000 
     20 O1B        38.9720   81.3990   61.2390 O.co2     1 PCP604      0.0000 
     21 O2B        39.4620   80.7790   58.8320 O.co2     1 PCP604      0.0000 
     22 O3B        39.3440   83.2190   59.4990 O.co2     1 PCP604      0.0000 
     23 H          44.7827   80.7610   60.2791 H         1 PCP604      0.0000 
     24 H          43.8328   78.7378   62.0108 H         1 PCP604      0.0000 
     25 H          45.2280   78.7586   63.6995 H         1 PCP604      0.0000 
     26 H          45.7667   80.8481   64.1524 H         1 PCP604      0.0000 
     27 H          44.6964   82.1841   62.7308 H         1 PCP604      0.0000 
     28 H          46.0387   82.0628   61.5804 H         1 PCP604      0.0000 
     29 H          47.7267   81.6941   62.3228 H         1 PCP604      0.0000 
     30 H          48.0402   79.9718   62.5976 H         1 PCP604      0.0000 
     31 H          45.8854   79.1437   60.1030 H         1 PCP604      0.0000 
     32 H          47.5279   78.5840   63.2790 H         1 PCP604      0.0000 
@<TRIPOS>BOND
     1    2    1 1    
     2    5    1 1    
     3    7    1 1    
     4   23    1 1    
     5    3    2 1    
     6    8    2 1    
     7   24    2 1    
     8    4    3 1    
     9    9    3 1    
    10   25    3 1    
    11    5    4 1    
    12    6    4 1    
    13   26    4 1    
    14   27    5 1    
    15   28    5 1    
    16   10    6 1    
    17   29    6 1    
    18   30    6 1    
    19   15    7 1    
    20   31    8 1    
    21   32    9 1    
    22   11   10 1    
    23   12   11 ar   
    24   13   11 ar   
    25   14   11 ar   
    26   16   15 ar   
    27   17   15 ar   
    28   18   15 1    
    29   19   18 1    
    30   20   19 ar   
    31   21   19 ar   
    32   22   19 ar   
@<TRIPOS>SUBSTRUCTURE
     1 PCP604      1 GROUP   
@<TRIPOS>SET

