#    Name: 3o9a_K14_1_INTS_M
#    Modification time : Tue Mar 25 03:23:59 2014

@<TRIPOS>MOLECULE
3o9a_K14_1_INTS_M
  106     0     9     0     0
SMALL
NO_CHARGES


@<TRIPOS>ATOM
      1 CA         15.7830   36.3155   20.6910 C.3       3 GLC5        0.0000 
      2 CA         15.2640   36.8980   18.8620 C.3       9 GLL5        0.0000 
      3 CA         16.3020   35.7330   22.5200 C.3       6 GLP5        0.0000 
      4 CA         13.6835   36.0995   19.6625 C.3       3 GLC5        0.0000 
      5 CA         12.1030   35.3010   20.4630 C.3       6 GLP5        0.0000 
      6 CA         14.2200   37.7610   17.3320 C.3       3 GLC5        0.0000 
      7 CA         13.1760   38.6240   15.8020 C.3       6 GLP5        0.0000 
      8 N          14.4355   34.7900   19.9795 N.am      2 SEC2        0.0000 
      9 N          14.9130   35.5430   18.5380 N.am      8 SEL2        0.0000 
     10 N          13.9580   34.0370   21.4210 N.am      5 SEP2        0.0000 
     11 CA         16.3855   33.1300   18.9115 C.3       3 GLC5        0.0000 
     12 CA         15.6430   34.7940   17.6380 C.3       9 GLL5        0.0000 
     13 CA         17.1280   31.4660   20.1850 C.3       6 GLP5        0.0000 
     14 CA         14.3175   35.2925   16.0150 C.3       3 GLC5        0.0000 
     15 CA         12.9920   35.7910   14.3920 C.3       6 GLP5        0.0000 
     16 CA         15.4075   36.7260   15.8145 C.3       3 GLC5        0.0000 
     17 CA         16.6690   35.3650   16.8740 C.3       9 GLL5        0.0000 
     18 CA         14.1460   38.0870   14.7550 C.3       6 GLP5        0.0000 
     19 CA         15.8690   32.9715   14.0505 C.3       3 GLC5        0.0000 
     20 CA         17.1500   33.2230   15.8090 C.3       9 GLL5        0.0000 
     21 CA         14.5880   32.7200   12.2920 C.3       6 GLP5        0.0000 
     22 CA         15.3245   30.9180   15.5130 C.3       3 GLC5        0.0000 
     23 CA         16.1150   32.6610   16.5710 C.3       9 GLL5        0.0000 
     24 CA         14.5340   29.1750   14.4550 C.3       6 GLP5        0.0000 
     25 CA         23.0490   34.4210   14.4485 C.3       3 GLC5        0.0000 
     26 CA         22.2640   32.3920   15.0110 C.3       9 GLL5        0.0000 
     27 CA         23.8340   36.4500   13.8860 C.3       6 GLP5        0.0000 
     28 CA         23.9655   30.9905   14.9735 C.3       3 GLC5        0.0000 
     29 CA         25.6670   29.5890   14.9360 C.3       6 GLP5        0.0000 
     30 CA         21.3410   33.9240   13.6935 C.3       3 GLC5        0.0000 
     31 CA         20.4180   35.4560   12.3760 C.3       6 GLP5        0.0000 
     32 CA         22.9075   32.8370   19.0615 C.3       3 GLC5        0.0000 
     33 CA         22.2460   33.5250   17.2850 C.3       9 GLL5        0.0000 
     34 CA         23.5690   32.1490   20.8380 C.3       6 GLP5        0.0000 
     35 CA         24.0630   32.3420   17.3680 C.3       3 GLC5        0.0000 
     36 CA         25.8800   31.1590   17.4510 C.3       6 GLP5        0.0000 
     37 CA         17.5650   30.5925   17.8940 C.3       3 GLC5        0.0000 
     38 CA         19.0910   30.5110   16.2930 C.3       9 GLL5        0.0000 
     39 CA         16.0390   30.6740   19.4950 C.3       6 GLP5        0.0000 
     40 CA         22.9850   35.6960   15.3355 C.3       3 GLC5        0.0000 
     41 CA         22.1360   34.9420   16.7850 C.3       9 GLL5        0.0000 
     42 N          19.3660   27.7575   17.8920 N.am      2 SEC2        0.0000 
     43 N          19.8840   28.2340   16.6120 N.am      8 SEL2        0.0000 
     44 N          18.8480   27.2810   19.1720 N.am      5 SEP2        0.0000 
     45 O          20.7640   27.8935   17.5335 O.2       1 ALC1        0.0000 
     46 O          19.8840   28.2340   16.6120 O.2       7 ALL1        0.0000 
     47 O          21.6440   27.5530   18.4550 O.2       4 ALP1        0.0000 
     48 O          21.4430   28.6125   17.0530 O.2       1 ALC1        0.0000 
     49 O          23.0020   28.9910   17.4940 O.2       4 ALP1        0.0000 
     50 O          20.3720   26.5905   14.2915 O.2       1 ALC1        0.0000 
     51 O          20.6230   28.1000   13.8510 O.2       7 ALL1        0.0000 
     52 O          20.1210   25.0810   14.7320 O.2       4 ALP1        0.0000 
     53 CA         26.2090   25.5475   11.7410 C.3       3 GLC5        0.0000 
     54 CA         24.6090   26.9590   11.9810 C.3       9 GLL5        0.0000 
     55 CA         27.8090   24.1360   11.5010 C.3       6 GLP5        0.0000 
     56 CA         26.4385   27.7695   12.0030 C.3       3 GLC5        0.0000 
     57 CA         28.2680   28.5800   12.0250 C.3       6 GLP5        0.0000 
     58 CA         25.7940   27.7915   10.2855 C.3       3 GLC5        0.0000 
     59 CA         26.9790   28.6240    8.5900 C.3       6 GLP5        0.0000 
     60 CA         25.1380   28.2740   13.4585 C.3       3 GLC5        0.0000 
     61 N          25.2995   24.4215   12.4745 N.am      2 SEC2        0.0000 
     62 N          24.4480   25.5390   11.8700 N.am      8 SEL2        0.0000 
     63 N          26.1510   23.3040   13.0790 N.am      5 SEP2        0.0000 
     64 CA         23.2275   25.1615   12.9730 C.3       3 GLC5        0.0000 
     65 CA         23.5370   25.2630   10.8020 C.3       9 GLL5        0.0000 
     66 CA         22.9180   25.0600   15.1440 C.3       6 GLP5        0.0000 
     67 CA         23.7270   23.3900   11.3465 C.3       3 GLC5        0.0000 
     68 CA         23.9170   21.5170   11.8910 C.3       6 GLP5        0.0000 
     69 CA         25.6730   24.6995   11.1515 C.3       3 GLC5        0.0000 
     70 N          23.0140   23.7655   12.4605 N.am      2 SEC2        0.0000 
     71 N          22.5090   24.3610   11.2120 N.am      8 SEL2        0.0000 
     72 N          23.5190   23.1700   13.7090 N.am      5 SEP2        0.0000 
     73 CA         22.0700   25.0310   13.1700 C.3       3 GLC5        0.0000 
     74 CA         21.2220   25.0020   11.1960 C.3       9 GLL5        0.0000 
     75 CA         22.5695   23.2595   11.5435 C.3       3 GLC5        0.0000 
     76 CA         17.1865   25.2220   13.6075 C.3       3 GLC5        0.0000 
     77 CA         18.1390   26.4190   12.3770 C.3       9 GLL5        0.0000 
     78 CA         16.2340   24.0250   14.8380 C.3       6 GLP5        0.0000 
     79 CA         18.9330   29.3550    9.5700 C.3       3 GLC5        0.0000 
     80 CA         17.4440   28.3460   10.5230 C.3       9 GLL5        0.0000 
     81 CA         20.4220   30.3640    8.6170 C.3       6 GLP5        0.0000 
     82 CA         17.3000   30.2190    9.9615 C.3       3 GLC5        0.0000 
     83 CA         17.1560   32.0920    9.4000 C.3       6 GLP5        0.0000 
     84 CA         17.1455   30.6605   11.3140 C.3       3 GLC5        0.0000 
     85 CA         17.6280   28.6950   11.8560 C.3       9 GLL5        0.0000 
     86 CA         16.6630   32.6260   10.7720 C.3       6 GLP5        0.0000 
     87 CA         15.8927   31.8603   18.2620 C.3       3 GLC5        0.0000 
     88 CA         15.3780   33.4320   17.4870 C.3       9 GLL5        0.0000 
     89 CA         13.8939   33.1270   16.5639 C.3       3 GLC5        0.0000 
     90 CA         11.9750   32.8670   16.0610 C.3       6 GLP5        0.0000 
     91 CA         23.9660   34.4763   17.7335 C.3       3 GLC5        0.0000 
     92 CA         25.7410   34.7190   18.4320 C.3       6 GLP5        0.0000 
     93 CA         23.9743   26.6515   13.6513 C.3       3 GLC5        0.0000 
     94 CA         23.2840   27.5150   11.5100 C.3       9 GLL5        0.0000 
     95 CA         24.0020   26.0660   15.5570 C.3       6 GLP5        0.0000 
     96 CA         24.4548   29.1300   11.5823 C.3       3 GLC5        0.0000 
     97 CA         24.9630   31.0230   11.4190 C.3       6 GLP5        0.0000 
     98 CA         16.2165   26.2298   11.7785 C.3       3 GLC5        0.0000 
     99 CA         14.3920   26.2160   11.8410 C.3       6 GLP5        0.0000 
    100 CA         16.1743   27.9697    9.0700 C.3       3 GLC5        0.0000 
    101 CA         17.5910   27.0290   10.1290 C.3       9 GLL5        0.0000 
    102 CA         14.8310   28.2520    7.8140 C.3       6 GLP5        0.0000 
    103 CA         15.9548   26.9518   11.0835 C.3       3 GLC5        0.0000 
    104 CA         16.0998   27.2165   12.0817 C.3       3 GLC5        0.0000 
    105 CA         16.2005   28.7439   13.5706 C.3       3 GLC5        0.0000 
    106 CA         17.9870   27.7390   12.7890 C.3       9 GLL5        0.0000 
@<TRIPOS>BOND
@<TRIPOS>SUBSTRUCTURE
     1 ALC1       45 GROUP        1 X    ALC  0     ROOT ALC X 1
     2 SEC2        8 GROUP        1 X    SEC  0     **** SEC X 2
     3 GLC5        1 GROUP        1 X    GLC  0     **** GLC X 6
     4 ALP1       47 GROUP        1 Y    ALP  0     ROOT ALP Y 8
     5 SEP2       10 GROUP        1 Y    SEP  0     **** SEP Y 9
     6 GLP5        3 GROUP        1 Y    GLP  0     **** GLP Y 13
     7 ALL1       46 GROUP        1 Z    ALL  0     ROOT ALL Z 15
     8 SEL2        9 GROUP        1 Z    SEL  0     **** SEL Z 16
     9 GLL5        2 GROUP        1 Z    GLL  0     **** GLL Z 20
@<TRIPOS>SET

