#    Name: 3o9a_K14_1_ligand
#    Modification time : Tue Mar 25 03:23:59 2014

@<TRIPOS>MOLECULE
3o9a_K14_1_ligand
   80    83     1     0     0
SMALL
NO_CHARGES


@<TRIPOS>ATOM
      1 C1         15.2640   36.8980   18.8620 C.3       1 K14200      0.0000 
      2 O1         14.9130   35.5430   18.5380 O.3       1 K14200      0.0000 
      3 C2         15.6430   34.7940   17.6380 C.ar      1 K14200      0.0000 
      4 C3         16.6690   35.3650   16.8740 C.ar      1 K14200      0.0000 
      5 C4         17.4010   34.5810   15.9790 C.ar      1 K14200      0.0000 
      6 C5         17.1500   33.2230   15.8090 C.ar      1 K14200      0.0000 
      7 C6         16.1150   32.6610   16.5710 C.ar      1 K14200      0.0000 
      8 C7         15.3780   33.4320   17.4870 C.ar      1 K14200      0.0000 
      9 S8         18.0510   32.3340   14.7750 S.o2      1 K14200      0.0000 
     10 O9         17.2730   31.2520   14.2660 O.2       1 K14200      0.0000 
     11 O10        18.5690   33.1480   13.6970 O.2       1 K14200      0.0000 
     12 N11        19.3640   31.7370   15.5100 N.pl3     1 K14200      0.0000 
     13 C12        20.0780   32.7780   16.2950 C.3       1 K14200      0.0000 
     14 C13        21.5800   32.4850   16.3810 C.3       1 K14200      0.0000 
     15 C14        22.2640   32.3920   15.0110 C.3       1 K14200      0.0000 
     16 C15        22.2460   33.5250   17.2850 C.3       1 K14200      0.0000 
     17 C16        19.0910   30.5110   16.2930 C.3       1 K14200      0.0000 
     18 C17        19.9380   29.3640   15.7330 C.3       1 K14200      0.0000 
     19 C18        22.1360   34.9420   16.7850 C.3       1 K14200      0.0000 
     20 O18        19.8840   28.2340   16.6120 O.3       1 K14200      0.0000 
     21 C19        19.5400   28.9130   14.3330 C.3       1 K14200      0.0000 
     22 N20        20.6230   28.1000   13.8510 N.am      1 K14200      0.0000 
     23 C21        21.4740   28.4390   12.8860 C.2       1 K14200      0.0000 
     24 O22        21.5030   29.4720   12.2360 O.2       1 K14200      0.0000 
     25 O23        22.4340   27.4000   12.6390 O.3       1 K14200      0.0000 
     26 C24        23.2840   27.5150   11.5100 C.3       1 K14200      0.0000 
     27 C25        24.6090   26.9590   11.9810 C.3       1 K14200      0.0000 
     28 O26        24.4480   25.5390   11.8700 O.3       1 K14200      0.0000 
     29 C27        23.5370   25.2630   10.8020 C.3       1 K14200      0.0000 
     30 O28        22.5090   24.3610   11.2120 O.3       1 K14200      0.0000 
     31 C29        21.2220   25.0020   11.1960 C.3       1 K14200      0.0000 
     32 C30        21.3860   26.2250   10.3070 C.3       1 K14200      0.0000 
     33 C31        22.8660   26.5640   10.4090 C.3       1 K14200      0.0000 
     34 C32        18.2250   28.1220   14.2440 C.3       1 K14200      0.0000 
     35 C33        18.1390   26.4190   12.3770 C.ar      1 K14200      0.0000 
     36 C34        17.9430   26.0680   11.0550 C.ar      1 K14200      0.0000 
     37 C35        17.5910   27.0290   10.1290 C.ar      1 K14200      0.0000 
     38 C36        17.4440   28.3460   10.5230 C.ar      1 K14200      0.0000 
     39 C37        17.6280   28.6950   11.8560 C.ar      1 K14200      0.0000 
     40 C38        17.9870   27.7390   12.7890 C.ar      1 K14200      0.0000 
     41 H          16.8828   36.3651   16.9736 H         1 K14200      0.0000 
     42 H          18.1587   35.0297   15.4220 H         1 K14200      0.0000 
     43 H          15.8883   31.6589   16.4577 H         1 K14200      0.0000 
     44 H          14.6406   32.9858   18.0467 H         1 K14200      0.0000 
     45 H          19.6762   32.8275   17.3133 H         1 K14200      0.0000 
     46 H          19.9433   33.7617   15.8314 H         1 K14200      0.0000 
     47 H          21.6926   31.5066   16.8828 H         1 K14200      0.0000 
     48 H          23.3129   33.2576   17.3999 H         1 K14200      0.0000 
     49 H          21.7945   33.4545   18.2920 H         1 K14200      0.0000 
     50 H          18.0432   30.2350   16.2200 H         1 K14200      0.0000 
     51 H          19.3527   30.6567   17.3368 H         1 K14200      0.0000 
     52 H          20.9808   29.7218   15.6767 H         1 K14200      0.0000 
     53 H          19.4534   29.7989   13.7054 H         1 K14200      0.0000 
     54 H          20.7180   27.1502   14.3355 H         1 K14200      0.0000 
     55 H          23.4159   28.4687   11.1543 H         1 K14200      0.0000 
     56 H          24.7704   27.2668   12.9974 H         1 K14200      0.0000 
     57 H          25.3859   27.3268   11.3368 H         1 K14200      0.0000 
     58 H          24.0534   24.8936    9.9359 H         1 K14200      0.0000 
     59 H          20.9254   25.3319   12.1794 H         1 K14200      0.0000 
     60 H          20.4625   24.3672   10.7669 H         1 K14200      0.0000 
     61 H          20.8045   27.0294   10.6880 H         1 K14200      0.0000 
     62 H          21.1410   25.9772    9.3025 H         1 K14200      0.0000 
     63 H          23.2589   26.8598    9.4794 H         1 K14200      0.0000 
     64 H          17.4145   28.7414   14.5948 H         1 K14200      0.0000 
     65 H          18.3061   27.2309   14.8466 H         1 K14200      0.0000 
     66 H          18.4010   25.6973   13.0692 H         1 K14200      0.0000 
     67 H          18.0601   25.0859   10.7604 H         1 K14200      0.0000 
     68 H          17.4376   26.7660    9.1440 H         1 K14200      0.0000 
     69 H          17.1989   29.0692    9.8334 H         1 K14200      0.0000 
     70 H          17.4949   29.6767   12.1490 H         1 K14200      0.0000 
     71 H          16.1837   36.9609   19.2495 H         1 K14200      0.0000 
     72 H          15.2444   37.4896   18.0560 H         1 K14200      0.0000 
     73 H          14.6360   37.2943   19.5318 H         1 K14200      0.0000 
     74 H          23.2425   32.2045   15.0964 H         1 K14200      0.0000 
     75 H          21.8736   31.6622   14.4498 H         1 K14200      0.0000 
     76 H          22.1726   33.2418   14.4918 H         1 K14200      0.0000 
     77 H          22.5850   35.5891   17.4011 H         1 K14200      0.0000 
     78 H          22.5587   35.0523   15.8855 H         1 K14200      0.0000 
     79 H          21.1830   35.2324   16.6987 H         1 K14200      0.0000 
     80 H          20.7931   28.1842   17.0254 H         1 K14200      0.0000 
@<TRIPOS>BOND
     1    2    1 1    
     2   71    1 1    
     3   72    1 1    
     4   73    1 1    
     5    3    2 1    
     6    4    3 ar   
     7    8    3 ar   
     8    5    4 ar   
     9   41    4 1    
    10    6    5 ar   
    11   42    5 1    
    12    7    6 ar   
    13    9    6 1    
    14    8    7 ar   
    15   43    7 1    
    16   44    8 1    
    17   10    9 2    
    18   11    9 2    
    19   12    9 1    
    20   13   12 1    
    21   17   12 1    
    22   14   13 1    
    23   45   13 1    
    24   46   13 1    
    25   15   14 1    
    26   16   14 1    
    27   47   14 1    
    28   74   15 1    
    29   75   15 1    
    30   76   15 1    
    31   19   16 1    
    32   48   16 1    
    33   49   16 1    
    34   18   17 1    
    35   50   17 1    
    36   51   17 1    
    37   20   18 1    
    38   21   18 1    
    39   52   18 1    
    40   77   19 1    
    41   78   19 1    
    42   79   19 1    
    43   80   20 1    
    44   22   21 1    
    45   34   21 1    
    46   53   21 1    
    47   23   22 am   
    48   54   22 1    
    49   24   23 2    
    50   25   23 1    
    51   26   25 1    
    52   27   26 1    
    53   33   26 1    
    54   55   26 1    
    55   28   27 1    
    56   56   27 1    
    57   57   27 1    
    58   29   28 1    
    59   30   29 1    
    60   33   29 1    
    61   58   29 1    
    62   31   30 1    
    63   32   31 1    
    64   59   31 1    
    65   60   31 1    
    66   33   32 1    
    67   61   32 1    
    68   62   32 1    
    69   63   33 1    
    70   40   34 1    
    71   64   34 1    
    72   65   34 1    
    73   36   35 ar   
    74   40   35 ar   
    75   66   35 1    
    76   37   36 ar   
    77   67   36 1    
    78   38   37 ar   
    79   68   37 1    
    80   39   38 ar   
    81   69   38 1    
    82   40   39 ar   
    83   70   39 1    
@<TRIPOS>SUBSTRUCTURE
     1 K14200      1 GROUP   
@<TRIPOS>SET

