#    Name: 3pn1_IVH_1_INTS_M
#    Modification time : Tue Mar 25 08:11:47 2014

@<TRIPOS>MOLECULE
3pn1_IVH_1_INTS_M
   60     0     9     0     0
SMALL
NO_CHARGES


@<TRIPOS>ATOM
      1 CA        112.5965   90.9085   24.1430 C.3       3 GLC5        0.0000 
      2 CA        110.6990   91.2810   24.4730 C.3       9 GLL5        0.0000 
      3 CA        114.4940   90.5360   23.8130 C.3       6 GLP5        0.0000 
      4 CA        108.6245   96.9515   23.8005 C.3       3 GLC5        0.0000 
      5 CA        108.9230   94.9930   23.1840 C.3       9 GLL5        0.0000 
      6 CA        108.3260   98.9100   24.4170 C.3       6 GLP5        0.0000 
      7 N         111.0175   88.7820   24.0445 N.am      2 SEC2        0.0000 
      8 N         111.3870   89.0600   25.5020 N.am      8 SEL2        0.0000 
      9 N         110.6480   88.5040   22.5870 N.am      5 SEP2        0.0000 
     10 CA        107.8555   92.9630   25.1430 C.3       3 GLC5        0.0000 
     11 CA        109.2290   93.7130   23.9540 C.3       9 GLL5        0.0000 
     12 CA        106.4820   92.2130   26.3320 C.3       6 GLP5        0.0000 
     13 CA        108.8500   93.2805   26.2545 C.3       3 GLC5        0.0000 
     14 CA        110.3770   93.9700   24.9240 C.3       9 GLL5        0.0000 
     15 CA        107.3230   92.5910   27.5850 C.3       6 GLP5        0.0000 
     16 CA        113.0940   92.1965   24.8000 C.3       3 GLC5        0.0000 
     17 CA        111.3970   92.8480   24.9410 C.3       9 GLL5        0.0000 
     18 CA        114.7910   91.5450   24.6590 C.3       6 GLP5        0.0000 
     19 N         113.1955   87.1240   29.6955 N.am      2 SEC2        0.0000 
     20 N         112.6920   88.1790   28.7150 N.am      8 SEL2        0.0000 
     21 N         113.6990   86.0690   30.6760 N.am      5 SEP2        0.0000 
     22 O         115.4215   92.1730   29.8740 O.2       1 ALC1        0.0000 
     23 O         114.4470   93.1240   30.0100 O.2       7 ALL1        0.0000 
     24 O         116.3960   91.2220   29.7380 O.2       4 ALP1        0.0000 
     25 O         115.4170   91.9980   30.9275 O.2       1 ALC1        0.0000 
     26 O         116.3870   90.8720   31.8450 O.2       4 ALP1        0.0000 
     27 CA        110.0465   89.0955   26.8925 C.3       3 GLC5        0.0000 
     28 CA        111.2840   90.3780   25.7460 C.3       9 GLL5        0.0000 
     29 CA        108.8090   87.8130   28.0390 C.3       6 GLP5        0.0000 
     30 O         111.8320   86.3640   24.8560 O.2       1 ALC1        0.0000 
     31 O         111.8640   86.8950   26.0870 O.2       7 ALL1        0.0000 
     32 O         111.8000   85.8330   23.6250 O.2       4 ALP1        0.0000 
     33 O         111.9315   85.6600   27.1025 O.2       1 ALC1        0.0000 
     34 O         111.9990   84.4250   28.1180 O.2       4 ALP1        0.0000 
     35 CA        113.0835   88.1725   24.8430 C.3       3 GLC5        0.0000 
     36 CA        111.8310   88.2360   26.4070 C.3       9 GLL5        0.0000 
     37 CA        114.3360   88.1090   23.2790 C.3       6 GLP5        0.0000 
     38 CA        110.4650   88.2285   24.6725 C.3       3 GLC5        0.0000 
     39 CA        109.0990   88.2210   22.9380 C.3       6 GLP5        0.0000 
     40 CA        111.7705   87.2450   29.0680 C.3       3 GLC5        0.0000 
     41 CA        112.2180   88.7690   27.6080 C.3       9 GLL5        0.0000 
     42 CA        111.3230   85.7210   30.5280 C.3       6 GLP5        0.0000 
     43 CA        110.1365   90.7630   27.9755 C.3       3 GLC5        0.0000 
     44 CA        112.1230   90.1540   27.8490 C.3       9 GLL5        0.0000 
     45 CA        108.1500   91.3720   28.1020 C.3       6 GLP5        0.0000 
     46 CA        115.0760   93.9380   28.9800 C.3       3 GLC5        0.0000 
     47 CA        113.4320   92.6970   29.1340 C.3       9 GLL5        0.0000 
     48 CA        116.7200   95.1790   28.8260 C.3       6 GLP5        0.0000 
     49 CA        114.3220   91.9740   27.5370 C.3       3 GLC5        0.0000 
     50 CA        115.2120   91.2510   25.9400 C.3       6 GLP5        0.0000 
     51 CA        109.1350   95.6235   29.1050 C.3       3 GLC5        0.0000 
     52 CA        110.0530   94.0250   29.8340 C.3       9 GLL5        0.0000 
     53 CA        108.2170   97.2220   28.3760 C.3       6 GLP5        0.0000 
     54 CA        109.5708   91.1008   26.6058 C.3       3 GLC5        0.0000 
     55 CA        110.0453   89.5252   24.0237 C.3       3 GLC5        0.0000 
     56 CA        107.1240   94.5365   23.4175 C.3       3 GLC5        0.0000 
     57 CA        105.1720   94.7200   23.2660 C.3       6 GLP5        0.0000 
     58 CA        110.4414   88.5706   27.7336 C.3       3 GLC5        0.0000 
     59 CA        109.4543   92.5828   29.0382 C.3       3 GLC5        0.0000 
     60 CA        111.4640   93.5620   30.1150 C.3       9 GLL5        0.0000 
@<TRIPOS>BOND
@<TRIPOS>SUBSTRUCTURE
     1 ALC1       22 GROUP        1 X    ALC  0     ROOT ALC X 1
     2 SEC2        7 GROUP        1 X    SEC  0     **** SEC X 2
     3 GLC5        1 GROUP        1 X    GLC  0     **** GLC X 6
     4 ALP1       24 GROUP        1 Y    ALP  0     ROOT ALP Y 8
     5 SEP2        9 GROUP        1 Y    SEP  0     **** SEP Y 9
     6 GLP5        3 GROUP        1 Y    GLP  0     **** GLP Y 13
     7 ALL1       23 GROUP        1 Z    ALL  0     ROOT ALL Z 15
     8 SEL2        8 GROUP        1 Z    SEL  0     **** SEL Z 16
     9 GLL5        2 GROUP        1 Z    GLL  0     **** GLL Z 20
@<TRIPOS>SET

