#    Name: 3pn1_IVH_1_ligand
#    Modification time : Tue Mar 25 08:11:47 2014

@<TRIPOS>MOLECULE
3pn1_IVH_1_ligand
   45    47     1     0     0
SMALL
NO_CHARGES


@<TRIPOS>ATOM
      1 S         110.6990   91.2810   24.4730 S.3       1 IVH319      0.0000 
      2 C1        108.9230   94.9930   23.1840 C.3       1 IVH319      0.0000 
      3 N1        111.3870   89.0600   25.5020 N.ar      1 IVH319      0.0000 
      4 O1        111.4120   92.1060   30.1480 O.3       1 IVH319      0.0000 
      5 C2        109.2290   93.7130   23.9540 C.3       1 IVH319      0.0000 
      6 N2        111.6530   90.9400   26.8820 N.ar      1 IVH319      0.0000 
      7 O2        109.3610   93.6200   31.0420 O.3       1 IVH319      0.0000 
      8 C3        110.3770   93.9700   24.9240 C.3       1 IVH319      0.0000 
      9 N3        112.5920   90.3600   29.0850 N.pl3     1 IVH319      0.0000 
     10 O3        112.9900   95.1110   29.1310 O.3       1 IVH319      0.0000 
     11 C4        111.3970   92.8480   24.9410 C.3       1 IVH319      0.0000 
     12 N4        112.6920   88.1790   28.7150 N.2       1 IVH319      0.0000 
     13 O4        114.4470   93.1240   30.0100 O.3       1 IVH319      0.0000 
     14 C5        111.2840   90.3780   25.7460 C.ar      1 IVH319      0.0000 
     15 N5        111.8640   86.8950   26.0870 N.pl3     1 IVH319      0.0000 
     16 C6        111.8310   88.2360   26.4070 C.ar      1 IVH319      0.0000 
     17 C7        112.2180   88.7690   27.6080 C.ar      1 IVH319      0.0000 
     18 C8        112.1230   90.1540   27.8490 C.ar      1 IVH319      0.0000 
     19 C9        112.9280   89.1550   29.5890 C.2       1 IVH319      0.0000 
     20 C10       112.7310   91.6050   29.8850 C.3       1 IVH319      0.0000 
     21 C11       113.4320   92.6970   29.1340 C.3       1 IVH319      0.0000 
     22 C12       112.4050   93.8380   29.0030 C.3       1 IVH319      0.0000 
     23 C13       111.4640   93.5620   30.1150 C.3       1 IVH319      0.0000 
     24 C14       110.0530   94.0250   29.8340 C.3       1 IVH319      0.0000 
     25 H         109.5130   92.9331   23.2582 H         1 IVH319      0.0000 
     26 H         108.3503   93.4073   24.5085 H         1 IVH319      0.0000 
     27 H         109.9667   94.1024   25.9351 H         1 IVH319      0.0000 
     28 H         110.8757   94.9092   24.6456 H         1 IVH319      0.0000 
     29 H         112.1896   92.9834   24.2253 H         1 IVH319      0.0000 
     30 H         111.7967   92.6519   25.9211 H         1 IVH319      0.0000 
     31 H         111.5319   86.6517   25.1757 H         1 IVH319      0.0000 
     32 H         112.2172   86.2824   26.7942 H         1 IVH319      0.0000 
     33 H         113.3019   89.0232   30.4947 H         1 IVH319      0.0000 
     34 H         113.2435   91.4115   30.7963 H         1 IVH319      0.0000 
     35 H         113.7441   92.3793   28.2193 H         1 IVH319      0.0000 
     36 H         111.8880   93.6887   28.0768 H         1 IVH319      0.0000 
     37 H         111.8170   93.9357   31.0210 H         1 IVH319      0.0000 
     38 H         110.0500   95.0824   29.7148 H         1 IVH319      0.0000 
     39 H         109.6819   93.5134   28.9780 H         1 IVH319      0.0000 
     40 H         109.7149   95.3112   22.6628 H         1 IVH319      0.0000 
     41 H         108.1755   94.8646   22.5322 H         1 IVH319      0.0000 
     42 H         108.6549   95.7385   23.7943 H         1 IVH319      0.0000 
     43 H         110.0554   93.1615   31.5966 H         1 IVH319      0.0000 
     44 H         113.9305   94.9355   29.4221 H         1 IVH319      0.0000 
     45 H         115.1576   92.4236   29.9435 H         1 IVH319      0.0000 
@<TRIPOS>BOND
     1   11    1 1    
     2   14    1 1    
     3    5    2 1    
     4   40    2 1    
     5   41    2 1    
     6   42    2 1    
     7   14    3 ar   
     8   16    3 ar   
     9   20    4 1    
    10   23    4 1    
    11    8    5 1    
    12   25    5 1    
    13   26    5 1    
    14   14    6 ar   
    15   18    6 ar   
    16   24    7 1    
    17   43    7 1    
    18   11    8 1    
    19   27    8 1    
    20   28    8 1    
    21   18    9 1    
    22   19    9 1    
    23   20    9 1    
    24   22   10 1    
    25   44   10 1    
    26   29   11 1    
    27   30   11 1    
    28   17   12 1    
    29   19   12 2    
    30   21   13 1    
    31   45   13 1    
    32   16   15 1    
    33   31   15 1    
    34   32   15 1    
    35   17   16 ar   
    36   18   17 ar   
    37   33   19 1    
    38   21   20 1    
    39   34   20 1    
    40   22   21 1    
    41   35   21 1    
    42   23   22 1    
    43   36   22 1    
    44   24   23 1    
    45   37   23 1    
    46   38   24 1    
    47   39   24 1    
@<TRIPOS>SUBSTRUCTURE
     1 IVH319      1 GROUP   
@<TRIPOS>SET

