#    Name: 4a32_2CD_1_INTS_M
#    Modification time : Tue Mar 25 04:54:06 2014

@<TRIPOS>MOLECULE
4a32_2CD_1_INTS_M
   54     0     6     0     0
SMALL
NO_CHARGES


@<TRIPOS>ATOM
      1 CA          4.3935    6.0200   19.1415 C.3       2 GLC5        0.0000 
      2 CA          2.7830    6.5380   17.8950 C.3       6 GLL5        0.0000 
      3 CA          6.0040    5.5020   20.3880 C.3       4 GLP5        0.0000 
      4 CA          2.9870    8.3060   17.6750 C.3       2 GLC5        0.0000 
      5 CA          3.1910   10.0740   17.4550 C.3       4 GLP5        0.0000 
      6 CA          2.1215    4.9610   19.2590 C.3       2 GLC5        0.0000 
      7 CA          1.4600    3.3840   20.6230 C.3       4 GLP5        0.0000 
      8 CA          2.3765    7.3990   19.3895 C.3       2 GLC5        0.0000 
      9 CA          1.9700    8.2600   20.8840 C.3       4 GLP5        0.0000 
     10 CA          6.8800    3.3770   14.7990 C.3       2 GLC5        0.0000 
     11 CA          5.1510    3.7270   14.3000 C.3       6 GLL5        0.0000 
     12 CA          8.6090    3.0270   15.2980 C.3       4 GLP5        0.0000 
     13 CA          3.1110    2.9105   14.3275 C.3       2 GLC5        0.0000 
     14 CA          1.0710    2.0940   14.3550 C.3       4 GLP5        0.0000 
     15 CA          5.5485    0.8415   16.4750 C.3       2 GLC5        0.0000 
     16 CA          3.8450    2.0640   16.6810 C.3       6 GLL5        0.0000 
     17 CA          7.2520   -0.3810   16.2690 C.3       4 GLP5        0.0000 
     18 CA          4.7210    3.0895   18.3105 C.3       2 GLC5        0.0000 
     19 CA          5.5970    4.1150   19.9400 C.3       4 GLP5        0.0000 
     20 CA          4.2445    0.8790   18.1835 C.3       2 GLC5        0.0000 
     21 CA          4.6440   -0.3060   19.6860 C.3       4 GLP5        0.0000 
     22 CA          2.4580    2.0790   15.5180 C.3       2 GLC5        0.0000 
     23 CA          0.7855    4.1330   13.9480 C.3       2 GLC5        0.0000 
     24 CA          0.5000    6.1720   13.5410 C.3       6 GLL5        0.0000 
     25 CA         -0.0545    6.4630   11.6150 C.3       2 GLC5        0.0000 
     26 CA         -0.6090    6.7540    9.6890 C.3       4 GLP5        0.0000 
     27 CA         -1.3045    5.8715   13.6425 C.3       2 GLC5        0.0000 
     28 CA         -3.1090    5.5710   13.7440 C.3       4 GLP5        0.0000 
     29 CA          0.3690    0.4590   12.6675 C.3       2 GLC5        0.0000 
     30 CA         -0.7930    0.1300   11.1910 C.3       6 GLL5        0.0000 
     31 CA          1.5310    0.7880   14.1440 C.3       4 GLP5        0.0000 
     32 CA         -0.1560    1.7680   12.9605 C.3       2 GLC5        0.0000 
     33 CA         -1.3830    1.4420   11.5660 C.3       6 GLL5        0.0000 
     34 CA         -4.1870   -0.5095    7.3035 C.3       2 GLC5        0.0000 
     35 CA         -2.7930   -0.9040    8.5560 C.3       6 GLL5        0.0000 
     36 CA         -5.5810   -0.1150    6.0510 C.3       4 GLP5        0.0000 
     37 N           2.1465    3.7415   18.3215 N.am      1 SEC2        0.0000 
     38 N           3.2750    4.1950   17.3720 N.am      5 SEL2        0.0000 
     39 N           1.0180    3.2880   19.2710 N.am      3 SEP2        0.0000 
     40 CA          6.4980    4.2810   15.8045 C.3       2 GLC5        0.0000 
     41 CA          4.4170    4.2450   15.4870 C.3       6 GLL5        0.0000 
     42 CA          8.5790    4.3170   16.1220 C.3       4 GLP5        0.0000 
     43 CA          4.1330    0.3943   11.2650 C.3       2 GLC5        0.0000 
     44 CA          3.6750    2.0750   10.0230 C.3       6 GLL5        0.0000 
     45 CA          4.7260   -0.6900   12.8290 C.3       4 GLP5        0.0000 
     46 CA          5.1448    6.4897   10.1596 C.3       2 GLC5        0.0000 
     47 CA          4.0590    4.7050   11.3580 C.3       6 GLL5        0.0000 
     48 CA          5.7490    7.5950    8.4970 C.3       4 GLP5        0.0000 
     49 CA          4.0050    1.1181    7.8210 C.3       2 GLC5        0.0000 
     50 CA          2.2160    0.5320    9.0910 C.3       6 GLL5        0.0000 
     51 CA          5.1320    1.2310    6.2460 C.3       4 GLP5        0.0000 
     52 CA          0.5524    1.5888    7.4785 C.3       2 GLC5        0.0000 
     53 CA         -0.1570    0.8850    9.0220 C.3       6 GLL5        0.0000 
     54 CA          0.2990    2.1390    5.7460 C.3       4 GLP5        0.0000 
@<TRIPOS>BOND
@<TRIPOS>SUBSTRUCTURE
     1 SEC2       37 GROUP        1 X    SEC  0     ROOT SEC X 2
     2 GLC5        1 GROUP        1 X    GLC  0     **** GLC X 6
     3 SEP2       39 GROUP        1 Y    SEP  0     ROOT SEP Y 9
     4 GLP5        3 GROUP        1 Y    GLP  0     **** GLP Y 13
     5 SEL2       38 GROUP        1 Z    SEL  0     ROOT SEL Z 16
     6 GLL5        2 GROUP        1 Z    GLL  0     **** GLL Z 20
@<TRIPOS>SET

