#    Name: 4a32_2CD_1_ligand
#    Modification time : Tue Mar 25 04:54:06 2014

@<TRIPOS>MOLECULE
4a32_2CD_1_ligand
   61    63     1     0     0
SMALL
NO_CHARGES


@<TRIPOS>ATOM
      1 CAA         2.7830    6.5380   17.8950 C.3       1 2CD1423     0.0000 
      2 CAB         5.1510    3.7270   14.3000 C.3       1 2CD1423     0.0000 
      3 CAC         3.8450    2.0640   16.6810 C.3       1 2CD1423     0.0000 
      4 OAD         4.2840    8.3610   13.9460 O.2       1 2CD1423     0.0000 
      5 OAE         2.2870    7.8240   14.7360 O.2       1 2CD1423     0.0000 
      6 CLF         5.8320    6.3890   12.3350 Cl        1 2CD1423     0.0000 
      7 CLG         0.5000    6.1720   13.5410 Cl        1 2CD1423     0.0000 
      8 CAH         3.4050    0.8820    9.3790 C.ar      1 2CD1423     0.0000 
      9 CAI         3.6750    2.0750   10.0230 C.ar      1 2CD1423     0.0000 
     10 CAJ         4.0590    4.7050   11.3580 C.ar      1 2CD1423     0.0000 
     11 CAK         1.8100    4.6180   11.8770 C.ar      1 2CD1423     0.0000 
     12 CAL         1.4090    2.4500   10.0280 C.ar      1 2CD1423     0.0000 
     13 CAN        -0.7930    0.1300   11.1910 C.3       1 2CD1423     0.0000 
     14 CAM        -2.3000    0.2100    9.4100 C.3       1 2CD1423     0.0000 
     15 CAP        -1.3830    1.4420   11.5660 C.3       1 2CD1423     0.0000 
     16 CAO        -2.7930   -0.9040    8.5560 C.3       1 2CD1423     0.0000 
     17 NAR         3.2750    4.1950   17.3720 N.2       1 2CD1423     0.0000 
     18 NAS        -0.9230   -0.0680    9.7800 N.4       1 2CD1423     0.0000 
     19 NAT         4.2730    6.6920   15.2710 N.pl3     1 2CD1423     0.0000 
     20 CAU         3.3570    5.4450   17.0620 C.2       1 2CD1423     0.0000 
     21 CAV         4.4170    4.2450   15.4870 C.2       1 2CD1423     0.0000 
     22 CAW         4.2120    5.7390   12.2380 C.ar      1 2CD1423     0.0000 
     23 CAX         1.9620    5.6480   12.7520 C.ar      1 2CD1423     0.0000 
     24 CAY         2.6440    2.9460   10.2950 C.ar      1 2CD1423     0.0000 
     25 CAZ         2.8450    4.1540   11.1220 C.ar      1 2CD1423     0.0000 
     26 CBA         1.2330    1.2550    9.3900 C.ar      1 2CD1423     0.0000 
     27 CBB         4.0520    5.5020   15.8960 C.2       1 2CD1423     0.0000 
     28 CBC         3.1730    6.2770   12.9630 C.ar      1 2CD1423     0.0000 
     29 C14         2.2160    0.5320    9.0910 C.ar      1 2CD1423     0.0000 
     30 NBE         3.8900    3.4980   16.4110 N.pl3     1 2CD1423     0.0000 
     31 C16        -0.1570    0.8850    9.0220 C.3       1 2CD1423     0.0000 
     32 SBF         3.4020    7.3790   14.1090 S.o2      1 2CD1423     0.0000 
     33 H           4.2433    0.2761    9.1390 H         1 2CD1423     0.0000 
     34 H           4.6387    2.3077   10.2956 H         1 2CD1423     0.0000 
     35 H           4.9022    4.3346   10.8580 H         1 2CD1423     0.0000 
     36 H           0.8658    4.1654   11.7794 H         1 2CD1423     0.0000 
     37 H           0.5610    2.9986   10.3192 H         1 2CD1423     0.0000 
     38 H          -1.3083   -0.6634   11.7506 H         1 2CD1423     0.0000 
     39 H           0.2628    0.1157   11.4965 H         1 2CD1423     0.0000 
     40 H          -2.9298    0.2885   10.2986 H         1 2CD1423     0.0000 
     41 H          -2.3682    1.1474    8.8540 H         1 2CD1423     0.0000 
     42 H          -0.6778   -1.0632    9.4909 H         1 2CD1423     0.0000 
     43 H           5.1032    7.3086   15.5214 H         1 2CD1423     0.0000 
     44 H           2.0566   -0.4044    8.5805 H         1 2CD1423     0.0000 
     45 H          -0.7595    1.8661    8.9362 H         1 2CD1423     0.0000 
     46 H          -0.1407    0.5567    7.9152 H         1 2CD1423     0.0000 
     47 H           3.1786    6.5519   18.8133 H         1 2CD1423     0.0000 
     48 H           2.9474    7.4380   17.4914 H         1 2CD1423     0.0000 
     49 H           1.7936    6.4418   18.0035 H         1 2CD1423     0.0000 
     50 H           6.0747    4.1055   14.2402 H         1 2CD1423     0.0000 
     51 H           5.2432    2.7316   14.3256 H         1 2CD1423     0.0000 
     52 H           4.6845    3.9562   13.4457 H         1 2CD1423     0.0000 
     53 H           4.3027    1.5367   15.9651 H         1 2CD1423     0.0000 
     54 H           4.2924    1.8346   17.5454 H         1 2CD1423     0.0000 
     55 H           2.9055    1.7262   16.7386 H         1 2CD1423     0.0000 
     56 H          -1.3113    1.6143   12.5484 H         1 2CD1423     0.0000 
     57 H          -0.9267    2.2008   11.1013 H         1 2CD1423     0.0000 
     58 H          -2.3532    1.4942   11.3293 H         1 2CD1423     0.0000 
     59 H          -2.2465   -1.0045    7.7246 H         1 2CD1423     0.0000 
     60 H          -2.7617   -1.7812    9.0351 H         1 2CD1423     0.0000 
     61 H          -3.7401   -0.7606    8.2687 H         1 2CD1423     0.0000 
@<TRIPOS>BOND
     1   20    1 1    
     2   47    1 1    
     3   48    1 1    
     4   49    1 1    
     5   21    2 1    
     6   50    2 1    
     7   51    2 1    
     8   52    2 1    
     9   30    3 1    
    10   53    3 1    
    11   54    3 1    
    12   55    3 1    
    13   32    4 2    
    14   32    5 2    
    15   22    6 1    
    16   23    7 1    
    17    9    8 ar   
    18   29    8 ar   
    19   33    8 1    
    20   24    9 ar   
    21   34    9 1    
    22   22   10 ar   
    23   25   10 ar   
    24   35   10 1    
    25   23   11 ar   
    26   25   11 ar   
    27   36   11 1    
    28   24   12 ar   
    29   26   12 ar   
    30   37   12 1    
    31   15   13 1    
    32   18   13 1    
    33   38   13 1    
    34   39   13 1    
    35   16   14 1    
    36   18   14 1    
    37   40   14 1    
    38   41   14 1    
    39   56   15 1    
    40   57   15 1    
    41   58   15 1    
    42   59   16 1    
    43   60   16 1    
    44   61   16 1    
    45   20   17 2    
    46   30   17 1    
    47   31   18 1    
    48   42   18 1    
    49   27   19 1    
    50   32   19 1    
    51   43   19 1    
    52   27   20 1    
    53   27   21 2    
    54   30   21 1    
    55   28   22 ar   
    56   28   23 ar   
    57   25   24 1    
    58   29   26 ar   
    59   31   26 1    
    60   32   28 1    
    61   44   29 1    
    62   45   31 1    
    63   46   31 1    
@<TRIPOS>SUBSTRUCTURE
     1 2CD1423     1 GROUP   
@<TRIPOS>SET

