#    Name: 2v0u_FMN_1_INTS_M
#    Modification time : Tue Mar 25 00:39:58 2014

@<TRIPOS>MOLECULE
2v0u_FMN_1_INTS_M
   76     0    12     0     0
SMALL
NO_CHARGES


@<TRIPOS>ATOM
      1 N          22.2245    0.6730    6.2620 N.am      2 SEC2        0.0000 
      2 N          20.6350    0.5840    5.8310 N.am     10 SEL2        0.0000 
      3 N          23.8140    0.7620    6.6930 N.am      6 SEP2        0.0000 
      4 N          22.9365   -0.1170    5.9055 N.am      2 SEC2        0.0000 
      5 N          22.0590   -0.9960    5.1180 N.am     10 SEL2        0.0000 
      6 N          22.3860   -2.3750    4.5830 N.am      2 SEC2        0.0000 
      7 N          22.7130   -3.7540    4.0480 N.am      6 SEP2        0.0000 
      8 O          20.1550   -2.7640    4.4925 O.2       1 ALC1        0.0000 
      9 O          19.8160   -1.4390    4.9220 O.2       9 ALL1        0.0000 
     10 O          20.4940   -4.0890    4.0630 O.2       5 ALP1        0.0000 
     11 N          18.0195   -2.6410    3.4220 N.am      2 SEC2        0.0000 
     12 N          17.5800   -1.8430    4.6820 N.am     10 SEL2        0.0000 
     13 N          18.4590   -3.4390    2.1620 N.am      6 SEP2        0.0000 
     14 N          16.1130   -1.9305    4.8130 N.am      2 SEC2        0.0000 
     15 N          14.6460   -2.0180    4.9440 N.am      6 SEP2        0.0000 
     16 CA         13.1695    5.7940    7.1750 C.3       4 GLC5        0.0000 
     17 CA         13.6920    4.0130    7.1040 C.3      12 GLL5        0.0000 
     18 CA         12.6470    7.5750    7.2460 C.3       8 GLP5        0.0000 
     19 CA         11.8375    4.2655    6.1635 C.3       4 GLC5        0.0000 
     20 CA          9.9830    4.5180    5.2230 C.3       8 GLP5        0.0000 
     21 CA         14.2840    6.6555    7.5755 C.3       4 GLC5        0.0000 
     22 CA         15.9210    5.7360    7.9050 C.3      12 GLL5        0.0000 
     23 CA         20.3095    4.2710    5.2090 C.3       4 GLC5        0.0000 
     24 CA         20.2520    3.1620    6.7080 C.3      12 GLL5        0.0000 
     25 CA         20.3670    5.3800    3.7100 C.3       8 GLP5        0.0000 
     26 CA         21.7830    1.6185    9.1770 C.3       4 GLC5        0.0000 
     27 CA         20.8530    3.2110    8.1180 C.3      12 GLL5        0.0000 
     28 CA         22.7130    0.0260   10.2360 C.3       8 GLP5        0.0000 
     29 O          20.4635    3.1350   10.3710 O.2       1 ALC1        0.0000 
     30 O          19.8520    3.1860    9.1170 O.2       9 ALL1        0.0000 
     31 O          21.0750    3.0840   11.6250 O.2       5 ALP1        0.0000 
     32 CA         20.3200    5.9940    7.3820 C.3       4 GLC5        0.0000 
     33 CA         21.7060    4.4810    8.2580 C.3      12 GLL5        0.0000 
     34 CA         18.9340    7.5070    6.5060 C.3       8 GLP5        0.0000 
     35 N          23.8120    2.0840    7.2570 N.am      2 SEC2        0.0000 
     36 N          23.8100    3.4060    7.8210 N.am     10 SEL2        0.0000 
     37 CA         24.1110    7.3375    6.4160 C.3       4 GLC5        0.0000 
     38 CA         23.7170    5.7840    7.3880 C.3      12 GLL5        0.0000 
     39 CA         24.5050    8.8910    5.4440 C.3       8 GLP5        0.0000 
     40 NZ         24.9680    4.0130   11.0735 N.4       3 LYC4        0.0000 
     41 NZ         25.3170    4.5290    9.7810 N.4      11 LYL4        0.0000 
     42 NZ         23.9200    4.1600   13.2860 N.4       7 LYP4        0.0000 
     43 N          24.9680    4.0130   11.0735 N.am      2 SEC2        0.0000 
     44 N          25.3170    4.5290    9.7810 N.am     10 SEL2        0.0000 
     45 N          24.6190    3.4970   12.3660 N.am      6 SEP2        0.0000 
     46 NZ         24.2900    6.0920   11.9660 N.4       3 LYC4        0.0000 
     47 NZ         25.0330    6.7720   10.8760 N.4      11 LYL4        0.0000 
     48 N          24.2900    6.0920   11.9660 N.am      2 SEC2        0.0000 
     49 N          25.0330    6.7720   10.8760 N.am     10 SEL2        0.0000 
     50 N          23.5470    5.4120   13.0560 N.am      6 SEP2        0.0000 
     51 CA         14.5143    1.0335    7.2673 C.3       4 GLC5        0.0000 
     52 CA         16.7150    1.8270    6.4040 C.3      12 GLL5        0.0000 
     53 CA         12.9710    0.0390    8.0410 C.3       8 GLP5        0.0000 
     54 CA         16.2218    1.2520    8.1008 C.3       4 GLC5        0.0000 
     55 CA         15.4000    2.2290    6.5830 C.3      12 GLL5        0.0000 
     56 CA         16.3860    0.4760    9.7080 C.3       8 GLP5        0.0000 
     57 CA         13.6852    1.8980    7.5700 C.3       4 GLC5        0.0000 
     58 CA         14.1087    3.7595    8.9410 C.3       4 GLC5        0.0000 
     59 CA         13.8180    3.7620   10.7830 C.3       8 GLP5        0.0000 
     60 CA         16.0143    2.1927    8.4870 C.3       4 GLC5        0.0000 
     61 CA         15.1070    3.5010    7.0940 C.3      12 GLL5        0.0000 
     62 CA         14.7122    5.0525    5.6705 C.3       4 GLC5        0.0000 
     63 CA         15.0250    6.3480    4.2420 C.3       8 GLP5        0.0000 
     64 CA         13.4949    2.7120    5.4681 C.3       4 GLC5        0.0000 
     65 CA         12.5170    1.9850    3.9650 C.3       8 GLP5        0.0000 
     66 CA         14.9337    4.3945    9.2272 C.3       4 GLC5        0.0000 
     67 CA         16.1780    4.3180    7.4380 C.3      12 GLL5        0.0000 
     68 CA         15.5373    5.6875    5.9567 C.3       4 GLC5        0.0000 
     69 CA         17.8855    1.7925    8.2153 C.3       4 GLC5        0.0000 
     70 CA         17.4970    3.9180    7.2670 C.3      12 GLL5        0.0000 
     71 CA         18.1270    0.3030    9.4260 C.3       8 GLP5        0.0000 
     72 CA         17.8536    5.9897    6.9876 C.3       4 GLC5        0.0000 
     73 CA         19.3398    1.7447    8.4195 C.3       4 GLC5        0.0000 
     74 CA         24.6270    4.3760    6.3065 C.3       4 GLC5        0.0000 
     75 CA         22.9590    4.4520    7.3920 C.3      12 GLL5        0.0000 
     76 CA         25.9160    3.6340    5.2230 C.3       8 GLP5        0.0000 
@<TRIPOS>BOND
@<TRIPOS>SUBSTRUCTURE
     1 ALC1        8 GROUP        1 X    ALC  0     ROOT ALC X 1
     2 SEC2        1 GROUP        1 X    SEC  0     **** SEC X 2
     3 LYC4       40 GROUP        1 X    LYC  0     **** LYC X 4
     4 GLC5       16 GROUP        1 X    GLC  0     **** GLC X 6
     5 ALP1       10 GROUP        1 Y    ALP  0     ROOT ALP Y 8
     6 SEP2        3 GROUP        1 Y    SEP  0     **** SEP Y 9
     7 LYP4       42 GROUP        1 Y    LYP  0     **** LYP Y 11
     8 GLP5       18 GROUP        1 Y    GLP  0     **** GLP Y 13
     9 ALL1        9 GROUP        1 Z    ALL  0     ROOT ALL Z 15
    10 SEL2        2 GROUP        1 Z    SEL  0     **** SEL Z 16
    11 LYL4       41 GROUP        1 Z    LYL  0     **** LYL Z 18
    12 GLL5       17 GROUP        1 Z    GLL  0     **** GLL Z 20
@<TRIPOS>SET

