#    Name: 2v0u_FMN_1_ligand
#    Modification time : Tue Mar 25 00:39:58 2014

@<TRIPOS>MOLECULE
2v0u_FMN_1_ligand
   50    52     1     0     0
SMALL
NO_CHARGES


@<TRIPOS>ATOM
      1 N1         20.6350    0.5840    5.8310 N.2       1 FMN1547     0.0000 
      2 C2         20.8850   -0.6480    5.2890 C.2       1 FMN1547     0.0000 
      3 O2         22.0590   -0.9960    5.1180 O.2       1 FMN1547     0.0000 
      4 N3         19.8160   -1.4390    4.9220 N.am      1 FMN1547     0.0000 
      5 C4         18.4980   -1.1080    5.1140 C.2       1 FMN1547     0.0000 
      6 O4         17.5800   -1.8430    4.6820 O.2       1 FMN1547     0.0000 
      7 C4A        18.2410    0.1590    5.6810 C.2       1 FMN1547     0.0000 
      8 N5         16.9470    0.5440    5.9120 N.2       1 FMN1547     0.0000 
      9 C5A        16.7150    1.8270    6.4040 C.ar      1 FMN1547     0.0000 
     10 C6         15.4000    2.2290    6.5830 C.ar      1 FMN1547     0.0000 
     11 C7         15.1070    3.5010    7.0940 C.ar      1 FMN1547     0.0000 
     12 C7M        13.6920    4.0130    7.1040 C.3       1 FMN1547     0.0000 
     13 C8         16.1780    4.3180    7.4380 C.ar      1 FMN1547     0.0000 
     14 C8M        15.9210    5.7360    7.9050 C.3       1 FMN1547     0.0000 
     15 C9         17.4970    3.9180    7.2670 C.ar      1 FMN1547     0.0000 
     16 C9A        17.7910    2.6460    6.7420 C.ar      1 FMN1547     0.0000 
     17 N10        19.1000    2.2230    6.5620 N.pl3     1 FMN1547     0.0000 
     18 C10        19.3360    0.9680    6.0160 C.2       1 FMN1547     0.0000 
     19 C1'        20.2520    3.1620    6.7080 C.3       1 FMN1547     0.0000 
     20 C2'        20.8530    3.2110    8.1180 C.3       1 FMN1547     0.0000 
     21 O2'        19.8520    3.1860    9.1170 O.3       1 FMN1547     0.0000 
     22 C3'        21.7060    4.4810    8.2580 C.3       1 FMN1547     0.0000 
     23 O3'        20.9210    5.6020    7.8900 O.3       1 FMN1547     0.0000 
     24 C4'        22.9590    4.4520    7.3920 C.3       1 FMN1547     0.0000 
     25 O4'        23.8100    3.4060    7.8210 O.3       1 FMN1547     0.0000 
     26 C5'        23.7170    5.7840    7.3880 C.3       1 FMN1547     0.0000 
     27 O5'        23.8650    6.2980    8.6990 O.3       1 FMN1547     0.0000 
     28 P          25.1800    6.0320    9.5690 P.3       1 FMN1547     0.0000 
     29 O1P        25.3170    4.5290    9.7810 O.co2     1 FMN1547     0.0000 
     30 O2P        25.0330    6.7720   10.8760 O.co2     1 FMN1547     0.0000 
     31 O3P        26.3780    6.5040    8.7870 O.co2     1 FMN1547     0.0000 
     32 H          20.0320   -2.3731    4.4564 H         1 FMN1547     0.0000 
     33 H          14.6266    1.5919    6.3402 H         1 FMN1547     0.0000 
     34 H          18.2679    4.5483    7.5227 H         1 FMN1547     0.0000 
     35 H          19.9371    4.1868    6.4309 H         1 FMN1547     0.0000 
     36 H          21.0555    2.8818    5.9995 H         1 FMN1547     0.0000 
     37 H          21.5313    2.3626    8.2124 H         1 FMN1547     0.0000 
     38 H          22.0146    4.5599    9.2976 H         1 FMN1547     0.0000 
     39 H          22.6329    4.2635    6.3552 H         1 FMN1547     0.0000 
     40 H          23.1591    6.4767    6.7338 H         1 FMN1547     0.0000 
     41 H          24.6924    5.6047    6.9026 H         1 FMN1547     0.0000 
     42 H          13.6325    4.9324    7.4928 H         1 FMN1547     0.0000 
     43 H          13.3072    4.0591    6.1821 H         1 FMN1547     0.0000 
     44 H          13.0887    3.4266    7.6444 H         1 FMN1547     0.0000 
     45 H          16.7713    6.2153    8.1223 H         1 FMN1547     0.0000 
     46 H          15.4495    6.2767    7.2084 H         1 FMN1547     0.0000 
     47 H          15.3532    5.7589    8.7278 H         1 FMN1547     0.0000 
     48 H          20.2498    3.6739    9.8940 H         1 FMN1547     0.0000 
     49 H          20.4770    5.8960    8.7364 H         1 FMN1547     0.0000 
     50 H          24.6408    3.8625    8.1394 H         1 FMN1547     0.0000 
@<TRIPOS>BOND
     1    2    1 1    
     2   18    1 2    
     3    3    2 2    
     4    4    2 am   
     5    5    4 am   
     6   32    4 1    
     7    6    5 2    
     8    7    5 1    
     9    8    7 2    
    10   18    7 1    
    11    9    8 1    
    12   10    9 ar   
    13   16    9 ar   
    14   11   10 ar   
    15   33   10 1    
    16   12   11 1    
    17   13   11 ar   
    18   42   12 1    
    19   43   12 1    
    20   44   12 1    
    21   14   13 1    
    22   15   13 ar   
    23   45   14 1    
    24   46   14 1    
    25   47   14 1    
    26   16   15 ar   
    27   34   15 1    
    28   17   16 1    
    29   18   17 1    
    30   19   17 1    
    31   20   19 1    
    32   35   19 1    
    33   36   19 1    
    34   21   20 1    
    35   22   20 1    
    36   37   20 1    
    37   48   21 1    
    38   23   22 1    
    39   24   22 1    
    40   38   22 1    
    41   49   23 1    
    42   25   24 1    
    43   26   24 1    
    44   39   24 1    
    45   50   25 1    
    46   27   26 1    
    47   40   26 1    
    48   41   26 1    
    49   28   27 1    
    50   29   28 ar   
    51   30   28 ar   
    52   31   28 ar   
@<TRIPOS>SUBSTRUCTURE
     1 FMN1547     1 GROUP   
@<TRIPOS>SET

