#    Name: 4dth_ATP_1_INTS_M
#    Modification time : Tue Mar 25 10:12:21 2014

@<TRIPOS>MOLECULE
4dth_ATP_1_INTS_M
   72     0    12     0     0
SMALL
NO_CHARGES


@<TRIPOS>ATOM
      1 NZ         30.3670   87.0965    4.2065 N.4       3 LYC4        0.0000 
      2 NZ         31.2350   87.9530    2.7060 N.4      11 LYL4        0.0000 
      3 NZ         29.4990   86.2400    5.7070 N.4       7 LYP4        0.0000 
      4 NZ         30.8010   87.9910    1.0545 N.4       3 LYC4        0.0000 
      5 NZ         30.3670   88.0290   -0.5970 N.4       7 LYP4        0.0000 
      6 N          30.8010   87.9910    1.0545 N.am      2 SEC2        0.0000 
      7 N          31.2350   87.9530    2.7060 N.am     10 SEL2        0.0000 
      8 N          30.3670   88.0290   -0.5970 N.am      6 SEP2        0.0000 
      9 NZ         30.4525   85.8645    4.2570 N.4       3 LYC4        0.0000 
     10 NZ         31.4060   85.4890    2.8070 N.4      11 LYL4        0.0000 
     11 NZ         31.6600   87.3780    0.3950 N.4       3 LYC4        0.0000 
     12 NZ         32.9530   86.7270    1.3870 N.4      11 LYL4        0.0000 
     13 NZ         31.6955   85.6005    6.5375 N.4       3 LYC4        0.0000 
     14 NZ         32.7340   85.5260    7.0700 N.4      11 LYL4        0.0000 
     15 N          31.6955   85.6005    6.5375 N.am      2 SEC2        0.0000 
     16 N          32.7340   85.5260    7.0700 N.am     10 SEL2        0.0000 
     17 N          30.6570   85.6750    6.0050 N.am      6 SEP2        0.0000 
     18 N          32.0590   88.9620    7.3700 N.am      2 SEC2        0.0000 
     19 N          33.2740   87.8270    7.9040 N.am     10 SEL2        0.0000 
     20 N          30.8440   90.0970    6.8360 N.am      6 SEP2        0.0000 
     21 CA         35.3500   87.6140    9.7955 C.3       4 GLC5        0.0000 
     22 CA         34.2460   88.7480    8.4260 C.3      12 GLL5        0.0000 
     23 CA         36.4540   86.4800   11.1650 C.3       8 GLP5        0.0000 
     24 CA         36.1685   89.6210    8.6470 C.3       4 GLC5        0.0000 
     25 CA         38.0910   90.4940    8.8680 C.3       8 GLP5        0.0000 
     26 CA         32.4330   87.6650    9.0655 C.3       4 GLC5        0.0000 
     27 CA         30.6200   86.5820    9.7050 C.3       8 GLP5        0.0000 
     28 CA         31.8540   91.0425    9.5570 C.3       4 GLC5        0.0000 
     29 CA         33.6070   89.9270    9.1110 C.3      12 GLL5        0.0000 
     30 CA         30.1010   92.1580   10.0030 C.3       8 GLP5        0.0000 
     31 CA         35.9680   88.9135   11.2180 C.3       4 GLC5        0.0000 
     32 CA         34.5940   90.2910   11.2340 C.3      12 GLL5        0.0000 
     33 CA         37.3420   87.5360   11.2020 C.3       8 GLP5        0.0000 
     34 O          36.4315   91.2125   12.4840 O.2       1 ALC1        0.0000 
     35 O          35.1380   91.1720   12.2030 O.2       9 ALL1        0.0000 
     36 O          37.7250   91.2530   12.7650 O.2       5 ALP1        0.0000 
     37 CA         31.6030   91.1075   10.6955 C.3       4 GLC5        0.0000 
     38 CA         33.1050   90.0570   11.3880 C.3      12 GLL5        0.0000 
     39 CA         33.1565   88.7550   15.3325 C.3       4 GLC5        0.0000 
     40 CA         31.7400   88.4100   14.3200 C.3      12 GLL5        0.0000 
     41 CA         34.5730   89.1000   16.3450 C.3       8 GLP5        0.0000 
     42 CA         30.3200   89.9390   16.9710 C.3       4 GLC5        0.0000 
     43 CA         30.8950   88.5020   15.4440 C.3      12 GLL5        0.0000 
     44 CA         29.7450   91.3760   18.4980 C.3       8 GLP5        0.0000 
     45 CA         32.3890   89.4790   15.9110 C.3       4 GLC5        0.0000 
     46 CA         33.8830   90.4560   16.3780 C.3       8 GLP5        0.0000 
     47 O          29.6405   87.2675   17.4765 O.2       1 ALC1        0.0000 
     48 O          30.6800   87.4970   16.3030 O.2       9 ALL1        0.0000 
     49 O          28.6010   87.0380   18.6500 O.2       5 ALP1        0.0000 
     50 N          29.6020   90.1070   16.6620 N.am      2 SEC2        0.0000 
     51 N          30.2520   89.6740   15.6510 N.am     10 SEL2        0.0000 
     52 N          28.9520   90.5400   17.6730 N.am      6 SEP2        0.0000 
     53 CA         30.0940   91.0275   16.6450 C.3       4 GLC5        0.0000 
     54 CA         30.4430   90.6790   14.7920 C.3      12 GLL5        0.0000 
     55 CA         30.6545   92.6170   15.2090 C.3       4 GLC5        0.0000 
     56 CA         30.8660   94.5550   15.6260 C.3       8 GLP5        0.0000 
     57 CA         32.1630   90.5675   15.5850 C.3       4 GLC5        0.0000 
     58 CA         28.2575   90.6295   15.1145 C.3       4 GLC5        0.0000 
     59 CA         26.0720   90.5800   15.4370 C.3       8 GLP5        0.0000 
     60 CA         29.6445   89.2955   13.7230 C.3       4 GLC5        0.0000 
     61 CA         28.8460   87.9120   12.6540 C.3       8 GLP5        0.0000 
     62 CA         32.8620   89.9975   14.9475 C.3       4 GLC5        0.0000 
     63 CA         31.8410   89.5390   13.5170 C.3      12 GLL5        0.0000 
     64 CA         30.5590   90.2320   11.9470 C.3       4 GLC5        0.0000 
     65 CA         29.2770   90.9250   10.3770 C.3       8 GLP5        0.0000 
     66 CA         34.7777   91.6438    7.9700 C.3       4 GLC5        0.0000 
     67 CA         35.4470   92.9030    6.4770 C.3       8 GLP5        0.0000 
     68 CA         36.3465   90.5302    9.6962 C.3       4 GLC5        0.0000 
     69 CA         33.7157   91.9979   12.0381 C.3       4 GLC5        0.0000 
     70 CA         34.6100   90.8420    9.8150 C.3      12 GLL5        0.0000 
     71 CA         33.5780   93.6840   13.1200 C.3       8 GLP5        0.0000 
     72 CA         30.2126   88.4548   13.4268 C.3       4 GLC5        0.0000 
@<TRIPOS>BOND
@<TRIPOS>SUBSTRUCTURE
     1 ALC1       34 GROUP        1 X    ALC  0     ROOT ALC X 1
     2 SEC2        6 GROUP        1 X    SEC  0     **** SEC X 2
     3 LYC4        1 GROUP        1 X    LYC  0     **** LYC X 4
     4 GLC5       21 GROUP        1 X    GLC  0     **** GLC X 6
     5 ALP1       36 GROUP        1 Y    ALP  0     ROOT ALP Y 8
     6 SEP2        8 GROUP        1 Y    SEP  0     **** SEP Y 9
     7 LYP4        3 GROUP        1 Y    LYP  0     **** LYP Y 11
     8 GLP5       23 GROUP        1 Y    GLP  0     **** GLP Y 13
     9 ALL1       35 GROUP        1 Z    ALL  0     ROOT ALL Z 15
    10 SEL2        7 GROUP        1 Z    SEL  0     **** SEL Z 16
    11 LYL4        2 GROUP        1 Z    LYL  0     **** LYL Z 18
    12 GLL5       22 GROUP        1 Z    GLL  0     **** GLL Z 20
@<TRIPOS>SET

