#    Name: 4dth_ATP_1_ligand
#    Modification time : Tue Mar 25 10:12:21 2014

@<TRIPOS>MOLECULE
4dth_ATP_1_ligand
   43    45     1     0     0
SMALL
NO_CHARGES


@<TRIPOS>ATOM
      1 PG         32.1620   86.7800    2.6630 P.3       1 ATP401      0.0000 
      2 O1G        31.2350   87.9530    2.7060 O.co2     1 ATP401      0.0000 
      3 O2G        31.4060   85.4890    2.8070 O.co2     1 ATP401      0.0000 
      4 O3G        32.9530   86.7270    1.3870 O.co2     1 ATP401      0.0000 
      5 PB         34.2900   86.1760    4.5090 P.3       1 ATP401      0.0000 
      6 O1B        33.9620   84.7360    4.5420 O.co2     1 ATP401      0.0000 
      7 O2B        35.5360   86.3660    3.6780 O.co2     1 ATP401      0.0000 
      8 O3B        33.1630   86.9410    3.9030 O.3       1 ATP401      0.0000 
      9 PA         33.8560   86.4630    7.2910 P.3       1 ATP401      0.0000 
     10 O1A        32.7340   85.5260    7.0700 O.co2     1 ATP401      0.0000 
     11 O2A        34.8380   85.7900    8.2540 O.co2     1 ATP401      0.0000 
     12 O3A        34.5430   86.7220    5.9950 O.3       1 ATP401      0.0000 
     13 O5'        33.2740   87.8270    7.9040 O.3       1 ATP401      0.0000 
     14 C5'        34.2460   88.7480    8.4260 C.3       1 ATP401      0.0000 
     15 C4'        33.6070   89.9270    9.1110 C.3       1 ATP401      0.0000 
     16 O4'        32.7050   89.4680   10.1590 O.3       1 ATP401      0.0000 
     17 C3'        34.6100   90.8420    9.8150 C.3       1 ATP401      0.0000 
     18 O3'        34.2200   92.2130    9.7740 O.3       1 ATP401      0.0000 
     19 C2'        34.5940   90.2910   11.2340 C.3       1 ATP401      0.0000 
     20 O2'        35.1380   91.1720   12.2030 O.3       1 ATP401      0.0000 
     21 C1'        33.1050   90.0570   11.3880 C.3       1 ATP401      0.0000 
     22 N9         32.6900   89.1990   12.5010 N.pl3     1 ATP401      0.0000 
     23 C8         33.0620   87.9020   12.7300 C.2       1 ATP401      0.0000 
     24 N7         32.5190   87.3830   13.8050 N.2       1 ATP401      0.0000 
     25 C5         31.7400   88.4100   14.3200 C.ar      1 ATP401      0.0000 
     26 C6         30.8950   88.5020   15.4440 C.ar      1 ATP401      0.0000 
     27 N6         30.6800   87.4970   16.3030 N.pl3     1 ATP401      0.0000 
     28 N1         30.2520   89.6740   15.6510 N.ar      1 ATP401      0.0000 
     29 C2         30.4430   90.6790   14.7920 C.ar      1 ATP401      0.0000 
     30 N3         31.2070   90.7110   13.7030 N.ar      1 ATP401      0.0000 
     31 C4         31.8410   89.5390   13.5170 C.ar      1 ATP401      0.0000 
     32 H          34.9007   89.1313    7.6184 H         1 ATP401      0.0000 
     33 H          34.9143   88.2467    9.1538 H         1 ATP401      0.0000 
     34 H          33.0578   90.5175    8.3990 H         1 ATP401      0.0000 
     35 H          35.5711   90.6487    9.4018 H         1 ATP401      0.0000 
     36 H          35.0606   89.3247   11.1971 H         1 ATP401      0.0000 
     37 H          32.6284   91.0396   11.4711 H         1 ATP401      0.0000 
     38 H          33.6918   87.4204   12.1161 H         1 ATP401      0.0000 
     39 H          30.1028   87.7082   17.0918 H         1 ATP401      0.0000 
     40 H          31.1160   86.6255   16.0786 H         1 ATP401      0.0000 
     41 H          29.8895   91.6114   15.0186 H         1 ATP401      0.0000 
     42 H          34.1816   92.4997   10.7312 H         1 ATP401      0.0000 
     43 H          36.1163   90.9656   12.2200 H         1 ATP401      0.0000 
@<TRIPOS>BOND
     1    2    1 ar   
     2    3    1 ar   
     3    4    1 ar   
     4    8    1 1    
     5    6    5 ar   
     6    7    5 ar   
     7    8    5 1    
     8   12    5 1    
     9   10    9 ar   
    10   11    9 ar   
    11   12    9 1    
    12   13    9 1    
    13   14   13 1    
    14   15   14 1    
    15   32   14 1    
    16   33   14 1    
    17   16   15 1    
    18   17   15 1    
    19   34   15 1    
    20   21   16 1    
    21   18   17 1    
    22   19   17 1    
    23   35   17 1    
    24   42   18 1    
    25   20   19 1    
    26   21   19 1    
    27   36   19 1    
    28   43   20 1    
    29   22   21 1    
    30   37   21 1    
    31   23   22 1    
    32   31   22 1    
    33   24   23 2    
    34   38   23 1    
    35   25   24 1    
    36   26   25 ar   
    37   31   25 ar   
    38   27   26 1    
    39   28   26 ar   
    40   39   27 1    
    41   40   27 1    
    42   29   28 ar   
    43   30   29 ar   
    44   41   29 1    
    45   31   30 ar   
@<TRIPOS>SUBSTRUCTURE
     1 ATP401      1 GROUP   
@<TRIPOS>SET

