#    Name: 3gql_GQL_1_INTS_M
#    Modification time : Tue Mar 25 12:50:07 2014

@<TRIPOS>MOLECULE
3gql_GQL_1_INTS_M
   61     0     6     0     0
SMALL
NO_CHARGES


@<TRIPOS>ATOM
      1 CA         52.0990   -4.1625    1.0300 C.3       2 GLC5        0.0000 
      2 CA         52.0870   -6.1630    0.3560 C.3       6 GLL5        0.0000 
      3 CA         52.1110   -2.1620    1.7040 C.3       4 GLP5        0.0000 
      4 CA         51.5430   -6.7615   -1.6995 C.3       2 GLC5        0.0000 
      5 CA         50.3600   -5.1300   -0.8130 C.3       6 GLL5        0.0000 
      6 CA         52.7260   -8.3930   -2.5860 C.3       4 GLP5        0.0000 
      7 CA         51.6590   -3.7380   -1.8695 C.3       2 GLC5        0.0000 
      8 CA         52.9580   -2.3460   -2.9260 C.3       4 GLP5        0.0000 
      9 CA         51.2355   -3.6460    0.4455 C.3       2 GLC5        0.0000 
     10 CA         45.9290   -8.2660   -3.1275 C.3       2 GLC5        0.0000 
     11 CA         45.5120   -6.4240   -2.8900 C.3       6 GLL5        0.0000 
     12 CA         46.3460  -10.1080   -3.3650 C.3       4 GLP5        0.0000 
     13 CA         42.4965   -1.5570   -3.7295 C.3       2 GLC5        0.0000 
     14 CA         43.3270   -2.1570   -1.8680 C.3       6 GLL5        0.0000 
     15 CA         41.6660   -0.9570   -5.5910 C.3       4 GLP5        0.0000 
     16 CA         44.5890   -1.1330   -1.5610 C.3       2 GLC5        0.0000 
     17 CA         45.8510   -0.1090   -1.2540 C.3       4 GLP5        0.0000 
     18 CA         43.2360   -1.9620    0.1810 C.3       2 GLC5        0.0000 
     19 CA         43.1450   -1.7670    2.2300 C.3       4 GLP5        0.0000 
     20 CA         42.4860   -0.4115   -1.4925 C.3       2 GLC5        0.0000 
     21 CA         41.6450    1.3340   -1.1170 C.3       4 GLP5        0.0000 
     22 N          42.1695   -3.2780   -0.1705 N.am      1 SEC2        0.0000 
     23 N          42.9260   -3.4850   -1.5180 N.am      5 SEL2        0.0000 
     24 N          41.4130   -3.0710    1.1770 N.am      3 SEP2        0.0000 
     25 CA         45.1435   -2.6485   -2.1785 C.3       2 GLC5        0.0000 
     26 CA         43.7880   -4.4300   -1.9840 C.3       6 GLL5        0.0000 
     27 CA         46.4990   -0.8670   -2.3730 C.3       4 GLP5        0.0000 
     28 CA         44.5145   -3.8525    0.5710 C.3       2 GLC5        0.0000 
     29 CA         44.8300   -4.8750   -1.1720 C.3       6 GLL5        0.0000 
     30 CA         44.1990   -2.8300    2.3140 C.3       4 GLP5        0.0000 
     31 N          52.3525   -3.8265   -0.4750 N.am      1 SEC2        0.0000 
     32 N          51.6440   -5.1980   -0.4310 N.am      5 SEL2        0.0000 
     33 N          53.0610   -2.4550   -0.5190 N.am      3 SEP2        0.0000 
     34 CA         46.7850  -12.8875   -0.7710 C.3       2 GLC5        0.0000 
     35 CA         47.4220  -11.1410   -0.5580 C.3       6 GLL5        0.0000 
     36 CA         46.1480  -14.6340   -0.9840 C.3       4 GLP5        0.0000 
     37 CA         50.4550   -9.5450   -0.4885 C.3       2 GLC5        0.0000 
     38 CA         49.0650   -8.1840    0.8270 C.3       6 GLL5        0.0000 
     39 CA         52.0630  -10.4320   -1.3420 C.3       4 GLP5        0.0000 
     40 CA         48.7897   -6.0868    1.8338 C.3       2 GLC5        0.0000 
     41 CA         48.6960   -3.9220    2.1720 C.3       4 GLP5        0.0000 
     42 CA         50.1753   -5.2903    1.3778 C.3       2 GLC5        0.0000 
     43 CA         51.2220   -7.1540    0.8110 C.3       6 GLL5        0.0000 
     44 CA         52.0228   -7.5223   -1.0485 C.3       2 GLC5        0.0000 
     45 CA         49.8820   -7.1260    0.4330 C.3       6 GLL5        0.0000 
     46 CA         49.3539   -4.8954    0.8886 C.3       2 GLC5        0.0000 
     47 CA         49.7386   -5.5151   -2.6916 C.3       2 GLC5        0.0000 
     48 CA         49.4450   -6.0890   -0.3860 C.3       6 GLL5        0.0000 
     49 CA         50.4070   -5.3800   -4.6060 C.3       4 GLP5        0.0000 
     50 CA         48.1225   -4.9648    0.6610 C.3       2 GLC5        0.0000 
     51 CA         48.2380   -5.6910   -0.9550 C.3       6 GLL5        0.0000 
     52 CA         43.4823   -7.1898   -4.1943 C.3       2 GLC5        0.0000 
     53 CA         42.6630   -8.7860   -5.1160 C.3       4 GLP5        0.0000 
     54 CA         45.7948   -4.4623   -4.1723 C.3       2 GLC5        0.0000 
     55 CA         44.4720   -5.9820   -3.7020 C.3       6 GLL5        0.0000 
     56 CA         47.2880   -3.3310   -5.0720 C.3       4 GLP5        0.0000 
     57 CA         48.6660  -12.4450   -0.0028 C.3       2 GLC5        0.0000 
     58 CA         47.8400  -10.2030    0.3130 C.3       6 GLL5        0.0000 
     59 CA         49.7010  -14.2180    0.1170 C.3       4 GLP5        0.0000 
     60 CA         47.9830  -10.1330   -1.8154 C.3       2 GLC5        0.0000 
     61 CA         47.8360  -10.3640   -3.5210 C.3       4 GLP5        0.0000 
@<TRIPOS>BOND
@<TRIPOS>SUBSTRUCTURE
     1 SEC2       22 GROUP        1 X    SEC  0     ROOT SEC X 2
     2 GLC5        1 GROUP        1 X    GLC  0     **** GLC X 6
     3 SEP2       24 GROUP        1 Y    SEP  0     ROOT SEP Y 9
     4 GLP5        3 GROUP        1 Y    GLP  0     **** GLP Y 13
     5 SEL2       23 GROUP        1 Z    SEL  0     ROOT SEL Z 16
     6 GLL5        2 GROUP        1 Z    GLL  0     **** GLL Z 20
@<TRIPOS>SET

