#    Name: 3gql_GQL_1_ligand
#    Modification time : Tue Mar 25 12:50:07 2014

@<TRIPOS>MOLECULE
3gql_GQL_1_ligand
   41    44     1     0     0
SMALL
NO_CHARGES


@<TRIPOS>ATOM
      1 C1         49.4450   -6.0890   -0.3860 C.ar      1 GQL1        0.0000 
      2 C2         49.8820   -7.1260    0.4330 C.ar      1 GQL1        0.0000 
      3 C3         49.0650   -8.1840    0.8270 C.ar      1 GQL1        0.0000 
      4 C4         51.2220   -7.1540    0.8110 C.ar      1 GQL1        0.0000 
      5 C5         52.0870   -6.1630    0.3560 C.ar      1 GQL1        0.0000 
      6 C7         50.3600   -5.1300   -0.8130 C.ar      1 GQL1        0.0000 
      7 C9         48.4330   -4.5910   -1.6730 C.2       1 GQL1        0.0000 
      8 C10        48.2380   -5.6910   -0.9550 C.2       1 GQL1        0.0000 
      9 C11        46.8600   -6.3240   -0.7450 C.2       1 GQL1        0.0000 
     10 C13        45.6920   -5.8700   -1.6240 C.ar      1 GQL1        0.0000 
     11 C14        45.5120   -6.4240   -2.8900 C.ar      1 GQL1        0.0000 
     12 C15        44.4720   -5.9820   -3.7020 C.ar      1 GQL1        0.0000 
     13 C19        43.3270   -2.1570   -1.8680 C.3       1 GQL1        0.0000 
     14 O18        42.9260   -3.4850   -1.5180 O.3       1 GQL1        0.0000 
     15 C17        43.7880   -4.4300   -1.9840 C.ar      1 GQL1        0.0000 
     16 C20        44.8300   -4.8750   -1.1720 C.ar      1 GQL1        0.0000 
     17 C16        43.6110   -4.9840   -3.2490 C.ar      1 GQL1        0.0000 
     18 O12        46.6730   -7.1450    0.1520 O.3       1 GQL1        0.0000 
     19 N8         49.7170   -4.2540   -1.5830 N.2       1 GQL1        0.0000 
     20 N6         51.6440   -5.1980   -0.4310 N.ar      1 GQL1        0.0000 
     21 C27        48.7020   -8.3190    2.1640 C.ar      1 GQL1        0.0000 
     22 C25        47.9150   -9.3940    2.5710 C.ar      1 GQL1        0.0000 
     23 F26        47.5700   -9.5460    3.8640 F         1 GQL1        0.0000 
     24 C24        47.4790  -10.3360    1.6490 C.ar      1 GQL1        0.0000 
     25 C22        47.8400  -10.2030    0.3130 C.ar      1 GQL1        0.0000 
     26 F23        47.4220  -11.1410   -0.5580 F         1 GQL1        0.0000 
     27 C21        48.6290   -9.1320   -0.0970 C.ar      1 GQL1        0.0000 
     28 H          51.5694   -7.9010    1.4215 H         1 GQL1        0.0000 
     29 H          53.0848   -6.2099    0.6555 H         1 GQL1        0.0000 
     30 H          47.7537   -4.1120   -2.1791 H         1 GQL1        0.0000 
     31 H          46.1481   -7.1593   -3.2232 H         1 GQL1        0.0000 
     32 H          44.3380   -6.3905   -4.6351 H         1 GQL1        0.0000 
     33 H          44.9613   -4.4667   -0.2373 H         1 GQL1        0.0000 
     34 H          42.8440   -4.6567   -3.8505 H         1 GQL1        0.0000 
     35 H          49.0156   -7.6231    2.8540 H         1 GQL1        0.0000 
     36 H          46.8958  -11.1232    1.9499 H         1 GQL1        0.0000 
     37 H          48.8924   -9.0389   -1.0884 H         1 GQL1        0.0000 
     38 H          44.2294   -1.9324   -1.5002 H         1 GQL1        0.0000 
     39 H          43.3752   -2.0326   -2.8591 H         1 GQL1        0.0000 
     40 H          42.6887   -1.4717   -1.5173 H         1 GQL1        0.0000 
     41 H          47.2504   -6.5676    0.7294 H         1 GQL1        0.0000 
@<TRIPOS>BOND
     1    2    1 ar   
     2    6    1 ar   
     3    8    1 1    
     4    3    2 1    
     5    4    2 ar   
     6   21    3 ar   
     7   27    3 ar   
     8    5    4 ar   
     9   28    4 1    
    10   20    5 ar   
    11   29    5 1    
    12   19    6 1    
    13   20    6 ar   
    14    8    7 1    
    15   19    7 2    
    16   30    7 1    
    17    9    8 2    
    18   10    9 1    
    19   18    9 1    
    20   11   10 ar   
    21   16   10 ar   
    22   12   11 ar   
    23   31   11 1    
    24   17   12 ar   
    25   32   12 1    
    26   14   13 1    
    27   38   13 1    
    28   39   13 1    
    29   40   13 1    
    30   15   14 1    
    31   16   15 ar   
    32   17   15 ar   
    33   33   16 1    
    34   34   17 1    
    35   41   18 1    
    36   22   21 ar   
    37   35   21 1    
    38   23   22 1    
    39   24   22 ar   
    40   25   24 ar   
    41   36   24 1    
    42   26   25 1    
    43   27   25 ar   
    44   37   27 1    
@<TRIPOS>SUBSTRUCTURE
     1 GQL1        1 GROUP   
@<TRIPOS>SET

