#    Name: 3pmy_41L_1_INTS_M
#    Modification time : Tue Mar 25 08:11:34 2014

@<TRIPOS>MOLECULE
3pmy_41L_1_INTS_M
   38     0     9     0     0
SMALL
NO_CHARGES


@<TRIPOS>ATOM
      1 CA         -0.8555    6.4385    5.4795 C.3       3 GLC5        0.0000 
      2 CA         -1.1740    7.5090    7.3140 C.3       9 GLL5        0.0000 
      3 CA         -0.5370    5.3680    3.6450 C.3       6 GLP5        0.0000 
      4 O           0.0405    5.2955    6.8465 O.2       1 ALC1        0.0000 
      5 O          -0.4820    5.2890    8.0200 O.2       7 ALL1        0.0000 
      6 O           0.5630    5.3020    5.6730 O.2       4 ALP1        0.0000 
      7 N          -1.7340    7.4305   10.6680 N.am      2 SEC2        0.0000 
      8 N          -1.4410    6.6530    9.6010 N.am      8 SEL2        0.0000 
      9 N          -2.0270    8.2080   11.7350 N.am      5 SEP2        0.0000 
     10 N          -2.9055    7.2965   10.0150 N.am      2 SEC2        0.0000 
     11 N          -4.3700    7.9400   10.4290 N.am      5 SEP2        0.0000 
     12 CA         -1.9230    6.2225    4.8370 C.3       3 GLC5        0.0000 
     13 CA         -3.3090    7.0770    6.0290 C.3       9 GLL5        0.0000 
     14 CA         -3.5405   11.2915    5.7205 C.3       3 GLC5        0.0000 
     15 CA         -4.2640    9.6210    6.6130 C.3       9 GLL5        0.0000 
     16 CA         -2.8170   12.9620    4.8280 C.3       6 GLP5        0.0000 
     17 CA         -2.6720   10.5530    5.4655 C.3       3 GLC5        0.0000 
     18 CA         -3.0220    9.2110    7.0730 C.3       9 GLL5        0.0000 
     19 CA         -2.3220   11.8950    3.8580 C.3       6 GLP5        0.0000 
     20 CA         -4.2225    5.0370    9.4750 C.3       3 GLC5        0.0000 
     21 CA         -2.5680    3.7450    9.6170 C.3       9 GLL5        0.0000 
     22 CA         -5.8770    6.3290    9.3330 C.3       6 GLP5        0.0000 
     23 CA         -0.4385    8.5710    5.9703 C.3       3 GLC5        0.0000 
     24 CA          0.9690    9.4180    4.8830 C.3       6 GLP5        0.0000 
     25 CA         -5.1820    7.1780    7.5766 C.3       3 GLC5        0.0000 
     26 CA         -4.6960    8.5590    8.4195 C.3       3 GLC5        0.0000 
     27 CA         -5.7490    7.7020    9.9960 C.3       6 GLP5        0.0000 
     28 CA         -2.4410    8.9047    8.9856 C.3       3 GLC5        0.0000 
     29 CA         -2.4480    9.3420   10.9060 C.3       6 GLP5        0.0000 
     30 CA         -1.4535    4.4028   11.6107 C.3       3 GLC5        0.0000 
     31 CA         -1.1650    3.7120    9.6110 C.3       9 GLL5        0.0000 
     32 CA         -2.1070    5.5180   13.1940 C.3       6 GLP5        0.0000 
     33 CA         -2.4923    4.4105   11.6293 C.3       3 GLC5        0.0000 
     34 CA         -3.1870    2.8610   10.5120 C.3       9 GLL5        0.0000 
     35 CA         -1.9253    3.7555   12.2583 C.3       3 GLC5        0.0000 
     36 CA         -2.4440    1.9970   11.3120 C.3       9 GLL5        0.0000 
     37 CA         -0.5447    0.9992   12.2506 C.3       3 GLC5        0.0000 
     38 CA          0.5020   -0.2130   13.4010 C.3       6 GLP5        0.0000 
@<TRIPOS>BOND
@<TRIPOS>SUBSTRUCTURE
     1 ALC1        4 GROUP        1 X    ALC  0     ROOT ALC X 1
     2 SEC2        7 GROUP        1 X    SEC  0     **** SEC X 2
     3 GLC5        1 GROUP        1 X    GLC  0     **** GLC X 6
     4 ALP1        6 GROUP        1 Y    ALP  0     ROOT ALP Y 8
     5 SEP2        9 GROUP        1 Y    SEP  0     **** SEP Y 9
     6 GLP5        3 GROUP        1 Y    GLP  0     **** GLP Y 13
     7 ALL1        5 GROUP        1 Z    ALL  0     ROOT ALL Z 15
     8 SEL2        8 GROUP        1 Z    SEL  0     **** SEL Z 16
     9 GLL5        2 GROUP        1 Z    GLL  0     **** GLL Z 20
@<TRIPOS>SET

