#    Name: 3pmy_41L_1_ligand
#    Modification time : Tue Mar 25 08:11:34 2014

@<TRIPOS>MOLECULE
3pmy_41L_1_ligand
   32    34     1     0     0
SMALL
NO_CHARGES


@<TRIPOS>ATOM
      1 C1         -2.5180    7.9390    6.8010 C.ar      1 41L2001     0.0000 
      2 C2         -1.1740    7.5090    7.3140 C.3       1 41L2001     0.0000 
      3 C3         -1.0760    6.5070    8.4310 C.2       1 41L2001     0.0000 
      4 N4         -0.4820    5.2890    8.0200 N.am      1 41L2001     0.0000 
      5 N5         -0.2070    4.4190    8.8690 N.pl3     1 41L2001     0.0000 
      6 O6         -1.4410    6.6530    9.6010 O.2       1 41L2001     0.0000 
      7 C7         -3.3090    7.0770    6.0290 C.ar      1 41L2001     0.0000 
      8 C8         -4.5550    7.4930    5.5820 C.ar      1 41L2001     0.0000 
      9 C9         -5.0420    8.7690    5.8350 C.ar      1 41L2001     0.0000 
     10 C10        -4.2640    9.6210    6.6130 C.ar      1 41L2001     0.0000 
     11 C11        -3.0220    9.2110    7.0730 C.ar      1 41L2001     0.0000 
     12 C12        -1.1650    3.7120    9.6110 C.ar      1 41L2001     0.0000 
     13 C13        -0.4350    2.8630   10.4440 C.ar      1 41L2001     0.0000 
     14 N14         0.9130    3.0970   10.1840 N.2       1 41L2001     0.0000 
     15 C15         1.0380    4.0410    9.2270 C.2       1 41L2001     0.0000 
     16 C16        -2.5680    3.7450    9.6170 C.ar      1 41L2001     0.0000 
     17 C17        -3.1870    2.8610   10.5120 C.ar      1 41L2001     0.0000 
     18 C18        -2.4440    1.9970   11.3120 C.ar      1 41L2001     0.0000 
     19 C19        -1.0430    1.9890   11.3330 C.ar      1 41L2001     0.0000 
     20 H          -0.5965    8.4384    7.6206 H         1 41L2001     0.0000 
     21 H          -0.5659    7.1208    6.4361 H         1 41L2001     0.0000 
     22 H          -0.3055    5.1943    6.9905 H         1 41L2001     0.0000 
     23 H          -2.9609    6.1391    5.7976 H         1 41L2001     0.0000 
     24 H          -5.1458    6.8261    5.0381 H         1 41L2001     0.0000 
     25 H          -5.9362    9.0713    5.4650 H         1 41L2001     0.0000 
     26 H          -4.6151   10.5619    6.8474 H         1 41L2001     0.0000 
     27 H          -2.4457    9.8693    7.6384 H         1 41L2001     0.0000 
     28 H           1.8600    4.3801    8.8681 H         1 41L2001     0.0000 
     29 H          -3.0859    4.3527    9.0278 H         1 41L2001     0.0000 
     30 H          -4.2216    2.8537   10.5765 H         1 41L2001     0.0000 
     31 H          -2.9530    1.3195   11.9287 H         1 41L2001     0.0000 
     32 H          -0.5287    1.3973   11.9433 H         1 41L2001     0.0000 
@<TRIPOS>BOND
     1    2    1 1    
     2    7    1 ar   
     3   11    1 ar   
     4    3    2 1    
     5   20    2 1    
     6   21    2 1    
     7    4    3 am   
     8    6    3 2    
     9    5    4 1    
    10   22    4 1    
    11   12    5 1    
    12   15    5 1    
    13    8    7 ar   
    14   23    7 1    
    15    9    8 ar   
    16   24    8 1    
    17   10    9 ar   
    18   25    9 1    
    19   11   10 ar   
    20   26   10 1    
    21   27   11 1    
    22   13   12 ar   
    23   16   12 ar   
    24   14   13 1    
    25   19   13 ar   
    26   15   14 2    
    27   28   15 1    
    28   17   16 ar   
    29   29   16 1    
    30   18   17 ar   
    31   30   17 1    
    32   19   18 ar   
    33   31   18 1    
    34   32   19 1    
@<TRIPOS>SUBSTRUCTURE
     1 41L2001     1 GROUP   
@<TRIPOS>SET

