#    Name: 3LQ2_1_CAVITY_N1_6.mol2
#    Modification time : Tue Mar 11 12:00:58 2014

@<TRIPOS>MOLECULE
3LQ2_1_CAVITY_N1_6.mol2
   54     0     6     0     0
SMALL
NO_CHARGES


@<TRIPOS>ATOM
      1 NZ         24.5817  -68.5815   -1.0277 N.2       3 LYS4        0.0000 
      2 N          23.8154  -67.8629   -2.8706 N.2       2 ALA2        0.0000 
      3 N          24.2927  -67.8695   -4.2926 N.2       2 ALA2        0.0000 
      4 OG         24.5048  -66.5499   -2.6453 O.2       1 SER1        0.0000 
      5 NZ         24.9822  -66.5565   -4.0673 N.2       3 LYS4        0.0000 
      6 NZ         22.7837  -65.8180   -1.6442 N.2       3 LYS4        0.0000 
      7 N          23.2611  -65.8246   -3.0662 N.2       2 ALA2        0.0000 
      8 OG         23.7384  -65.8312   -4.4882 O.2       1 SER1        0.0000 
      9 CA         20.5852  -65.0794    0.7788 C.3       5 GLY6        0.0000 
     10 CA         21.0626  -65.0861   -0.6432 C.3       5 GLY6        0.0000 
     11 N          19.8189  -64.3608   -1.0641 N.2       2 ALA2        0.0000 
     12 OG         25.1942  -65.2369   -2.4200 O.2       1 SER1        0.0000 
     13 NZ         25.6716  -65.2435   -3.8420 N.2       3 LYS4        0.0000 
     14 NZ         23.4731  -64.5050   -1.4189 N.2       3 LYS4        0.0000 
     15 N          23.9505  -64.5116   -2.8409 N.2       2 ALA2        0.0000 
     16 N          24.4279  -64.5182   -4.2629 N.2       2 ALA2        0.0000 
     17 NZ         21.2746  -63.7664    1.0042 N.2       3 LYS4        0.0000 
     18 NZ         21.7520  -63.7731   -0.4178 N.2       3 LYS4        0.0000 
     19 N          22.2294  -63.7797   -1.8398 N.2       2 ALA2        0.0000 
     20 CA         20.0309  -63.0412    0.5832 C.3       5 GLY6        0.0000 
     21 CA         20.5083  -63.0478   -0.8388 C.3       5 GLY6        0.0000 
     22 CZ         25.4062  -63.9172   -0.7727 C.ar      4 PHE5        0.0000 
     23 CZ         25.8836  -63.9239   -2.1947 C.ar      4 PHE5        0.0000 
     24 CA         22.7303  -63.1720    3.0724 C.3       5 GLY6        0.0000 
     25 NZ         23.2077  -63.1787    1.6504 N.2       3 LYS4        0.0000 
     26 NZ         23.6851  -63.1853    0.2284 N.2       3 LYS4        0.0000 
     27 NZ         24.1625  -63.1920   -1.1936 N.2       3 LYS4        0.0000 
     28 N          24.6399  -63.1986   -2.6156 N.2       2 ALA2        0.0000 
     29 CA         21.9640  -62.4534    1.2295 C.3       5 GLY6        0.0000 
     30 CA         22.4414  -62.4601   -0.1925 C.3       5 GLY6        0.0000 
     31 N          22.9188  -62.4667   -1.6145 N.2       2 ALA2        0.0000 
     32 N          23.3962  -62.4733   -3.0365 N.2       2 ALA2        0.0000 
     33 N          21.6751  -61.7414   -2.0354 N.2       2 ALA2        0.0000 
     34 N          24.6635  -62.5843    3.7186 N.2       2 ALA2        0.0000 
     35 NZ         25.1408  -62.5910    2.2966 N.2       3 LYS4        0.0000 
     36 CZ         25.6182  -62.5976    0.8746 C.ar      4 PHE5        0.0000 
     37 CZ         26.0956  -62.6042   -0.5474 C.ar      4 PHE5        0.0000 
     38 CA         23.4197  -61.8591    3.2977 C.3       5 GLY6        0.0000 
     39 CA         23.8971  -61.8657    1.8757 C.3       5 GLY6        0.0000 
     40 DU         24.3745  -61.8723    0.4537 H         6 CUB7        0.0000 
     41 CZ         24.8519  -61.8790   -0.9683 C.ar      4 PHE5        0.0000 
     42 N          25.3293  -61.8856   -2.3903 N.2       2 ALA2        0.0000 
     43 CA         22.6534  -61.1404    1.4548 C.3       5 GLY6        0.0000 
     44 CA         23.1308  -61.1471    0.0328 C.3       5 GLY6        0.0000 
     45 N          23.6082  -61.1537   -1.3892 N.2       2 ALA2        0.0000 
     46 N          24.0856  -61.1604   -2.8112 N.2       2 ALA2        0.0000 
     47 CZ         26.3076  -61.2846    1.0999 C.ar      4 PHE5        0.0000 
     48 NZ         24.5865  -60.5527    2.1010 N.2       3 LYS4        0.0000 
     49 CZ         25.0639  -60.5593    0.6790 C.ar      4 PHE5        0.0000 
     50 CA         23.3428  -59.8274    1.6801 C.3       5 GLY6        0.0000 
     51 CA         23.8202  -59.8341    0.2581 C.3       5 GLY6        0.0000 
     52 CZ         24.2976  -59.8407   -1.1639 C.ar      4 PHE5        0.0000 
     53 NZ         24.0322  -58.5144    1.9054 N.2       3 LYS4        0.0000 
     54 CZ         24.5096  -58.5211    0.4834 C.ar      4 PHE5        0.0000 
@<TRIPOS>BOND
@<TRIPOS>SUBSTRUCTURE
     1 SER1        4 GROUP   
     2 ALA2        2 GROUP   
     3 LYS4        1 GROUP   
     4 PHE5       22 GROUP   
     5 GLY6        9 GROUP   
     6 CUB7       40 GROUP   
@<TRIPOS>SET

