#    Name: 3LQ2_1_CAVITY_N1_ALL.mol2
#    Modification time : Tue Mar 11 12:00:58 2014

@<TRIPOS>MOLECULE
3LQ2_1_CAVITY_N1_ALL.mol2
  110     0     6     0     0
SMALL
NO_CHARGES


@<TRIPOS>ATOM
      1 CA         26.1441  -73.2789   -8.3927 C.3       5 GLY6        0.0000 
      2 CA         24.4230  -72.5470   -7.3916 C.3       5 GLY6        0.0000 
      3 CA         22.2245  -71.8085   -4.9685 C.3       5 GLY6        0.0000 
      4 N          22.7019  -71.8151   -6.3905 N.2       2 ALA2        0.0000 
      5 DU         27.5998  -72.6845   -6.3244 H         6 CUB7        0.0000 
      6 NZ         28.0772  -72.6912   -7.7464 N.2       3 LYS4        0.0000 
      7 CA         26.3561  -71.9593   -6.7454 C.3       5 GLY6        0.0000 
      8 CA         26.8335  -71.9659   -8.1674 C.3       5 GLY6        0.0000 
      9 DU         23.6803  -71.2141   -2.9003 H         6 CUB7        0.0000 
     10 DU         24.1576  -71.2207   -4.3223 H         6 CUB7        0.0000 
     11 DU         24.6350  -71.2274   -5.7443 H         6 CUB7        0.0000 
     12 CA         25.1124  -71.2340   -7.1663 C.3       5 GLY6        0.0000 
     13 N          22.4365  -70.4888   -3.3212 N.2       2 ALA2        0.0000 
     14 N          22.9139  -70.4955   -4.7432 N.2       2 ALA2        0.0000 
     15 N          23.3913  -70.5021   -6.1652 N.2       2 ALA2        0.0000 
     16 NZ         29.5330  -72.0968   -5.6782 N.2       3 LYS4        0.0000 
     17 OG         27.3345  -71.3583   -3.2551 O.2       1 SER1        0.0000 
     18 DU         27.8119  -71.3649   -4.6771 H         6 CUB7        0.0000 
     19 DU         28.2892  -71.3716   -6.0991 H         6 CUB7        0.0000 
     20 NZ         28.7666  -71.3782   -7.5211 N.2       3 LYS4        0.0000 
     21 OG         25.6134  -70.6264   -2.2541 O.2       1 SER1        0.0000 
     22 OG         26.0908  -70.6330   -3.6761 O.2       1 SER1        0.0000 
     23 DU         26.5681  -70.6397   -5.0981 H         6 CUB7        0.0000 
     24 DU         27.0455  -70.6463   -6.5200 H         6 CUB7        0.0000 
     25 CA         27.5229  -70.6529   -7.9420 C.3       5 GLY6        0.0000 
     26 OG         24.3697  -69.9011   -2.6750 O.2       1 SER1        0.0000 
     27 DU         24.8471  -69.9077   -4.0970 H         6 CUB7        0.0000 
     28 NZ         25.3244  -69.9144   -5.5190 N.2       3 LYS4        0.0000 
     29 NZ         25.8018  -69.9210   -6.9410 N.2       3 LYS4        0.0000 
     30 CA         26.2792  -69.9277   -8.3630 C.3       5 GLY6        0.0000 
     31 N          23.1260  -69.1758   -3.0959 N.2       2 ALA2        0.0000 
     32 N          23.6033  -69.1825   -4.5179 N.2       2 ALA2        0.0000 
     33 N          24.0807  -69.1891   -5.9399 N.2       2 ALA2        0.0000 
     34 NZ         24.5581  -69.1958   -7.3619 N.2       3 LYS4        0.0000 
     35 CA         29.2676  -70.7705   -2.6089 C.3       5 GLY6        0.0000 
     36 CA         29.7450  -70.7772   -4.0309 C.3       5 GLY6        0.0000 
     37 O          30.2224  -70.7838   -5.4529 O.2       2 ALA2        0.0000 
     38 CA         28.0239  -70.0453   -3.0298 C.3       5 GLY6        0.0000 
     39 DU         28.5013  -70.0519   -4.4518 H         6 CUB7        0.0000 
     40 DU         28.9787  -70.0586   -5.8738 H         6 CUB7        0.0000 
     41 O          29.4560  -70.0652   -7.2958 O.2       2 ALA2        0.0000 
     42 OG         26.7802  -69.3200   -3.4508 O.2       1 SER1        0.0000 
     43 DU         27.2576  -69.3267   -4.8727 H         6 CUB7        0.0000 
     44 NZ         27.7349  -69.3333   -6.2947 N.2       3 LYS4        0.0000 
     45 NZ         28.2123  -69.3399   -7.7167 N.2       3 LYS4        0.0000 
     46 NZ         24.5817  -68.5815   -1.0277 N.2       3 LYS4        0.0000 
     47 OG         25.0591  -68.5881   -2.4497 O.2       1 SER1        0.0000 
     48 OG         25.5365  -68.5948   -3.8717 O.2       1 SER1        0.0000 
     49 NZ         26.0138  -68.6014   -5.2937 N.2       3 LYS4        0.0000 
     50 N          23.8154  -67.8629   -2.8706 N.2       2 ALA2        0.0000 
     51 N          24.2927  -67.8695   -4.2926 N.2       2 ALA2        0.0000 
     52 NZ         24.7701  -67.8761   -5.7146 N.2       3 LYS4        0.0000 
     53 O          30.4344  -69.4642   -3.8056 O.2       2 ALA2        0.0000 
     54 CA         29.1907  -68.7389   -4.2265 C.3       5 GLY6        0.0000 
     55 CA         29.6681  -68.7456   -5.6485 C.3       5 GLY6        0.0000 
     56 OG         27.9470  -68.0137   -4.6474 O.2       1 SER1        0.0000 
     57 CA         28.4244  -68.0203   -6.0694 C.3       5 GLY6        0.0000 
     58 OG         26.2259  -67.2818   -3.6464 O.2       1 SER1        0.0000 
     59 NZ         26.7033  -67.2884   -5.0684 N.2       3 LYS4        0.0000 
     60 OG         24.5048  -66.5499   -2.6453 O.2       1 SER1        0.0000 
     61 NZ         24.9822  -66.5565   -4.0673 N.2       3 LYS4        0.0000 
     62 NZ         22.7837  -65.8180   -1.6442 N.2       3 LYS4        0.0000 
     63 N          23.2611  -65.8246   -3.0662 N.2       2 ALA2        0.0000 
     64 OG         23.7384  -65.8312   -4.4882 O.2       1 SER1        0.0000 
     65 CA         20.5852  -65.0794    0.7788 C.3       5 GLY6        0.0000 
     66 CA         21.0626  -65.0861   -0.6432 C.3       5 GLY6        0.0000 
     67 N          19.8189  -64.3608   -1.0641 N.2       2 ALA2        0.0000 
     68 OG         25.1942  -65.2369   -2.4200 O.2       1 SER1        0.0000 
     69 NZ         25.6716  -65.2435   -3.8420 N.2       3 LYS4        0.0000 
     70 NZ         23.4731  -64.5050   -1.4189 N.2       3 LYS4        0.0000 
     71 N          23.9505  -64.5116   -2.8409 N.2       2 ALA2        0.0000 
     72 N          24.4279  -64.5182   -4.2629 N.2       2 ALA2        0.0000 
     73 NZ         21.2746  -63.7664    1.0042 N.2       3 LYS4        0.0000 
     74 NZ         21.7520  -63.7731   -0.4178 N.2       3 LYS4        0.0000 
     75 N          22.2294  -63.7797   -1.8398 N.2       2 ALA2        0.0000 
     76 CA         20.0309  -63.0412    0.5832 C.3       5 GLY6        0.0000 
     77 CA         20.5083  -63.0478   -0.8388 C.3       5 GLY6        0.0000 
     78 CZ         25.4062  -63.9172   -0.7727 C.ar      4 PHE5        0.0000 
     79 CZ         25.8836  -63.9239   -2.1947 C.ar      4 PHE5        0.0000 
     80 CA         22.7303  -63.1720    3.0724 C.3       5 GLY6        0.0000 
     81 NZ         23.2077  -63.1787    1.6504 N.2       3 LYS4        0.0000 
     82 NZ         23.6851  -63.1853    0.2284 N.2       3 LYS4        0.0000 
     83 NZ         24.1625  -63.1920   -1.1936 N.2       3 LYS4        0.0000 
     84 N          24.6399  -63.1986   -2.6156 N.2       2 ALA2        0.0000 
     85 CA         21.9640  -62.4534    1.2295 C.3       5 GLY6        0.0000 
     86 CA         22.4414  -62.4601   -0.1925 C.3       5 GLY6        0.0000 
     87 N          22.9188  -62.4667   -1.6145 N.2       2 ALA2        0.0000 
     88 N          23.3962  -62.4733   -3.0365 N.2       2 ALA2        0.0000 
     89 N          21.6751  -61.7414   -2.0354 N.2       2 ALA2        0.0000 
     90 N          24.6635  -62.5843    3.7186 N.2       2 ALA2        0.0000 
     91 NZ         25.1408  -62.5910    2.2966 N.2       3 LYS4        0.0000 
     92 CZ         25.6182  -62.5976    0.8746 C.ar      4 PHE5        0.0000 
     93 CZ         26.0956  -62.6042   -0.5474 C.ar      4 PHE5        0.0000 
     94 CA         23.4197  -61.8591    3.2977 C.3       5 GLY6        0.0000 
     95 CA         23.8971  -61.8657    1.8757 C.3       5 GLY6        0.0000 
     96 DU         24.3745  -61.8723    0.4537 H         6 CUB7        0.0000 
     97 CZ         24.8519  -61.8790   -0.9683 C.ar      4 PHE5        0.0000 
     98 N          25.3293  -61.8856   -2.3903 N.2       2 ALA2        0.0000 
     99 CA         22.6534  -61.1404    1.4548 C.3       5 GLY6        0.0000 
    100 CA         23.1308  -61.1471    0.0328 C.3       5 GLY6        0.0000 
    101 N          23.6082  -61.1537   -1.3892 N.2       2 ALA2        0.0000 
    102 N          24.0856  -61.1604   -2.8112 N.2       2 ALA2        0.0000 
    103 CZ         26.3076  -61.2846    1.0999 C.ar      4 PHE5        0.0000 
    104 NZ         24.5865  -60.5527    2.1010 N.2       3 LYS4        0.0000 
    105 CZ         25.0639  -60.5593    0.6790 C.ar      4 PHE5        0.0000 
    106 CA         23.3428  -59.8274    1.6801 C.3       5 GLY6        0.0000 
    107 CA         23.8202  -59.8341    0.2581 C.3       5 GLY6        0.0000 
    108 CZ         24.2976  -59.8407   -1.1639 C.ar      4 PHE5        0.0000 
    109 NZ         24.0322  -58.5144    1.9054 N.2       3 LYS4        0.0000 
    110 CZ         24.5096  -58.5211    0.4834 C.ar      4 PHE5        0.0000 
@<TRIPOS>BOND
@<TRIPOS>SUBSTRUCTURE
     1 SER1       17 GROUP   
     2 ALA2        4 GROUP   
     3 LYS4        6 GROUP   
     4 PHE5       78 GROUP   
     5 GLY6        1 GROUP   
     6 CUB7        5 GROUP   
@<TRIPOS>SET

