#    Name: 3lq2_TDP_1_INTS_M
#    Modification time : Mon Mar 24 22:03:43 2014

@<TRIPOS>MOLECULE
3lq2_TDP_1_INTS_M
   76     0    15     0     0
SMALL
NO_CHARGES


@<TRIPOS>ATOM
      1 N          25.2640  -59.4725    2.6510 N.am      2 SEC2        0.0000 
      2 N          24.3550  -59.6140    1.5870 N.am     12 SEL2        0.0000 
      3 N          26.1730  -59.3310    3.7150 N.am      7 SEP2        0.0000 
      4 CA         22.4210  -59.1030    0.4285 C.3       5 GLC5        0.0000 
      5 CA         24.1320  -58.7230    0.5550 C.3      15 GLL5        0.0000 
      6 CA         20.7100  -59.4830    0.3020 C.3      10 GLP5        0.0000 
      7 CA         22.7160  -59.5065    2.0675 C.3       5 GLC5        0.0000 
      8 CA         21.3000  -60.2900    3.5800 C.3      10 GLP5        0.0000 
      9 CA         23.4215  -56.8220   -1.1375 C.3       5 GLC5        0.0000 
     10 CA         24.2420  -57.2720    0.8740 C.3      15 GLL5        0.0000 
     11 CA         22.6010  -56.3720   -3.1490 C.3      10 GLP5        0.0000 
     12 CA         22.3645  -57.6750    0.8590 C.3       5 GLC5        0.0000 
     13 CA         20.4870  -58.0780    0.8440 C.3      10 GLP5        0.0000 
     14 CA         26.0685  -57.5715    0.1760 C.3       5 GLC5        0.0000 
     15 CA         27.8950  -57.8710   -0.5220 C.3      10 GLP5        0.0000 
     16 N          22.5455  -58.1025   -0.9755 N.am      2 SEC2        0.0000 
     17 N          23.8250  -59.1140   -0.6860 N.am     12 SEL2        0.0000 
     18 N          21.2660  -57.0910   -1.2650 N.am      7 SEP2        0.0000 
     19 O          22.6760  -59.8785   -2.9360 O.2       1 ALC1        0.0000 
     20 O          23.4320  -60.8050   -2.2050 O.2      11 ALL1        0.0000 
     21 O          21.9200  -58.9520   -3.6670 O.2       6 ALP1        0.0000 
     22 CA         22.7830  -60.6310    2.4710 C.3       5 GLC5        0.0000 
     23 CA         24.2660  -60.9720    1.3620 C.3      15 GLL5        0.0000 
     24 CA         25.8900  -63.9420    0.0355 C.3       5 GLC5        0.0000 
     25 CA         23.8830  -62.9680   -0.0770 C.3      15 GLL5        0.0000 
     26 CA         27.8970  -64.9160    0.1480 C.3      10 GLP5        0.0000 
     27 CA         22.8070  -64.4825    4.3000 C.3       5 GLC5        0.0000 
     28 CA         22.4860  -63.8830    2.4390 C.3      15 GLL5        0.0000 
     29 CA         23.1280  -65.0820    6.1610 C.3      10 GLP5        0.0000 
     30 CA         21.4220  -63.1115    3.5780 C.3       5 GLC5        0.0000 
     31 CA         20.3580  -62.3400    4.7170 C.3      10 GLP5        0.0000 
     32 CA         19.1730  -65.3130    3.8280 C.3       5 GLC5        0.0000 
     33 CA         19.5490  -64.9870    1.7590 C.3      15 GLL5        0.0000 
     34 CA         18.7970  -65.6390    5.8970 C.3      10 GLP5        0.0000 
     35 Zn         14.2890  -65.2220    3.5645 Zn        4 ZIC7        0.0000 
     36 Zn         15.0010  -64.1030    3.1330 Zn       14 ZIL7        0.0000 
     37 Zn         13.5770  -66.3410    3.9960 Zn        9 ZIP7        0.0000 
     38 N          14.7970  -63.2750    4.2795 N.am      2 SEC2        0.0000 
     39 N          15.0010  -64.1030    3.1330 N.am     12 SEL2        0.0000 
     40 N          14.5930  -62.4470    5.4260 N.am      7 SEP2        0.0000 
     41 N          13.6120  -64.4615    2.6345 N.am      2 SEC2        0.0000 
     42 N          12.2230  -64.8200    2.1360 N.am      7 SEP2        0.0000 
     43 N          16.3675  -61.5500    3.0395 N.am      2 SEC2        0.0000 
     44 N          16.4580  -62.4920    1.7820 N.am     12 SEL2        0.0000 
     45 N          16.2770  -60.6080    4.2970 N.am      7 SEP2        0.0000 
     46 N          13.6140  -66.0530   -2.1370 N.am      2 SEC2        0.0000 
     47 N          13.2930  -65.4720   -0.5610 N.am     12 SEL2        0.0000 
     48 N          13.9350  -66.6340   -3.7130 N.am      7 SEP2        0.0000 
     49 N          13.4120  -63.8585   -1.0695 N.am      2 SEC2        0.0000 
     50 N          13.5310  -62.2450   -1.5780 N.am      7 SEP2        0.0000 
     51 N          12.3145  -66.5305    0.3785 N.am      2 SEC2        0.0000 
     52 N          11.3360  -67.5890    1.3180 N.am      7 SEP2        0.0000 
     53 N          14.7795  -66.4125   -2.3610 N.am      2 SEC2        0.0000 
     54 N          15.6240  -66.1910   -1.0090 N.am     12 SEL2        0.0000 
     55 NZ         15.4965  -68.3600    1.3870 N.4       3 LYC4        0.0000 
     56 NZ         14.5090  -66.7050    1.2200 N.4      13 LYL4        0.0000 
     57 NZ         16.4840  -70.0150    1.5540 N.4       8 LYP4        0.0000 
     58 N          12.9225  -67.1470    1.2690 N.am      2 SEC2        0.0000 
     59 N          14.5090  -66.7050    1.2200 N.am     12 SEL2        0.0000 
     60 CA         22.3816  -60.2281    0.3861 C.3       5 GLC5        0.0000 
     61 CA         23.9560  -61.4690    0.1180 C.3      15 GLL5        0.0000 
     62 CA         20.2483  -64.8125   -2.5427 C.3       5 GLC5        0.0000 
     63 CA         21.7440  -63.6370   -1.1720 C.3      15 GLL5        0.0000 
     64 CA         19.5040  -65.6590   -4.0590 C.3      10 GLP5        0.0000 
     65 CA         21.2207  -65.8365   -0.4473 C.3       5 GLC5        0.0000 
     66 CA         20.2410  -64.2950   -0.8810 C.3      15 GLL5        0.0000 
     67 CA         21.4490  -67.7070    0.1320 C.3      10 GLP5        0.0000 
     68 CA         20.0024  -62.2597   -0.1881 C.3       5 GLC5        0.0000 
     69 CA         19.2270  -60.3250   -0.2670 C.3      10 GLP5        0.0000 
     70 CA         21.3197  -65.9477    0.5417 C.3       5 GLC5        0.0000 
     71 CA         20.5630  -64.4230    0.8080 C.3      15 GLL5        0.0000 
     72 CA         20.1638  -63.3243    2.3928 C.3       5 GLC5        0.0000 
     73 CA         19.1370  -62.4600    3.8340 C.3      10 GLP5        0.0000 
     74 CA         19.6273  -66.6623    1.8882 C.3       5 GLC5        0.0000 
     75 CA         20.3910  -68.2810    2.3260 C.3      10 GLP5        0.0000 
     76 CA         19.0003  -63.7518    2.6422 C.3       5 GLC5        0.0000 
@<TRIPOS>BOND
@<TRIPOS>SUBSTRUCTURE
     1 ALC1       19 GROUP        1 X    ALC  0     ROOT ALC X 1
     2 SEC2        1 GROUP        1 X    SEC  0     **** SEC X 2
     3 LYC4       55 GROUP        1 X    LYC  0     **** LYC X 4
     4 ZIC7       35 GROUP        1 X    ZIC  0     **** ZIC X 5
     5 GLC5        4 GROUP        1 X    GLC  0     **** GLC X 6
     6 ALP1       21 GROUP        1 Y    ALP  0     ROOT ALP Y 8
     7 SEP2        3 GROUP        1 Y    SEP  0     **** SEP Y 9
     8 LYP4       57 GROUP        1 Y    LYP  0     **** LYP Y 11
     9 ZIP7       37 GROUP        1 Y    ZIP  0     **** ZIP Y 12
    10 GLP5        6 GROUP        1 Y    GLP  0     **** GLP Y 13
    11 ALL1       20 GROUP        1 Z    ALL  0     ROOT ALL Z 15
    12 SEL2        2 GROUP        1 Z    SEL  0     **** SEL Z 16
    13 LYL4       56 GROUP        1 Z    LYL  0     **** LYL Z 18
    14 ZIL7       36 GROUP        1 Z    ZIL  0     **** ZIL Z 19
    15 GLL5        5 GROUP        1 Z    GLL  0     **** GLL Z 20
@<TRIPOS>SET

