#    Name: 3lq2_TDP_1_ligand
#    Modification time : Mon Mar 24 22:03:43 2014

@<TRIPOS>MOLECULE
3lq2_TDP_1_ligand
   42    43     1     0     0
SMALL
NO_CHARGES


@<TRIPOS>ATOM
      1 N1'        24.3550  -59.6140    1.5870 N.ar      1 TDP887      0.0000 
      2 C2'        24.1320  -58.7230    0.5550 C.ar      1 TDP887      0.0000 
      3 C2A        24.2420  -57.2720    0.8740 C.3       1 TDP887      0.0000 
      4 N3'        23.8250  -59.1140   -0.6860 N.ar      1 TDP887      0.0000 
      5 C4'        23.7250  -60.4800   -0.9610 C.ar      1 TDP887      0.0000 
      6 N4'        23.4320  -60.8050   -2.2050 N.pl3     1 TDP887      0.0000 
      7 C5'        23.9560  -61.4690    0.1180 C.ar      1 TDP887      0.0000 
      8 C6'        24.2660  -60.9720    1.3620 C.ar      1 TDP887      0.0000 
      9 C35        23.8830  -62.9680   -0.0770 C.3       1 TDP887      0.0000 
     10 N3         22.4710  -63.5100   -0.0770 N.pl3     1 TDP887      0.0000 
     11 C2         21.7440  -63.6370   -1.1720 C.2       1 TDP887      0.0000 
     12 S1         20.2410  -64.2950   -0.8810 S.3       1 TDP887      0.0000 
     13 C5         20.5630  -64.4230    0.8080 C.2       1 TDP887      0.0000 
     14 C4         21.8180  -63.9540    1.0950 C.2       1 TDP887      0.0000 
     15 C4A        22.4860  -63.8830    2.4390 C.3       1 TDP887      0.0000 
     16 C5A        19.5490  -64.9870    1.7590 C.3       1 TDP887      0.0000 
     17 C5B        18.1780  -65.1000    1.1420 C.3       1 TDP887      0.0000 
     18 O5G        17.1940  -64.8800    2.1940 O.3       1 TDP887      0.0000 
     19 P1         15.9390  -63.8730    2.0090 P.3       1 TDP887      0.0000 
     20 O11        15.2310  -64.3730    0.6470 O.3       1 TDP887      0.0000 
     21 O12        15.0010  -64.1030    3.1330 O.co2     1 TDP887      0.0000 
     22 O13        16.4580  -62.4920    1.7820 O.co2     1 TDP887      0.0000 
     23 P2         14.6880  -65.7750    0.0690 P.3       1 TDP887      0.0000 
     24 O21        13.2930  -65.4720   -0.5610 O.co2     1 TDP887      0.0000 
     25 O22        15.6240  -66.1910   -1.0090 O.co2     1 TDP887      0.0000 
     26 O23        14.5090  -66.7050    1.2200 O.co2     1 TDP887      0.0000 
     27 H          22.8716  -60.1492   -2.7107 H         1 TDP887      0.0000 
     28 H          23.7970  -61.6777   -2.5294 H         1 TDP887      0.0000 
     29 H          24.4370  -61.6310    2.1496 H         1 TDP887      0.0000 
     30 H          24.4600  -63.4639    0.7228 H         1 TDP887      0.0000 
     31 H          24.3708  -63.2314   -1.0316 H         1 TDP887      0.0000 
     32 H          21.8966  -63.4323   -2.0923 H         1 TDP887      0.0000 
     33 H          19.4903  -64.3469    2.6533 H         1 TDP887      0.0000 
     34 H          19.8766  -65.9835    2.0946 H         1 TDP887      0.0000 
     35 H          18.0679  -66.0904    0.7078 H         1 TDP887      0.0000 
     36 H          18.0822  -64.3533    0.3579 H         1 TDP887      0.0000 
     37 H          25.1538  -57.0333    1.2081 H         1 TDP887      0.0000 
     38 H          24.0648  -56.7010    0.0724 H         1 TDP887      0.0000 
     39 H          23.5897  -56.9965    1.5801 H         1 TDP887      0.0000 
     40 H          23.3324  -64.4150    2.4616 H         1 TDP887      0.0000 
     41 H          22.7235  -62.9437    2.6865 H         1 TDP887      0.0000 
     42 H          21.8974  -64.2376    3.1655 H         1 TDP887      0.0000 
@<TRIPOS>BOND
     1    2    1 ar   
     2    8    1 ar   
     3    3    2 1    
     4    4    2 ar   
     5   37    3 1    
     6   38    3 1    
     7   39    3 1    
     8    5    4 ar   
     9    6    5 1    
    10    7    5 ar   
    11   27    6 1    
    12   28    6 1    
    13    8    7 ar   
    14    9    7 1    
    15   29    8 1    
    16   10    9 1    
    17   30    9 1    
    18   31    9 1    
    19   11   10 2    
    20   14   10 1    
    21   12   11 1    
    22   32   11 1    
    23   13   12 1    
    24   14   13 2    
    25   16   13 1    
    26   15   14 1    
    27   40   15 1    
    28   41   15 1    
    29   42   15 1    
    30   17   16 1    
    31   33   16 1    
    32   34   16 1    
    33   18   17 1    
    34   35   17 1    
    35   36   17 1    
    36   19   18 1    
    37   20   19 1    
    38   21   19 ar   
    39   22   19 ar   
    40   23   20 1    
    41   24   23 ar   
    42   25   23 ar   
    43   26   23 ar   
@<TRIPOS>SUBSTRUCTURE
     1 TDP887      1 GROUP   
@<TRIPOS>SET

