#    Name: 3cot_STR_2_INTS_M
#    Modification time : Mon Mar 24 22:05:46 2014

@<TRIPOS>MOLECULE
3cot_STR_2_INTS_M
   64     0     6     0     0
SMALL
NO_CHARGES


@<TRIPOS>ATOM
      1 CA          0.9865   18.2545  -29.4065 C.3       2 GLC5        0.0000 
      2 CA          0.3000   19.9960  -30.6230 C.3       6 GLL5        0.0000 
      3 CA          1.6730   16.5130  -28.1900 C.3       4 GLP5        0.0000 
      4 CA         -1.0540   19.3930  -29.5110 C.3       2 GLC5        0.0000 
      5 CA         -2.4080   18.7900  -28.3990 C.3       4 GLP5        0.0000 
      6 CA          0.2280   22.0830  -30.2995 C.3       2 GLC5        0.0000 
      7 CA          0.1560   24.1700  -29.9760 C.3       4 GLP5        0.0000 
      8 N           1.1975   21.7230  -27.4985 N.am      1 SEC2        0.0000 
      9 N           0.5030   20.9490  -28.4270 N.am      5 SEL2        0.0000 
     10 N           1.8920   22.4970  -26.5700 N.am      3 SEP2        0.0000 
     11 CA          2.7925   20.8285  -28.1275 C.3       2 GLC5        0.0000 
     12 CA          2.4230   21.1890  -29.7970 C.3       6 GLL5        0.0000 
     13 CA          3.1620   20.4680  -26.4580 C.3       4 GLP5        0.0000 
     14 CA          6.1080   22.2095  -30.0910 C.3       2 GLC5        0.0000 
     15 CA          4.4950   21.5130  -31.1650 C.3       6 GLL5        0.0000 
     16 CA          7.7210   22.9060  -29.0170 C.3       4 GLP5        0.0000 
     17 CA          3.4405   23.2355  -31.0460 C.3       2 GLC5        0.0000 
     18 CA          2.3860   24.9580  -30.9270 C.3       4 GLP5        0.0000 
     19 CA          6.9080   20.5565  -30.6320 C.3       2 GLC5        0.0000 
     20 CA          5.4690   20.4480  -31.6620 C.3       6 GLL5        0.0000 
     21 CA          8.3470   20.6650  -29.6020 C.3       4 GLP5        0.0000 
     22 CA          5.4945   21.2700  -34.2425 C.3       2 GLC5        0.0000 
     23 CA          4.9580   19.7460  -32.9340 C.3       6 GLL5        0.0000 
     24 CA          6.0310   22.7940  -35.5510 C.3       4 GLP5        0.0000 
     25 CA          2.2495   19.4525  -35.5025 C.3       2 GLC5        0.0000 
     26 CA          3.0450   18.3570  -33.9120 C.3       6 GLL5        0.0000 
     27 CA          1.4540   20.5480  -37.0930 C.3       4 GLP5        0.0000 
     28 CA          3.8635   15.5930  -33.4215 C.3       2 GLC5        0.0000 
     29 CA          4.0660   17.2930  -34.4300 C.3       6 GLL5        0.0000 
     30 CA          3.6610   13.8930  -32.4130 C.3       4 GLP5        0.0000 
     31 CA          3.3935   17.2900  -36.5680 C.3       2 GLC5        0.0000 
     32 CA          2.7210   17.2870  -38.7060 C.3       4 GLP5        0.0000 
     33 CA          5.7700   15.6160  -33.2810 C.3       2 GLC5        0.0000 
     34 CA          6.6870   16.9310  -34.7280 C.3       6 GLL5        0.0000 
     35 CA          4.8530   14.3010  -31.8340 C.3       4 GLP5        0.0000 
     36 CA          6.6865   19.8435  -36.6890 C.3       2 GLC5        0.0000 
     37 CA          5.4050   18.8140  -35.9550 C.3       6 GLL5        0.0000 
     38 CA          7.9680   20.8730  -37.4230 C.3       4 GLP5        0.0000 
     39 CA          3.4295   19.6810  -36.5240 C.3       2 GLC5        0.0000 
     40 CA          4.0630   18.0505  -37.3305 C.3       2 GLC5        0.0000 
     41 CA          3.7680   22.4220  -33.9440 C.3       2 GLC5        0.0000 
     42 CA          2.0850   21.2110  -33.2860 C.3       6 GLL5        0.0000 
     43 CA          5.4510   23.6330  -34.6020 C.3       4 GLP5        0.0000 
     44 CA          1.8740   22.7480  -34.7645 C.3       2 GLC5        0.0000 
     45 CA          1.6630   24.2850  -36.2430 C.3       4 GLP5        0.0000 
     46 CA          1.7695   20.8795  -35.1895 C.3       2 GLC5        0.0000 
     47 CA          6.0910   13.5645  -34.3955 C.3       2 GLC5        0.0000 
     48 CA          6.2460   14.7990  -36.1300 C.3       6 GLL5        0.0000 
     49 CA          5.9360   12.3300  -32.6610 C.3       4 GLP5        0.0000 
     50 CA          5.0780   13.3555  -36.7795 C.3       2 GLC5        0.0000 
     51 CA          3.9100   11.9120  -37.4290 C.3       4 GLP5        0.0000 
     52 CA         -0.1955   18.0587  -31.2040 C.3       2 GLC5        0.0000 
     53 CA          1.1840   19.4210  -31.7510 C.3       6 GLL5        0.0000 
     54 CA         -1.1330   16.4090  -31.2210 C.3       4 GLP5        0.0000 
     55 CA          1.9245   22.6717  -30.7288 C.3       2 GLC5        0.0000 
     56 CA          1.1000   24.2630  -31.0700 C.3       4 GLP5        0.0000 
     57 CA          5.5940   22.5658  -32.4733 C.3       2 GLC5        0.0000 
     58 CA          6.2060   24.1510  -33.5330 C.3       4 GLP5        0.0000 
     59 CA          1.6913   22.4820  -31.9035 C.3       2 GLC5        0.0000 
     60 CA          2.3172   16.8705  -34.9935 C.3       2 GLC5        0.0000 
     61 CA          1.0790   15.9160  -35.8160 C.3       4 GLP5        0.0000 
     62 CA          7.9738   20.0460  -35.1220 C.3       2 GLC5        0.0000 
     63 CA          7.4070   19.0090  -33.7160 C.3       6 GLL5        0.0000 
     64 CA          8.2940   21.6610  -36.1840 C.3       4 GLP5        0.0000 
@<TRIPOS>BOND
@<TRIPOS>SUBSTRUCTURE
     1 SEC2        8 GROUP        1 X    SEC  0     ROOT SEC X 2
     2 GLC5        1 GROUP        1 X    GLC  0     **** GLC X 6
     3 SEP2       10 GROUP        1 Y    SEP  0     ROOT SEP Y 9
     4 GLP5        3 GROUP        1 Y    GLP  0     **** GLP Y 13
     5 SEL2        9 GROUP        1 Z    SEL  0     ROOT SEL Z 16
     6 GLL5        2 GROUP        1 Z    GLL  0     **** GLL Z 20
@<TRIPOS>SET

