#    Name: 3cot_STR_2_ligand
#    Modification time : Mon Mar 24 22:05:46 2014

@<TRIPOS>MOLECULE
3cot_STR_2_ligand
   53    56     1     0     0
SMALL
NO_CHARGES


@<TRIPOS>ATOM
      1 C1          1.1840   19.4210  -31.7510 C.3       1 STR1500     0.0000 
      2 C2          0.3000   19.9960  -30.6230 C.3       1 STR1500     0.0000 
      3 C3          1.0460   20.7270  -29.5210 C.2       1 STR1500     0.0000 
      4 O3          0.5030   20.9490  -28.4270 O.2       1 STR1500     0.0000 
      5 C4          2.4230   21.1890  -29.7970 C.2       1 STR1500     0.0000 
      6 C5          3.0750   20.9720  -30.9780 C.2       1 STR1500     0.0000 
      7 C6          4.4950   21.5130  -31.1650 C.3       1 STR1500     0.0000 
      8 C7          5.4690   20.4480  -31.6620 C.3       1 STR1500     0.0000 
      9 C8          4.9580   19.7460  -32.9340 C.3       1 STR1500     0.0000 
     10 C9          3.5430   19.1330  -32.6760 C.3       1 STR1500     0.0000 
     11 C10         2.4800   20.1910  -32.1880 C.3       1 STR1500     0.0000 
     12 C11         3.0450   18.3570  -33.9120 C.3       1 STR1500     0.0000 
     13 C12         4.0660   17.2930  -34.4300 C.3       1 STR1500     0.0000 
     14 C13         5.4770   17.8920  -34.6680 C.3       1 STR1500     0.0000 
     15 C14         5.9300   18.6330  -33.3990 C.3       1 STR1500     0.0000 
     16 C15         7.4070   19.0090  -33.7160 C.3       1 STR1500     0.0000 
     17 C16         7.9000   17.8530  -34.4040 C.3       1 STR1500     0.0000 
     18 C17         6.6870   16.9310  -34.7280 C.3       1 STR1500     0.0000 
     19 C18         5.4050   18.8140  -35.9550 C.3       1 STR1500     0.0000 
     20 C19         2.0850   21.2110  -33.2860 C.3       1 STR1500     0.0000 
     21 C20         6.8120   16.1750  -36.0560 C.2       1 STR1500     0.0000 
     22 O20         7.3660   16.6810  -37.0200 O.2       1 STR1500     0.0000 
     23 C21         6.2460   14.7990  -36.1300 C.3       1 STR1500     0.0000 
     24 H           0.5486   19.2835  -32.6656 H         1 STR1500     0.0000 
     25 H           1.4899   18.3794  -31.4671 H         1 STR1500     0.0000 
     26 H          -0.2812   19.1634  -30.1799 H         1 STR1500     0.0000 
     27 H          -0.4409   20.6819  -31.0791 H         1 STR1500     0.0000 
     28 H           2.8860   21.7073  -29.0149 H         1 STR1500     0.0000 
     29 H           4.8539   21.9104  -30.2083 H         1 STR1500     0.0000 
     30 H           4.4694   22.3406  -31.8837 H         1 STR1500     0.0000 
     31 H           5.6161   19.6984  -30.8806 H         1 STR1500     0.0000 
     32 H           6.4340   20.9125  -31.8791 H         1 STR1500     0.0000 
     33 H           4.8632   20.4727  -33.7231 H         1 STR1500     0.0000 
     34 H           3.6567   18.3964  -31.8564 H         1 STR1500     0.0000 
     35 H           2.8411   19.0634  -34.7229 H         1 STR1500     0.0000 
     36 H           2.1095   17.8457  -33.6636 H         1 STR1500     0.0000 
     37 H           3.6923   16.8784  -35.3656 H         1 STR1500     0.0000 
     38 H           4.1379   16.4925  -33.6945 H         1 STR1500     0.0000 
     39 H           5.9829   17.8465  -32.6102 H         1 STR1500     0.0000 
     40 H           7.9037   19.1785  -32.7868 H         1 STR1500     0.0000 
     41 H           7.3935   19.8804  -34.3318 H         1 STR1500     0.0000 
     42 H           8.5907   17.2754  -33.7973 H         1 STR1500     0.0000 
     43 H           8.3737   18.1056  -35.3477 H         1 STR1500     0.0000 
     44 H           6.5873   16.2394  -33.9022 H         1 STR1500     0.0000 
     45 H           6.2889   19.2339  -36.1610 H         1 STR1500     0.0000 
     46 H           5.1293   18.2984  -36.7663 H         1 STR1500     0.0000 
     47 H           4.7462   19.5579  -35.8426 H         1 STR1500     0.0000 
     48 H           2.8735   21.7362  -33.6060 H         1 STR1500     0.0000 
     49 H           1.6886   20.7606  -34.0860 H         1 STR1500     0.0000 
     50 H           1.4089   21.8695  -32.9553 H         1 STR1500     0.0000 
     51 H           6.3751   14.3925  -37.0345 H         1 STR1500     0.0000 
     52 H           6.6758   14.1845  -35.4684 H         1 STR1500     0.0000 
     53 H           5.2638   14.7909  -35.9424 H         1 STR1500     0.0000 
@<TRIPOS>BOND
     1    2    1 1    
     2   11    1 1    
     3   24    1 1    
     4   25    1 1    
     5    3    2 1    
     6   26    2 1    
     7   27    2 1    
     8    4    3 2    
     9    5    3 1    
    10    6    5 2    
    11   28    5 1    
    12    7    6 1    
    13   11    6 1    
    14    8    7 1    
    15   29    7 1    
    16   30    7 1    
    17    9    8 1    
    18   31    8 1    
    19   32    8 1    
    20   10    9 1    
    21   15    9 1    
    22   33    9 1    
    23   11   10 1    
    24   12   10 1    
    25   34   10 1    
    26   20   11 1    
    27   13   12 1    
    28   35   12 1    
    29   36   12 1    
    30   14   13 1    
    31   37   13 1    
    32   38   13 1    
    33   15   14 1    
    34   18   14 1    
    35   19   14 1    
    36   16   15 1    
    37   39   15 1    
    38   17   16 1    
    39   40   16 1    
    40   41   16 1    
    41   18   17 1    
    42   42   17 1    
    43   43   17 1    
    44   21   18 1    
    45   44   18 1    
    46   45   19 1    
    47   46   19 1    
    48   47   19 1    
    49   48   20 1    
    50   49   20 1    
    51   50   20 1    
    52   22   21 2    
    53   23   21 1    
    54   51   23 1    
    55   52   23 1    
    56   53   23 1    
@<TRIPOS>SUBSTRUCTURE
     1 STR1500     1 GROUP   
@<TRIPOS>SET

