#    Name: 3zrr_PXG_1_INTS_M
#    Modification time : Tue Mar 25 03:52:46 2014

@<TRIPOS>MOLECULE
3zrr_PXG_1_INTS_M
   70     0    12     0     0
SMALL
NO_CHARGES


@<TRIPOS>ATOM
      1 N         -24.1040  -24.2790  -20.0555 N.am      2 SEC2        0.0000 
      2 N         -23.5430  -23.3370  -19.3620 N.am     10 SEL2        0.0000 
      3 N         -24.6650  -25.2210  -20.7490 N.am      6 SEP2        0.0000 
      4 CA        -26.8335  -24.9260  -18.6140 C.3       4 GLC5        0.0000 
      5 CA        -25.2420  -23.9560  -17.6620 C.3      12 GLL5        0.0000 
      6 CA        -28.4250  -25.8960  -19.5660 C.3       8 GLP5        0.0000 
      7 CA        -26.0815  -22.5975  -16.1615 C.3       4 GLC5        0.0000 
      8 CA        -26.9210  -21.2390  -14.6610 C.3       8 GLP5        0.0000 
      9 CA        -25.1875  -21.7185  -15.9690 C.3       4 GLC5        0.0000 
     10 CA        -23.4540  -22.1980  -17.2770 C.3      12 GLL5        0.0000 
     11 O         -25.0970  -22.2435  -15.4865 O.2       1 ALC1        0.0000 
     12 O         -23.9720  -22.0350  -16.0350 O.2       9 ALL1        0.0000 
     13 O         -26.2220  -22.4520  -14.9380 O.2       5 ALP1        0.0000 
     14 CA        -22.2940  -23.1305  -21.6440 C.3       4 GLC5        0.0000 
     15 CA        -22.4670  -22.6390  -19.8080 C.3      12 GLL5        0.0000 
     16 CA        -22.1210  -23.6220  -23.4800 C.3       8 GLP5        0.0000 
     17 CA        -24.5440  -22.0595  -19.9695 C.3       4 GLC5        0.0000 
     18 CA        -26.6210  -21.4800  -20.1310 C.3       8 GLP5        0.0000 
     19 CA        -21.6090  -24.1140  -18.9845 C.3       4 GLC5        0.0000 
     20 CA        -20.7510  -25.5890  -18.1610 C.3       8 GLP5        0.0000 
     21 CA        -19.3745  -22.4675  -19.8590 C.3       4 GLC5        0.0000 
     22 CA        -20.6510  -20.8780  -19.5020 C.3      12 GLL5        0.0000 
     23 CA        -18.0980  -24.0570  -20.2160 C.3       8 GLP5        0.0000 
     24 CA        -22.3110  -19.8860  -19.3745 C.3       4 GLC5        0.0000 
     25 CA        -23.9710  -18.8940  -19.2470 C.3       8 GLP5        0.0000 
     26 N         -17.0955  -22.2915  -18.7370 N.am      2 SEC2        0.0000 
     27 N         -17.2570  -21.1510  -17.8830 N.am     10 SEL2        0.0000 
     28 N         -16.9340  -23.4320  -19.5910 N.am      6 SEP2        0.0000 
     29 N         -17.2420  -21.2130  -16.4010 N.am      2 SEC2        0.0000 
     30 N         -17.2270  -21.2750  -14.9190 N.am      6 SEP2        0.0000 
     31 N         -19.7030  -18.1890  -18.5495 N.am      2 SEC2        0.0000 
     32 N         -18.6380  -18.9970  -18.1990 N.am     10 SEL2        0.0000 
     33 N         -20.7680  -17.3810  -18.9000 N.am      6 SEP2        0.0000 
     34 N         -17.6405  -17.9950  -18.3060 N.am      2 SEC2        0.0000 
     35 N         -16.6430  -16.9930  -18.4130 N.am      6 SEP2        0.0000 
     36 N         -18.1190  -18.5150  -17.0305 N.am      2 SEC2        0.0000 
     37 N         -17.6000  -18.0330  -15.8620 N.am      6 SEP2        0.0000 
     38 N         -17.9565  -21.3080  -21.0725 N.am      2 SEC2        0.0000 
     39 N         -17.8840  -20.3040  -20.2210 N.am     10 SEL2        0.0000 
     40 N         -18.0290  -22.3120  -21.9240 N.am      6 SEP2        0.0000 
     41 N         -18.5175  -20.0155  -21.2625 N.am      2 SEC2        0.0000 
     42 N         -19.1510  -19.7270  -22.3040 N.am      6 SEP2        0.0000 
     43 CA        -22.8175  -19.6660  -18.0265 C.3       4 GLC5        0.0000 
     44 CA        -21.6640  -20.4380  -16.8060 C.3      12 GLL5        0.0000 
     45 CA        -21.4000  -22.4275  -16.3820 C.3       4 GLC5        0.0000 
     46 CA        -21.1360  -24.4170  -15.9580 C.3       8 GLP5        0.0000 
     47 N         -26.2795  -15.2915  -13.0475 N.am      2 SEC2        0.0000 
     48 N         -24.9310  -15.0380  -13.9230 N.am     10 SEL2        0.0000 
     49 N         -27.6280  -15.5450  -12.1720 N.am      6 SEP2        0.0000 
     50 CA        -24.8690  -19.3705  -13.9955 C.3       4 GLC5        0.0000 
     51 CA        -23.4420  -18.1470  -14.5810 C.3      12 GLL5        0.0000 
     52 CA        -26.2960  -20.5940  -13.4100 C.3       8 GLP5        0.0000 
     53 NZ        -26.3210  -16.1300  -12.3270 N.4       3 LYC4        0.0000 
     54 NZ        -25.0140  -16.7150  -12.4820 N.4      11 LYL4        0.0000 
     55 NZ        -28.4000  -16.5580  -11.8280 N.4       7 LYP4        0.0000 
     56 N         -26.4560  -17.2455  -12.0885 N.am      2 SEC2        0.0000 
     57 N         -25.0140  -16.7150  -12.4820 N.am     10 SEL2        0.0000 
     58 N         -27.8980  -17.7760  -11.6950 N.am      6 SEP2        0.0000 
     59 N         -26.3210  -16.1300  -12.3270 N.am      2 SEC2        0.0000 
     60 CA        -23.1595  -24.5207  -17.4055 C.3       4 GLC5        0.0000 
     61 CA        -24.0500  -23.1410  -18.1260 C.3      12 GLL5        0.0000 
     62 CA        -21.6730  -25.4930  -16.9170 C.3       8 GLP5        0.0000 
     63 CA        -25.3355  -22.1766  -18.8583 C.3       4 GLC5        0.0000 
     64 CA        -21.7579  -23.0840  -17.0958 C.3       4 GLC5        0.0000 
     65 CA        -22.5867  -15.6190  -12.4350 C.3       4 GLC5        0.0000 
     66 CA        -23.3620  -16.8080  -14.1720 C.3      12 GLL5        0.0000 
     67 CA        -22.3900  -14.8000  -10.5920 C.3       8 GLP5        0.0000 
     68 CA        -21.1020  -19.5092  -13.7877 C.3       4 GLC5        0.0000 
     69 CA        -21.2050  -17.9900  -15.4310 C.3      12 GLL5        0.0000 
     70 CA        -20.4220  -20.6490  -12.2480 C.3       8 GLP5        0.0000 
@<TRIPOS>BOND
@<TRIPOS>SUBSTRUCTURE
     1 ALC1       11 GROUP        1 X    ALC  0     ROOT ALC X 1
     2 SEC2        1 GROUP        1 X    SEC  0     **** SEC X 2
     3 LYC4       53 GROUP        1 X    LYC  0     **** LYC X 4
     4 GLC5        4 GROUP        1 X    GLC  0     **** GLC X 6
     5 ALP1       13 GROUP        1 Y    ALP  0     ROOT ALP Y 8
     6 SEP2        3 GROUP        1 Y    SEP  0     **** SEP Y 9
     7 LYP4       55 GROUP        1 Y    LYP  0     **** LYP Y 11
     8 GLP5        6 GROUP        1 Y    GLP  0     **** GLP Y 13
     9 ALL1       12 GROUP        1 Z    ALL  0     ROOT ALL Z 15
    10 SEL2        2 GROUP        1 Z    SEL  0     **** SEL Z 16
    11 LYL4       54 GROUP        1 Z    LYL  0     **** LYL Z 18
    12 GLL5        5 GROUP        1 Z    GLL  0     **** GLL Z 20
@<TRIPOS>SET

