#    Name: 3zrr_PXG_1_ligand
#    Modification time : Tue Mar 25 03:52:46 2014

@<TRIPOS>MOLECULE
3zrr_PXG_1_ligand
   39    40     1     0     0
SMALL
NO_CHARGES


@<TRIPOS>ATOM
      1 N1        -23.5430  -23.3370  -19.3620 N.ar      1 PXG470      0.0000 
      2 C2        -24.0500  -23.1410  -18.1260 C.ar      1 PXG470      0.0000 
      3 C2A       -25.2420  -23.9560  -17.6620 C.3       1 PXG470      0.0000 
      4 C3        -23.4540  -22.1980  -17.2770 C.ar      1 PXG470      0.0000 
      5 O3        -23.9720  -22.0350  -16.0350 O.3       1 PXG470      0.0000 
      6 C5        -21.8570  -21.6720  -18.9800 C.ar      1 PXG470      0.0000 
      7 C6        -22.4670  -22.6390  -19.8080 C.ar      1 PXG470      0.0000 
      8 C5A       -20.6510  -20.8780  -19.5020 C.3       1 PXG470      0.0000 
      9 OP4       -19.5120  -21.2450  -18.7200 O.3       1 PXG470      0.0000 
     10 P         -18.2010  -20.3520  -18.7400 P.3       1 PXG470      0.0000 
     11 OP1       -17.2570  -21.1510  -17.8830 O.co2     1 PXG470      0.0000 
     12 OP2       -18.6380  -18.9970  -18.1990 O.co2     1 PXG470      0.0000 
     13 OP3       -17.8840  -20.3040  -20.2210 O.co2     1 PXG470      0.0000 
     14 C4        -22.3510  -21.4620  -17.6970 C.ar      1 PXG470      0.0000 
     15 C4A       -21.6640  -20.4380  -16.8060 C.3       1 PXG470      0.0000 
     16 C7        -24.5180  -16.1430  -13.4850 C.2       1 PXG470      0.0000 
     17 C8        -23.3620  -16.8080  -14.1720 C.ar      1 PXG470      0.0000 
     18 O2        -24.9310  -15.0380  -13.9230 O.co2     1 PXG470      0.0000 
     19 C9        -23.4420  -18.1470  -14.5810 C.ar      1 PXG470      0.0000 
     20 C10       -22.3590  -18.7490  -15.2240 C.ar      1 PXG470      0.0000 
     21 C11       -21.2050  -17.9900  -15.4310 C.ar      1 PXG470      0.0000 
     22 C12       -21.1190  -16.6550  -15.0160 C.ar      1 PXG470      0.0000 
     23 C13       -22.2050  -16.0680  -14.3840 C.ar      1 PXG470      0.0000 
     24 O8        -25.0140  -16.7150  -12.4820 O.co2     1 PXG470      0.0000 
     25 N9        -22.4160  -20.0420  -15.6340 N.pl3     1 PXG470      0.0000 
     26 H         -22.0768  -22.7979  -20.7494 H         1 PXG470      0.0000 
     27 H         -20.8855  -19.8199  -19.4107 H         1 PXG470      0.0000 
     28 H         -20.5213  -21.1243  -20.5534 H         1 PXG470      0.0000 
     29 H         -21.4244  -19.5477  -17.4366 H         1 PXG470      0.0000 
     30 H         -20.6718  -20.8580  -16.5110 H         1 PXG470      0.0000 
     31 H         -24.2995  -18.6829  -14.4060 H         1 PXG470      0.0000 
     32 H         -20.3902  -18.4243  -15.9038 H         1 PXG470      0.0000 
     33 H         -20.2608  -16.1235  -15.1803 H         1 PXG470      0.0000 
     34 H         -22.1556  -15.0901  -14.0733 H         1 PXG470      0.0000 
     35 H         -22.9654  -20.7512  -15.1543 H         1 PXG470      0.0000 
     36 H         -25.0447  -24.9363  -17.6630 H         1 PXG470      0.0000 
     37 H         -25.5183  -23.7136  -16.7320 H         1 PXG470      0.0000 
     38 H         -26.0387  -23.8168  -18.2501 H         1 PXG470      0.0000 
     39 H         -24.8439  -22.5243  -16.0521 H         1 PXG470      0.0000 
@<TRIPOS>BOND
     1    2    1 ar   
     2    7    1 ar   
     3    3    2 1    
     4    4    2 ar   
     5   36    3 1    
     6   37    3 1    
     7   38    3 1    
     8    5    4 1    
     9   14    4 ar   
    10   39    5 1    
    11    7    6 ar   
    12    8    6 1    
    13   14    6 ar   
    14   26    7 1    
    15    9    8 1    
    16   27    8 1    
    17   28    8 1    
    18   10    9 1    
    19   11   10 ar   
    20   12   10 ar   
    21   13   10 ar   
    22   15   14 1    
    23   25   15 1    
    24   29   15 1    
    25   30   15 1    
    26   17   16 1    
    27   18   16 ar   
    28   24   16 ar   
    29   19   17 ar   
    30   23   17 ar   
    31   20   19 ar   
    32   31   19 1    
    33   21   20 ar   
    34   25   20 1    
    35   22   21 ar   
    36   32   21 1    
    37   23   22 ar   
    38   33   22 1    
    39   34   23 1    
    40   35   25 1    
@<TRIPOS>SUBSTRUCTURE
     1 PXG470      1 GROUP   
@<TRIPOS>SET

