#    Name: 4kp5_E1F_1_INTS_M
#    Modification time : Tue Mar 25 08:15:29 2014

@<TRIPOS>MOLECULE
4kp5_E1F_1_INTS_M
   48     0    12     0     0
SMALL
NO_CHARGES


@<TRIPOS>ATOM
      1 N          21.7300    3.2455    8.2940 N.am      2 SEC2        0.0000 
      2 N          22.9710    2.5690    8.5320 N.am     10 SEL2        0.0000 
      3 N          20.4890    3.9220    8.0560 N.am      6 SEP2        0.0000 
      4 CA         30.3305   11.9255    8.8230 C.3       4 GLC5        0.0000 
      5 CA         28.3700   12.2560    9.7690 C.3      12 GLL5        0.0000 
      6 CA         32.2910   11.5950    7.8770 C.3       8 GLP5        0.0000 
      7 CA         27.8455    3.0845    8.2110 C.3       4 GLC5        0.0000 
      8 CA         25.9860    3.2770    7.6250 C.3      12 GLL5        0.0000 
      9 CA         29.7050    2.8920    8.7970 C.3       8 GLP5        0.0000 
     10 CA         26.8895    4.6220    6.3700 C.3       4 GLC5        0.0000 
     11 CA         27.7930    5.9670    5.1150 C.3       8 GLP5        0.0000 
     12 CA         26.3770    1.7260    7.2185 C.3       4 GLC5        0.0000 
     13 CA         26.7680    0.1750    6.8120 C.3       8 GLP5        0.0000 
     14 CA         25.4765    3.3560    5.7690 C.3       4 GLC5        0.0000 
     15 CA         24.9670    3.4350    3.9130 C.3       8 GLP5        0.0000 
     16 CA         28.2110    4.0420    9.0705 C.3       4 GLC5        0.0000 
     17 CA         26.7170    5.1920    9.3440 C.3      12 GLL5        0.0000 
     18 CA         27.2550    5.5795    7.2295 C.3       4 GLC5        0.0000 
     19 CA         22.6910    4.9585   12.0265 C.3       4 GLC5        0.0000 
     20 CA         24.7210    4.4690   11.2300 C.3      12 GLL5        0.0000 
     21 CA         20.6610    5.4480   12.8230 C.3       8 GLP5        0.0000 
     22 O          21.3665    2.3060   10.7020 O.2       1 ALC1        0.0000 
     23 O          22.7700    2.3350   11.0670 O.2       9 ALL1        0.0000 
     24 O          19.9630    2.2770   10.3370 O.2       5 ALP1        0.0000 
     25 Zn         22.8785    1.5465   11.6590 Zn        3 ZIC7        0.0000 
     26 Zn         22.7700    2.3350   11.0670 Zn       11 ZIL7        0.0000 
     27 Zn         22.9870    0.7580   12.2510 Zn        7 ZIP7        0.0000 
     28 CA         31.5985    7.8860    9.1505 C.3       4 GLC5        0.0000 
     29 CA         29.8370    8.5850   10.0550 C.3      12 GLL5        0.0000 
     30 CA         33.3600    7.1870    8.2460 C.3       8 GLP5        0.0000 
     31 CA         28.6570    9.8610    7.7340 C.3       4 GLC5        0.0000 
     32 CA         28.7270    9.9320    9.7700 C.3      12 GLL5        0.0000 
     33 CA         28.5870    9.7900    5.6980 C.3       8 GLP5        0.0000 
     34 CA         25.5065    9.2320    8.4880 C.3       4 GLC5        0.0000 
     35 CA         26.6760   10.8090    8.9580 C.3      12 GLL5        0.0000 
     36 CA         24.3370    7.6550    8.0180 C.3       8 GLP5        0.0000 
     37 CA         26.8448    2.8000   10.0328 C.3       4 GLC5        0.0000 
     38 CA         25.8200    4.1040    9.0430 C.3      12 GLL5        0.0000 
     39 CA         28.3710    1.6330   10.5510 C.3       8 GLP5        0.0000 
     40 CA         25.2456    6.6040    9.3569 C.3       4 GLC5        0.0000 
     41 CA         26.6540    5.8560   10.5470 C.3      12 GLL5        0.0000 
     42 CA         24.7190    5.1581    8.0740 C.3       4 GLC5        0.0000 
     43 CA         24.0780    6.5560    6.9880 C.3       8 GLP5        0.0000 
     44 CA         30.7865   10.4268    8.8947 C.3       4 GLC5        0.0000 
     45 CA         27.7368   10.6202    7.3930 C.3       4 GLC5        0.0000 
     46 CA         27.0970   12.0920    9.2180 C.3      12 GLL5        0.0000 
     47 CA         25.0697   11.4207    8.9020 C.3       4 GLC5        0.0000 
     48 CA         23.2530   11.3910    8.7160 C.3       8 GLP5        0.0000 
@<TRIPOS>BOND
@<TRIPOS>SUBSTRUCTURE
     1 ALC1       22 GROUP        1 X    ALC  0     ROOT ALC X 1
     2 SEC2        1 GROUP        1 X    SEC  0     **** SEC X 2
     3 ZIC7       25 GROUP        1 X    ZIC  0     **** ZIC X 5
     4 GLC5        4 GROUP        1 X    GLC  0     **** GLC X 6
     5 ALP1       24 GROUP        1 Y    ALP  0     ROOT ALP Y 8
     6 SEP2        3 GROUP        1 Y    SEP  0     **** SEP Y 9
     7 ZIP7       27 GROUP        1 Y    ZIP  0     **** ZIP Y 12
     8 GLP5        6 GROUP        1 Y    GLP  0     **** GLP Y 13
     9 ALL1       23 GROUP        1 Z    ALL  0     ROOT ALL Z 15
    10 SEL2        2 GROUP        1 Z    SEL  0     **** SEL Z 16
    11 ZIL7       26 GROUP        1 Z    ZIL  0     **** ZIL Z 19
    12 GLL5        5 GROUP        1 Z    GLL  0     **** GLL Z 20
@<TRIPOS>SET

