#    Name: 4kp5_E1F_1_ligand
#    Modification time : Tue Mar 25 08:15:30 2014

@<TRIPOS>MOLECULE
4kp5_E1F_1_ligand
   30    31     1     0     0
SMALL
NO_CHARGES


@<TRIPOS>ATOM
      1 O18        22.9710    2.5690    8.5320 O.2       1 E1F302      0.0000 
      2 C13        28.3700   12.2560    9.7690 C.ar      1 E1F302      0.0000 
      3 C1         26.6540    5.8560   10.5470 C.ar      1 E1F302      0.0000 
      4 C2         25.8200    4.1040    9.0430 C.ar      1 E1F302      0.0000 
      5 CL1        25.9860    3.2770    7.6250 Cl        1 E1F302      0.0000 
      6 C21        26.7170    5.1920    9.3440 C.ar      1 E1F302      0.0000 
      7 C5         25.6230    5.5820   11.4460 C.ar      1 E1F302      0.0000 
      8 C4         24.7210    4.4690   11.2300 C.ar      1 E1F302      0.0000 
      9 C3         24.8170    3.8300    9.9860 C.ar      1 E1F302      0.0000 
     10 S16        23.7370    2.3760    9.8330 S.o2      1 E1F302      0.0000 
     11 N19        22.7700    2.3350   11.0670 N.pl3     1 E1F302      0.0000 
     12 O17        24.6950    1.1760    9.8600 O.2       1 E1F302      0.0000 
     13 C6         27.6660    6.9460   10.7130 C.2       1 E1F302      0.0000 
     14 O12        27.5500    7.5510   11.7800 O.2       1 E1F302      0.0000 
     15 C7         28.6650    7.2000    9.5850 C.3       1 E1F302      0.0000 
     16 S8         29.8370    8.5850   10.0550 S.3       1 E1F302      0.0000 
     17 C9         28.7270    9.9320    9.7700 C.ar      1 E1F302      0.0000 
     18 N11        27.4710    9.7500    9.2450 N.ar      1 E1F302      0.0000 
     19 C14        26.6760   10.8090    8.9580 C.ar      1 E1F302      0.0000 
     20 C15        27.0970   12.0920    9.2180 C.ar      1 E1F302      0.0000 
     21 N10        29.1720   11.1950   10.0630 N.ar      1 E1F302      0.0000 
     22 H          28.7043   13.2296    9.9561 H         1 E1F302      0.0000 
     23 H          27.4083    5.4555    8.6254 H         1 E1F302      0.0000 
     24 H          25.4822    6.1631   12.2788 H         1 E1F302      0.0000 
     25 H          24.0828    4.1935   11.9337 H         1 E1F302      0.0000 
     26 H          21.9130    2.8413   10.9714 H         1 E1F302      0.0000 
     27 H          28.2377    7.5897    8.6978 H         1 E1F302      0.0000 
     28 H          29.3470    6.4080    9.4141 H         1 E1F302      0.0000 
     29 H          25.7358   10.6593    8.5364 H         1 E1F302      0.0000 
     30 H          26.5127   12.8959    9.0208 H         1 E1F302      0.0000 
@<TRIPOS>BOND
     1   10    1 2    
     2   20    2 ar   
     3   21    2 ar   
     4   22    2 1    
     5    6    3 ar   
     6    7    3 ar   
     7   13    3 1    
     8    5    4 1    
     9    6    4 ar   
    10    9    4 ar   
    11   23    6 1    
    12    8    7 ar   
    13   24    7 1    
    14    9    8 ar   
    15   25    8 1    
    16   10    9 1    
    17   11   10 1    
    18   12   10 2    
    19   26   11 1    
    20   14   13 2    
    21   15   13 1    
    22   16   15 1    
    23   27   15 1    
    24   28   15 1    
    25   17   16 1    
    26   18   17 ar   
    27   21   17 ar   
    28   19   18 ar   
    29   20   19 ar   
    30   29   19 1    
    31   30   20 1    
@<TRIPOS>SUBSTRUCTURE
     1 E1F302      1 GROUP   
@<TRIPOS>SET

