#    Name: 2ou5_FMN_1_INTS_M
#    Modification time : Mon Mar 24 17:50:10 2014

@<TRIPOS>MOLECULE
2ou5_FMN_1_INTS_M
   83     0    12     0     0
SMALL
NO_CHARGES


@<TRIPOS>ATOM
      1 N          35.7020   42.9070   81.1160 N.am      2 SEC2        0.0000 
      2 N          34.1550   43.3890   81.2460 N.am     10 SEL2        0.0000 
      3 N          37.2490   42.4250   80.9860 N.am      6 SEP2        0.0000 
      4 N          34.9685   44.4035   81.1540 N.am      2 SEC2        0.0000 
      5 N          35.7820   45.4180   81.0620 N.am      6 SEP2        0.0000 
      6 O          32.1320   45.2000   80.0565 O.2       1 ALC1        0.0000 
      7 O          32.1320   43.6530   80.2410 O.2       9 ALL1        0.0000 
      8 O          32.1320   46.7470   79.8720 O.2       5 ALP1        0.0000 
      9 N          29.9015   43.3320   77.5300 N.am      2 SEC2        0.0000 
     10 N          30.3710   43.7770   78.9010 N.am     10 SEL2        0.0000 
     11 N          29.4320   42.8870   76.1590 N.am      6 SEP2        0.0000 
     12 CA         30.5335   40.6945   77.5415 C.3       4 GLC5        0.0000 
     13 CA         29.5630   39.7120   79.1680 C.3      12 GLL5        0.0000 
     14 CA         31.5040   41.6770   75.9150 C.3       8 GLP5        0.0000 
     15 CA         26.3380   35.4740   77.4415 C.3       4 GLC5        0.0000 
     16 CA         27.1140   37.1200   77.9030 C.3      12 GLL5        0.0000 
     17 CA         25.5620   33.8280   76.9800 C.3       8 GLP5        0.0000 
     18 CA         30.5030   36.4110   77.0030 C.3       4 GLC5        0.0000 
     19 CA         29.5220   35.5680   78.4140 C.3      12 GLL5        0.0000 
     20 CA         31.4840   37.2540   75.5920 C.3       8 GLP5        0.0000 
     21 CA         28.7815   34.0245   77.6390 C.3       4 GLC5        0.0000 
     22 CA         28.0410   32.4810   76.8640 C.3       8 GLP5        0.0000 
     23 CA         30.6375   34.0490   78.4965 C.3       4 GLC5        0.0000 
     24 CA         31.7530   32.5300   78.5790 C.3       8 GLP5        0.0000 
     25 CA         30.9775   37.3830   77.6130 C.3       4 GLC5        0.0000 
     26 CA         30.4710   37.5120   79.6340 C.3      12 GLL5        0.0000 
     27 CA         32.0345   36.9985   81.7860 C.3       4 GLC5        0.0000 
     28 CA         32.6990   38.7630   81.0700 C.3      12 GLL5        0.0000 
     29 CA         31.3700   35.2340   82.5020 C.3       8 GLP5        0.0000 
     30 N          33.4635   36.4130   79.1355 N.am      2 SEC2        0.0000 
     31 N          33.7280   37.9000   79.1410 N.am     10 SEL2        0.0000 
     32 N          33.1990   34.9260   79.1300 N.am      6 SEP2        0.0000 
     33 O          33.2290   38.7280   78.1605 O.2       1 ALC1        0.0000 
     34 O          33.7280   37.9000   79.1410 O.2       9 ALL1        0.0000 
     35 O          32.7300   39.5560   77.1800 O.2       5 ALP1        0.0000 
     36 N          36.3290   41.5270   81.2305 N.am      2 SEC2        0.0000 
     37 N          35.4090   40.6290   81.4750 N.am     10 SEL2        0.0000 
     38 N          37.6025   40.8980   80.9050 N.am      2 SEC2        0.0000 
     39 N          37.9560   39.3710   80.8240 N.am     10 SEL2        0.0000 
     40 N          38.1725   37.7510   80.5650 N.am      2 SEC2        0.0000 
     41 N          38.3890   36.1310   80.3060 N.am      6 SEP2        0.0000 
     42 NZ         38.4100   41.7290   81.2355 N.4       3 LYC4        0.0000 
     43 NZ         39.5710   41.0330   81.4850 N.4      11 LYL4        0.0000 
     44 NZ         37.2490   42.4250   80.9860 N.4       7 LYP4        0.0000 
     45 N          40.6550   41.8815   81.1140 N.am      2 SEC2        0.0000 
     46 N          39.5710   41.0330   81.4850 N.am     10 SEL2        0.0000 
     47 N          41.7390   42.7300   80.7430 N.am      6 SEP2        0.0000 
     48 N          38.4100   41.7290   81.2355 N.am      2 SEC2        0.0000 
     49 N          39.1050   37.3440   81.1940 N.am      2 SEC2        0.0000 
     50 N          39.8210   38.5570   82.0820 N.am     10 SEL2        0.0000 
     51 NZ         39.6155   39.5800   78.4860 N.4       3 LYC4        0.0000 
     52 NZ         40.2800   39.4270   79.8310 N.4      11 LYL4        0.0000 
     53 NZ         40.1450   39.9140   76.5880 N.4       7 LYP4        0.0000 
     54 NZ         40.1525   38.0240   79.3255 N.4       3 LYC4        0.0000 
     55 NZ         38.9840   35.9020   79.1480 N.4       7 LYP4        0.0000 
     56 N          39.6155   39.5800   78.4860 N.am      2 SEC2        0.0000 
     57 N          40.2800   39.4270   79.8310 N.am     10 SEL2        0.0000 
     58 N          38.9510   39.7330   77.1410 N.am      6 SEP2        0.0000 
     59 N          40.7630   39.5970   78.5865 N.am      2 SEC2        0.0000 
     60 N          41.2460   39.7670   77.3420 N.am      6 SEP2        0.0000 
     61 N          40.1525   38.0240   79.3255 N.am      2 SEC2        0.0000 
     62 N          40.0250   36.6210   78.8200 N.am      6 SEP2        0.0000 
     63 CA         27.9900   40.9423   78.3117 C.3       4 GLC5        0.0000 
     64 CA         28.4430   39.1070   78.6390 C.3      12 GLL5        0.0000 
     65 CA         26.9770   42.4750   77.7200 C.3       8 GLP5        0.0000 
     66 CA         27.3093   36.4008   79.9278 C.3       4 GLC5        0.0000 
     67 CA         28.3070   37.7210   78.6120 C.3      12 GLL5        0.0000 
     68 CA         26.9080   35.3810   81.5980 C.3       8 GLP5        0.0000 
     69 CA         27.0228   38.6820   76.8736 C.3       4 GLC5        0.0000 
     70 CA         26.3010   39.5970   75.4830 C.3       8 GLP5        0.0000 
     71 CA         29.3254   37.5129   77.0064 C.3       4 GLC5        0.0000 
     72 CA         30.1290   37.8640   75.3380 C.3       8 GLP5        0.0000 
     73 CA         28.1677   35.8083   80.1755 C.3       4 GLC5        0.0000 
     74 CA         29.3330   36.9030   79.0920 C.3      12 GLL5        0.0000 
     75 CA         30.6596   36.0539   80.8477 C.3       4 GLC5        0.0000 
     76 CA         29.9608   38.5106   77.3144 C.3       4 GLC5        0.0000 
     77 CA         30.5820   38.9050   79.6780 C.3      12 GLL5        0.0000 
     78 CA         35.5918   38.8035   78.9110 C.3       4 GLC5        0.0000 
     79 CA         34.0030   38.7060   80.2480 C.3      12 GLL5        0.0000 
     80 CA         36.5580   39.1430   77.1810 C.3       8 GLP5        0.0000 
     81 CA         36.8453   40.8742   80.7520 C.3       4 GLC5        0.0000 
     82 CA         35.7410   39.3360   81.9550 C.3      12 GLL5        0.0000 
     83 CA         37.1950   42.4770   79.4890 C.3       8 GLP5        0.0000 
@<TRIPOS>BOND
@<TRIPOS>SUBSTRUCTURE
     1 ALC1        6 GROUP        1 X    ALC  0     ROOT ALC X 1
     2 SEC2        1 GROUP        1 X    SEC  0     **** SEC X 2
     3 LYC4       42 GROUP        1 X    LYC  0     **** LYC X 4
     4 GLC5       12 GROUP        1 X    GLC  0     **** GLC X 6
     5 ALP1        8 GROUP        1 Y    ALP  0     ROOT ALP Y 8
     6 SEP2        3 GROUP        1 Y    SEP  0     **** SEP Y 9
     7 LYP4       44 GROUP        1 Y    LYP  0     **** LYP Y 11
     8 GLP5       14 GROUP        1 Y    GLP  0     **** GLP Y 13
     9 ALL1        7 GROUP        1 Z    ALL  0     ROOT ALL Z 15
    10 SEL2        2 GROUP        1 Z    SEL  0     **** SEL Z 16
    11 LYL4       43 GROUP        1 Z    LYL  0     **** LYL Z 18
    12 GLL5       13 GROUP        1 Z    GLL  0     **** GLL Z 20
@<TRIPOS>SET

