#    Name: 2ou5_FMN_1_ligand
#    Modification time : Mon Mar 24 17:50:10 2014

@<TRIPOS>MOLECULE
2ou5_FMN_1_ligand
   50    52     1     0     0
SMALL
NO_CHARGES


@<TRIPOS>ATOM
      1 N1         32.9530   41.5030   80.7570 N.2       1 FMN300      0.0000 
      2 C2         33.1280   42.8670   80.7610 C.2       1 FMN300      0.0000 
      3 O2         34.1550   43.3890   81.2460 O.2       1 FMN300      0.0000 
      4 N3         32.1320   43.6530   80.2410 N.am      1 FMN300      0.0000 
      5 C4         30.9740   43.0960   79.7130 C.2       1 FMN300      0.0000 
      6 O4         30.3710   43.7770   78.9010 O.2       1 FMN300      0.0000 
      7 C4A        30.8010   41.7000   79.7060 C.2       1 FMN300      0.0000 
      8 N5         29.6660   41.0950   79.1860 N.2       1 FMN300      0.0000 
      9 C5A        29.5630   39.7120   79.1680 C.ar      1 FMN300      0.0000 
     10 C6         28.4430   39.1070   78.6390 C.ar      1 FMN300      0.0000 
     11 C7         28.3070   37.7210   78.6120 C.ar      1 FMN300      0.0000 
     12 C7M        27.1140   37.1200   77.9030 C.3       1 FMN300      0.0000 
     13 C8         29.3330   36.9030   79.0920 C.ar      1 FMN300      0.0000 
     14 C8M        29.5220   35.5680   78.4140 C.3       1 FMN300      0.0000 
     15 C9         30.4710   37.5120   79.6340 C.ar      1 FMN300      0.0000 
     16 C9A        30.5820   38.9050   79.6780 C.ar      1 FMN300      0.0000 
     17 N10        31.6980   39.5230   80.2290 N.pl3     1 FMN300      0.0000 
     18 C10        31.8200   40.9040   80.2160 C.2       1 FMN300      0.0000 
     19 C1'        32.6990   38.7630   81.0700 C.3       1 FMN300      0.0000 
     20 C2'        34.0030   38.7060   80.2480 C.3       1 FMN300      0.0000 
     21 O2'        33.7280   37.9000   79.1410 O.3       1 FMN300      0.0000 
     22 C3'        35.2480   38.2220   81.0340 C.3       1 FMN300      0.0000 
     23 O3'        35.0060   37.0150   81.7930 O.3       1 FMN300      0.0000 
     24 C4'        35.7410   39.3360   81.9550 C.3       1 FMN300      0.0000 
     25 O4'        35.4090   40.6290   81.4750 O.3       1 FMN300      0.0000 
     26 C5'        37.2500   39.2070   82.0750 C.3       1 FMN300      0.0000 
     27 O5'        37.9560   39.3710   80.8240 O.3       1 FMN300      0.0000 
     28 P          39.4990   39.5990   81.0550 P.3       1 FMN300      0.0000 
     29 O1P        39.5710   41.0330   81.4850 O.co2     1 FMN300      0.0000 
     30 O2P        39.8210   38.5570   82.0820 O.co2     1 FMN300      0.0000 
     31 O3P        40.2800   39.4270   79.8310 O.co2     1 FMN300      0.0000 
     32 H          32.2382   44.6885   80.2382 H         1 FMN300      0.0000 
     33 H          27.6773   39.6944   78.2489 H         1 FMN300      0.0000 
     34 H          31.2341   36.9271   80.0040 H         1 FMN300      0.0000 
     35 H          32.3535   37.7652   81.2463 H         1 FMN300      0.0000 
     36 H          32.8861   39.2849   81.9858 H         1 FMN300      0.0000 
     37 H          34.2020   39.7407   79.9164 H         1 FMN300      0.0000 
     38 H          36.0431   38.0494   80.2932 H         1 FMN300      0.0000 
     39 H          35.3248   39.1554   82.9424 H         1 FMN300      0.0000 
     40 H          37.4713   38.2129   82.5237 H         1 FMN300      0.0000 
     41 H          37.5965   39.9550   82.8227 H         1 FMN300      0.0000 
     42 H          27.0946   37.3669   76.9342 H         1 FMN300      0.0000 
     43 H          27.1179   36.1212   77.9509 H         1 FMN300      0.0000 
     44 H          26.2506   37.4292   78.3016 H         1 FMN300      0.0000 
     45 H          29.7244   35.6714   77.4402 H         1 FMN300      0.0000 
     46 H          30.2768   35.0504   78.8169 H         1 FMN300      0.0000 
     47 H          28.7043   34.9966   78.4844 H         1 FMN300      0.0000 
     48 H          33.4124   38.5318   78.4330 H         1 FMN300      0.0000 
     49 H          35.6459   36.3427   81.4208 H         1 FMN300      0.0000 
     50 H          34.4140   40.6874   81.5562 H         1 FMN300      0.0000 
@<TRIPOS>BOND
     1    2    1 1    
     2   18    1 2    
     3    3    2 2    
     4    4    2 am   
     5    5    4 am   
     6   32    4 1    
     7    6    5 2    
     8    7    5 1    
     9    8    7 2    
    10   18    7 1    
    11    9    8 1    
    12   10    9 ar   
    13   16    9 ar   
    14   11   10 ar   
    15   33   10 1    
    16   12   11 1    
    17   13   11 ar   
    18   42   12 1    
    19   43   12 1    
    20   44   12 1    
    21   14   13 1    
    22   15   13 ar   
    23   45   14 1    
    24   46   14 1    
    25   47   14 1    
    26   16   15 ar   
    27   34   15 1    
    28   17   16 1    
    29   18   17 1    
    30   19   17 1    
    31   20   19 1    
    32   35   19 1    
    33   36   19 1    
    34   21   20 1    
    35   22   20 1    
    36   37   20 1    
    37   48   21 1    
    38   23   22 1    
    39   24   22 1    
    40   38   22 1    
    41   49   23 1    
    42   25   24 1    
    43   26   24 1    
    44   39   24 1    
    45   50   25 1    
    46   27   26 1    
    47   40   26 1    
    48   41   26 1    
    49   28   27 1    
    50   29   28 ar   
    51   30   28 ar   
    52   31   28 ar   
@<TRIPOS>SUBSTRUCTURE
     1 FMN300      1 GROUP   
@<TRIPOS>SET

