#    Name: 2yx1_SFG_1_INTS_M
#    Modification time : Tue Mar 25 09:48:34 2014

@<TRIPOS>MOLECULE
2yx1_SFG_1_INTS_M
   70     0    15     0     0
SMALL
NO_CHARGES


@<TRIPOS>ATOM
      1 O          59.1950   37.6120    5.1055 O.2       1 ALC1        0.0000 
      2 O          59.6600   36.8450    4.0160 O.2      11 ALL1        0.0000 
      3 O          58.7300   38.3790    6.1950 O.2       6 ALP1        0.0000 
      4 O          60.8080   36.0340    4.2995 O.2       1 ALC1        0.0000 
      5 O          61.9560   35.2230    4.5830 O.2       6 ALP1        0.0000 
      6 O          60.1520   37.1775    2.4855 O.2       1 ALC1        0.0000 
      7 O          60.6440   37.5100    0.9550 O.2       6 ALP1        0.0000 
      8 CA         58.0635   36.2350    1.7345 C.3       5 GLC5        0.0000 
      9 CA         58.4710   36.0030    3.8130 C.3      15 GLL5        0.0000 
     10 CA         57.6560   36.4670   -0.3440 C.3      10 GLP5        0.0000 
     11 NZ         56.1845   38.7425    3.1440 N.4       3 LYC4        0.0000 
     12 NZ         57.5560   38.0560    3.0270 N.4      13 LYL4        0.0000 
     13 NZ         54.7220   40.3740    2.3360 N.4       8 LYP4        0.0000 
     14 N          56.1845   38.7425    3.1440 N.am      2 SEC2        0.0000 
     15 N          57.5560   38.0560    3.0270 N.am     12 SEL2        0.0000 
     16 N          54.8130   39.4290    3.2610 N.am      7 SEP2        0.0000 
     17 CA         61.2560   34.4665    6.2700 C.3       5 GLC5        0.0000 
     18 CA         59.1280   34.5920    5.8020 C.3      15 GLL5        0.0000 
     19 CA         63.3840   34.3410    6.7380 C.3      10 GLP5        0.0000 
     20 CA         56.7155   33.8135    7.6455 C.3       5 GLC5        0.0000 
     21 CA         58.6270   34.0100    7.1250 C.3      15 GLL5        0.0000 
     22 CA         54.8040   33.6170    8.1660 C.3      10 GLP5        0.0000 
     23 Zn         57.6965   34.7130    8.8895 Zn        4 ZIC7        0.0000 
     24 Zn         58.1160   35.1090    7.9580 Zn       14 ZIL7        0.0000 
     25 Zn         57.2770   34.3170    9.8210 Zn        9 ZIP7        0.0000 
     26 O          60.4010   30.7775    4.5945 O.2       1 ALC1        0.0000 
     27 O          59.2720   30.7770    5.4520 O.2      11 ALL1        0.0000 
     28 O          61.5300   30.7780    3.7370 O.2       6 ALP1        0.0000 
     29 O          61.1465   28.6740    5.1240 O.2       1 ALC1        0.0000 
     30 O          60.4950   28.7520    6.3860 O.2      11 ALL1        0.0000 
     31 O          61.7980   28.5960    3.8620 O.2       6 ALP1        0.0000 
     32 O          61.0125   29.7650    5.0615 O.2       1 ALC1        0.0000 
     33 CA         62.6475   32.4440    6.9185 C.3       5 GLC5        0.0000 
     34 CA         61.9110   30.5470    7.0990 C.3      15 GLL5        0.0000 
     35 CA         62.7590   28.5180    6.9875 C.3       5 GLC5        0.0000 
     36 CA         63.6070   26.4890    6.8760 C.3      10 GLP5        0.0000 
     37 CA         65.6265   27.7095    7.3975 C.3       5 GLC5        0.0000 
     38 CA         66.3100   29.2190    8.6380 C.3      15 GLL5        0.0000 
     39 CA         64.9430   26.2000    6.1570 C.3      10 GLP5        0.0000 
     40 CA         67.7340   28.0525    7.6705 C.3       5 GLC5        0.0000 
     41 CA         69.1580   26.8860    6.7030 C.3      10 GLP5        0.0000 
     42 CA         67.9200   30.5885    8.3960 C.3       5 GLC5        0.0000 
     43 CA         69.5300   31.9580    8.1540 C.3      10 GLP5        0.0000 
     44 O          68.5120   28.4345    9.3910 O.2       1 ALC1        0.0000 
     45 O          66.9970   28.7300    9.6670 O.2      11 ALL1        0.0000 
     46 O          70.0270   28.1390    9.1150 O.2       6 ALP1        0.0000 
     47 N          68.2620   29.3950    7.0570 N.am      2 SEC2        0.0000 
     48 N          66.9310   29.5080    7.4850 N.am     12 SEL2        0.0000 
     49 N          69.5930   29.2820    6.6290 N.am      7 SEP2        0.0000 
     50 CA         67.3840   30.4450    4.6660 C.3       5 GLC5        0.0000 
     51 CA         66.2580   29.9590    6.4410 C.3      15 GLL5        0.0000 
     52 CA         68.5100   30.9310    2.8910 C.3      10 GLP5        0.0000 
     53 CA         65.4185   29.7790    4.6605 C.3       5 GLC5        0.0000 
     54 CA         64.5790   29.5990    2.8800 C.3      10 GLP5        0.0000 
     55 CA         65.6005   28.0795    6.2990 C.3       5 GLC5        0.0000 
     56 CA         67.7080   28.4225    6.5720 C.3       5 GLC5        0.0000 
     57 CA         67.9520   30.8575    6.5445 C.3       5 GLC5        0.0000 
     58 CA         69.6460   31.7560    6.6480 C.3      10 GLP5        0.0000 
     59 N          64.7345   28.8900    5.3705 N.am      2 SEC2        0.0000 
     60 N          64.9500   30.1390    6.4890 N.am     12 SEL2        0.0000 
     61 N          64.5190   27.6410    4.2520 N.am      7 SEP2        0.0000 
     62 CA         58.9484   33.7721    3.5956 C.3       5 GLC5        0.0000 
     63 CA         58.0160   35.4180    5.1520 C.3      15 GLL5        0.0000 
     64 CA         59.2110   32.3930    2.0490 C.3      10 GLP5        0.0000 
     65 CA         61.7392   33.5605    7.0895 C.3       5 GLC5        0.0000 
     66 CA         60.4150   32.2340    7.0110 C.3      15 GLL5        0.0000 
     67 CA         60.9027   32.9280    9.1895 C.3       5 GLC5        0.0000 
     68 CA         61.7110   33.0760   10.9380 C.3      10 GLP5        0.0000 
     69 CA         64.1037   28.0637    7.5220 C.3       5 GLC5        0.0000 
     70 CA         64.2640   29.8740    7.6090 C.3      15 GLL5        0.0000 
@<TRIPOS>BOND
@<TRIPOS>SUBSTRUCTURE
     1 ALC1        1 GROUP        1 X    ALC  0     ROOT ALC X 1
     2 SEC2       14 GROUP        1 X    SEC  0     **** SEC X 2
     3 LYC4       11 GROUP        1 X    LYC  0     **** LYC X 4
     4 ZIC7       23 GROUP        1 X    ZIC  0     **** ZIC X 5
     5 GLC5        8 GROUP        1 X    GLC  0     **** GLC X 6
     6 ALP1        3 GROUP        1 Y    ALP  0     ROOT ALP Y 8
     7 SEP2       16 GROUP        1 Y    SEP  0     **** SEP Y 9
     8 LYP4       13 GROUP        1 Y    LYP  0     **** LYP Y 11
     9 ZIP7       25 GROUP        1 Y    ZIP  0     **** ZIP Y 12
    10 GLP5       10 GROUP        1 Y    GLP  0     **** GLP Y 13
    11 ALL1        2 GROUP        1 Z    ALL  0     ROOT ALL Z 15
    12 SEL2       15 GROUP        1 Z    SEL  0     **** SEL Z 16
    13 LYL4       12 GROUP        1 Z    LYL  0     **** LYL Z 18
    14 ZIL7       24 GROUP        1 Z    ZIL  0     **** ZIL Z 19
    15 GLL5        9 GROUP        1 Z    GLL  0     **** GLL Z 20
@<TRIPOS>SET

