#    Name: 2yx1_SFG_1_ligand
#    Modification time : Tue Mar 25 09:48:34 2014

@<TRIPOS>MOLECULE
2yx1_SFG_1_ligand
   48    50     1     0     0
SMALL
NO_CHARGES


@<TRIPOS>ATOM
      1 N          59.6600   36.8450    4.0160 N.4       1 SFG401      0.0000 
      2 CA         58.4710   36.0030    3.8130 C.3       1 SFG401      0.0000 
      3 C          57.3390   36.8380    3.2090 C.2       1 SFG401      0.0000 
      4 O          57.5560   38.0560    3.0270 O.co2     1 SFG401      0.0000 
      5 OXT        56.2760   36.2330    2.9430 O.co2     1 SFG401      0.0000 
      6 CB         58.0160   35.4180    5.1520 C.3       1 SFG401      0.0000 
      7 CG         59.1280   34.5920    5.8020 C.3       1 SFG401      0.0000 
      8 CD         58.6270   34.0100    7.1250 C.3       1 SFG401      0.0000 
      9 NE         58.1160   35.1090    7.9580 N.3       1 SFG401      0.0000 
     10 C5'        59.7740   33.3260    7.8710 C.3       1 SFG401      0.0000 
     11 C4'        60.4150   32.2340    7.0110 C.3       1 SFG401      0.0000 
     12 O4'        61.6480   31.8500    7.6320 O.3       1 SFG401      0.0000 
     13 C3'        59.5940   30.9520    6.8360 C.3       1 SFG401      0.0000 
     14 O3'        59.2720   30.7770    5.4520 O.3       1 SFG401      0.0000 
     15 C2'        60.5610   29.8570    7.2920 C.3       1 SFG401      0.0000 
     16 O2'        60.4950   28.7520    6.3860 O.3       1 SFG401      0.0000 
     17 C1'        61.9110   30.5470    7.0990 C.3       1 SFG401      0.0000 
     18 N9         62.9790   29.9640    7.9380 N.pl3     1 SFG401      0.0000 
     19 C8         62.8420   29.5590    9.1990 C.2       1 SFG401      0.0000 
     20 N7         64.0340   29.2220    9.6870 N.2       1 SFG401      0.0000 
     21 C5         64.9370   29.4030    8.7270 C.ar      1 SFG401      0.0000 
     22 C6         66.3100   29.2190    8.6380 C.ar      1 SFG401      0.0000 
     23 N6         66.9970   28.7300    9.6670 N.pl3     1 SFG401      0.0000 
     24 N1         66.9310   29.5080    7.4850 N.ar      1 SFG401      0.0000 
     25 C2         66.2580   29.9590    6.4410 C.ar      1 SFG401      0.0000 
     26 N3         64.9500   30.1390    6.4890 N.ar      1 SFG401      0.0000 
     27 C4         64.2640   29.8740    7.6090 C.ar      1 SFG401      0.0000 
     28 H          58.6924   35.1930    3.1441 H         1 SFG401      0.0000 
     29 H          57.1461   34.7822    4.9883 H         1 SFG401      0.0000 
     30 H          57.7352   36.2310    5.8214 H         1 SFG401      0.0000 
     31 H          59.9841   35.2278    5.9905 H         1 SFG401      0.0000 
     32 H          59.4101   33.7843    5.1381 H         1 SFG401      0.0000 
     33 H          57.8618   33.2985    6.9288 H         1 SFG401      0.0000 
     34 H          59.3907   32.8809    8.7881 H         1 SFG401      0.0000 
     35 H          60.5283   34.0684    8.1281 H         1 SFG401      0.0000 
     36 H          60.6226   32.6427    6.0272 H         1 SFG401      0.0000 
     37 H          58.7754   30.9796    7.4766 H         1 SFG401      0.0000 
     38 H          60.4155   29.6417    8.2791 H         1 SFG401      0.0000 
     39 H          62.1525   30.5863    6.0944 H         1 SFG401      0.0000 
     40 H          61.9967   29.5158    9.6906 H         1 SFG401      0.0000 
     41 H          67.9563   29.0061    9.7266 H         1 SFG401      0.0000 
     42 H          66.4922   28.1304   10.2880 H         1 SFG401      0.0000 
     43 H          66.7798   30.1815    5.5442 H         1 SFG401      0.0000 
     44 H          60.4202   36.3261    4.4069 H         1 SFG401      0.0000 
     45 H          59.9860   37.2405    3.1573 H         1 SFG401      0.0000 
     46 H          59.4744   37.6061    4.6375 H         1 SFG401      0.0000 
     47 H          60.1383   30.8985    4.9675 H         1 SFG401      0.0000 
     48 H          61.0279   29.0382    5.5897 H         1 SFG401      0.0000 
@<TRIPOS>BOND
     1    2    1 1    
     2   44    1 1    
     3   45    1 1    
     4   46    1 1    
     5    3    2 1    
     6    6    2 1    
     7   28    2 1    
     8    4    3 ar   
     9    5    3 ar   
    10    7    6 1    
    11   29    6 1    
    12   30    6 1    
    13    8    7 1    
    14   31    7 1    
    15   32    7 1    
    16    9    8 1    
    17   10    8 1    
    18   33    8 1    
    19   11   10 1    
    20   34   10 1    
    21   35   10 1    
    22   12   11 1    
    23   13   11 1    
    24   36   11 1    
    25   17   12 1    
    26   14   13 1    
    27   15   13 1    
    28   37   13 1    
    29   47   14 1    
    30   16   15 1    
    31   17   15 1    
    32   38   15 1    
    33   48   16 1    
    34   18   17 1    
    35   39   17 1    
    36   19   18 1    
    37   27   18 1    
    38   20   19 2    
    39   40   19 1    
    40   21   20 1    
    41   22   21 ar   
    42   27   21 ar   
    43   23   22 1    
    44   24   22 ar   
    45   41   23 1    
    46   42   23 1    
    47   25   24 ar   
    48   26   25 ar   
    49   43   25 1    
    50   27   26 ar   
@<TRIPOS>SUBSTRUCTURE
     1 SFG401      1 GROUP   
@<TRIPOS>SET

