#    Name: 2q66_ATP_1_INTS_M
#    Modification time : Mon Mar 24 20:50:19 2014

@<TRIPOS>MOLECULE
2q66_ATP_1_INTS_M
   62     0    15     0     0
SMALL
NO_CHARGES


@<TRIPOS>ATOM
      1 Zn         26.8855   39.3275   34.4620 Zn        4 ZIC7        0.0000 
      2 Zn         26.1560   38.7800   34.0310 Zn       14 ZIL7        0.0000 
      3 Zn         27.6150   39.8750   34.8930 Zn        9 ZIP7        0.0000 
      4 NZ         25.6045   36.4955   31.4930 N.4       3 LYC4        0.0000 
      5 NZ         25.0290   36.6400   33.3830 N.4      13 LYL4        0.0000 
      6 NZ         26.1800   36.3510   29.6030 N.4       8 LYP4        0.0000 
      7 N          24.9420   35.7705   32.4560 N.am      2 SEC2        0.0000 
      8 N          25.0290   36.6400   33.3830 N.am     12 SEL2        0.0000 
      9 N          24.8550   34.9010   31.5290 N.am      7 SEP2        0.0000 
     10 NZ         25.9155   37.3390   30.5980 N.4       3 LYC4        0.0000 
     11 NZ         25.6510   38.3270   31.5930 N.4      13 LYL4        0.0000 
     12 N          26.5450   39.2795   31.2395 N.am      2 SEC2        0.0000 
     13 N          25.6510   38.3270   31.5930 N.am     12 SEL2        0.0000 
     14 N          27.4390   40.2320   30.8860 N.am      7 SEP2        0.0000 
     15 N          25.9155   37.3390   30.5980 N.am      2 SEC2        0.0000 
     16 N          26.1800   36.3510   29.6030 N.am      7 SEP2        0.0000 
     17 Zn         28.2790   39.3190   34.3240 Zn        4 ZIC7        0.0000 
     18 Zn         28.9430   38.7630   33.7550 Zn       14 ZIL7        0.0000 
     19 N          29.6275   39.3530   32.6570 N.am      2 SEC2        0.0000 
     20 N          28.9430   38.7630   33.7550 N.am     12 SEL2        0.0000 
     21 N          30.3120   39.9430   31.5590 N.am      7 SEP2        0.0000 
     22 N          26.7905   36.6915   31.1655 N.am      2 SEC2        0.0000 
     23 N          27.4010   37.0320   32.7280 N.am     12 SEL2        0.0000 
     24 Zn         27.7610   39.1755   35.6600 Zn        4 ZIC7        0.0000 
     25 Zn         27.9070   38.4760   36.4270 Zn       14 ZIL7        0.0000 
     26 N          27.0125   39.6510   37.1670 N.am      2 SEC2        0.0000 
     27 N          27.9070   38.4760   36.4270 N.am     12 SEL2        0.0000 
     28 N          26.1180   40.8260   37.9070 N.am      7 SEP2        0.0000 
     29 N          28.6880   39.5040   37.1060 N.am      2 SEC2        0.0000 
     30 N          29.4690   40.5320   37.7850 N.am      7 SEP2        0.0000 
     31 CA         32.2050   38.7535   37.3660 C.3       5 GLC5        0.0000 
     32 CA         30.8700   37.8380   36.4560 C.3      15 GLL5        0.0000 
     33 CA         33.5400   39.6690   38.2760 C.3      10 GLP5        0.0000 
     34 CA         30.9780   39.8980   36.6465 C.3       5 GLC5        0.0000 
     35 CA         31.0860   41.9580   36.8370 C.3      10 GLP5        0.0000 
     36 CA         33.2215   38.4910   36.7025 C.3       5 GLC5        0.0000 
     37 CA         32.2200   37.1710   36.3530 C.3      15 GLL5        0.0000 
     38 CA         34.2230   39.8110   37.0520 C.3      10 GLP5        0.0000 
     39 CA         33.4585   37.5400   37.8210 C.3       5 GLC5        0.0000 
     40 CA         33.3770   35.4110   37.3660 C.3      15 GLL5        0.0000 
     41 CA         32.8310   29.0620   37.7780 C.3       5 GLC5        0.0000 
     42 CA         32.2750   30.7550   38.7100 C.3      15 GLL5        0.0000 
     43 CA         33.3870   27.3690   36.8460 C.3      10 GLP5        0.0000 
     44 O          31.7715   28.5240   39.5945 O.2       1 ALC1        0.0000 
     45 O          31.2810   29.9790   39.1800 O.2      11 ALL1        0.0000 
     46 O          32.2620   27.0690   40.0090 O.2       6 ALP1        0.0000 
     47 CA         33.4865   31.4685   36.2635 C.3       5 GLC5        0.0000 
     48 CA         34.4960   31.1110   37.9630 C.3      15 GLL5        0.0000 
     49 CA         32.4770   31.8260   34.5640 C.3      10 GLP5        0.0000 
     50 CA         35.9670   30.5355   36.6510 C.3       5 GLC5        0.0000 
     51 CA         37.4380   29.9600   35.3390 C.3      10 GLP5        0.0000 
     52 CA         35.2610   30.0840   39.4170 C.3       5 GLC5        0.0000 
     53 CA         36.0260   29.0570   40.8710 C.3      10 GLP5        0.0000 
     54 CA         33.9875   29.6685   36.7765 C.3       5 GLC5        0.0000 
     55 CA         33.4790   28.2260   35.5900 C.3      10 GLP5        0.0000 
     56 CA         31.9733   38.2164   34.5496 C.3       5 GLC5        0.0000 
     57 CA         32.0370   39.6750   33.2080 C.3      10 GLP5        0.0000 
     58 CA         32.7115   34.2445   34.5198 C.3       5 GLC5        0.0000 
     59 CA         32.2740   36.0110   35.3780 C.3      15 GLL5        0.0000 
     60 CA         32.5360   32.8560   33.4190 C.3      10 GLP5        0.0000 
     61 CA         32.5511   32.0331   36.4235 C.3       5 GLC5        0.0000 
     62 CA         32.0060   32.1880   38.4860 C.3      15 GLL5        0.0000 
@<TRIPOS>BOND
@<TRIPOS>SUBSTRUCTURE
     1 ALC1       44 GROUP        1 X    ALC  0     ROOT ALC X 1
     2 SEC2        7 GROUP        1 X    SEC  0     **** SEC X 2
     3 LYC4        4 GROUP        1 X    LYC  0     **** LYC X 4
     4 ZIC7        1 GROUP        1 X    ZIC  0     **** ZIC X 5
     5 GLC5       31 GROUP        1 X    GLC  0     **** GLC X 6
     6 ALP1       46 GROUP        1 Y    ALP  0     ROOT ALP Y 8
     7 SEP2        9 GROUP        1 Y    SEP  0     **** SEP Y 9
     8 LYP4        6 GROUP        1 Y    LYP  0     **** LYP Y 11
     9 ZIP7        3 GROUP        1 Y    ZIP  0     **** ZIP Y 12
    10 GLP5       33 GROUP        1 Y    GLP  0     **** GLP Y 13
    11 ALL1       45 GROUP        1 Z    ALL  0     ROOT ALL Z 15
    12 SEL2        8 GROUP        1 Z    SEL  0     **** SEL Z 16
    13 LYL4        5 GROUP        1 Z    LYL  0     **** LYL Z 18
    14 ZIL7        2 GROUP        1 Z    ZIL  0     **** ZIL Z 19
    15 GLL5       32 GROUP        1 Z    GLL  0     **** GLL Z 20
@<TRIPOS>SET

