#    Name: 2q66_ATP_1_ligand
#    Modification time : Mon Mar 24 20:50:19 2014

@<TRIPOS>MOLECULE
2q66_ATP_1_ligand
   43    45     1     0     0
SMALL
NO_CHARGES


@<TRIPOS>ATOM
      1 PG         25.9610   37.7450   32.9390 P.3       1 ATP605      0.0000 
      2 O1G        26.1560   38.7800   34.0310 O.co2     1 ATP605      0.0000 
      3 O2G        25.0290   36.6400   33.3830 O.co2     1 ATP605      0.0000 
      4 O3G        25.6510   38.3270   31.5930 O.co2     1 ATP605      0.0000 
      5 PB         28.7770   37.2560   33.5340 P.3       1 ATP605      0.0000 
      6 O1B        28.9430   38.7630   33.7550 O.co2     1 ATP605      0.0000 
      7 O2B        29.8610   36.4880   32.8450 O.co2     1 ATP605      0.0000 
      8 O3B        27.4010   37.0320   32.7280 O.3       1 ATP605      0.0000 
      9 PA         28.3760   37.0150   36.4200 P.3       1 ATP605      0.0000 
     10 O1A        27.9070   38.4760   36.4270 O.co2     1 ATP605      0.0000 
     11 O2A        27.5770   35.9830   37.1990 O.co2     1 ATP605      0.0000 
     12 O3A        28.4980   36.4630   34.9020 O.3       1 ATP605      0.0000 
     13 O5'        29.8890   36.9360   36.9750 O.3       1 ATP605      0.0000 
     14 C5'        30.8700   37.8380   36.4560 C.3       1 ATP605      0.0000 
     15 C4'        32.2200   37.1710   36.3530 C.3       1 ATP605      0.0000 
     16 O4'        32.5940   36.5930   37.6070 O.3       1 ATP605      0.0000 
     17 C3'        32.2740   36.0110   35.3780 C.3       1 ATP605      0.0000 
     18 O3'        32.2950   36.3970   34.0040 O.3       1 ATP605      0.0000 
     19 C2'        33.5000   35.2550   35.8630 C.3       1 ATP605      0.0000 
     20 O2'        34.7350   35.8230   35.3980 O.3       1 ATP605      0.0000 
     21 C1'        33.3770   35.4110   37.3660 C.3       1 ATP605      0.0000 
     22 N9         32.6170   34.2400   37.8550 N.pl3     1 ATP605      0.0000 
     23 C8         31.3250   34.2250   38.2370 C.2       1 ATP605      0.0000 
     24 N7         30.9390   32.9800   38.6300 N.2       1 ATP605      0.0000 
     25 C5         32.0060   32.1880   38.4860 C.ar      1 ATP605      0.0000 
     26 C6         32.2750   30.7550   38.7100 C.ar      1 ATP605      0.0000 
     27 N6         31.2810   29.9790   39.1800 N.pl3     1 ATP605      0.0000 
     28 N1         33.5200   30.3030   38.4390 N.ar      1 ATP605      0.0000 
     29 C2         34.4960   31.1110   37.9630 C.ar      1 ATP605      0.0000 
     30 N3         34.3150   32.4380   37.7310 N.ar      1 ATP605      0.0000 
     31 C4         33.1100   33.0090   37.9680 C.ar      1 ATP605      0.0000 
     32 H          30.9757   38.7279   37.0994 H         1 ATP605      0.0000 
     33 H          30.5894   38.2004   35.4525 H         1 ATP605      0.0000 
     34 H          32.9652   37.8943   36.0511 H         1 ATP605      0.0000 
     35 H          31.4111   35.3751   35.6216 H         1 ATP605      0.0000 
     36 H          33.3791   34.2304   35.6291 H         1 ATP605      0.0000 
     37 H          34.3251   35.4558   37.7952 H         1 ATP605      0.0000 
     38 H          30.7312   35.0079   38.2350 H         1 ATP605      0.0000 
     39 H          30.3518   30.2630   38.9438 H         1 ATP605      0.0000 
     40 H          31.5602   29.1875   39.7237 H         1 ATP605      0.0000 
     41 H          35.4492   30.6905   37.7604 H         1 ATP605      0.0000 
     42 H          31.3390   36.3665   33.7121 H         1 ATP605      0.0000 
     43 H          35.4468   35.2093   35.7396 H         1 ATP605      0.0000 
@<TRIPOS>BOND
     1    2    1 ar   
     2    3    1 ar   
     3    4    1 ar   
     4    8    1 1    
     5    6    5 ar   
     6    7    5 ar   
     7    8    5 1    
     8   12    5 1    
     9   10    9 ar   
    10   11    9 ar   
    11   12    9 1    
    12   13    9 1    
    13   14   13 1    
    14   15   14 1    
    15   32   14 1    
    16   33   14 1    
    17   16   15 1    
    18   17   15 1    
    19   34   15 1    
    20   21   16 1    
    21   18   17 1    
    22   19   17 1    
    23   35   17 1    
    24   42   18 1    
    25   20   19 1    
    26   21   19 1    
    27   36   19 1    
    28   43   20 1    
    29   22   21 1    
    30   37   21 1    
    31   23   22 1    
    32   31   22 1    
    33   24   23 2    
    34   38   23 1    
    35   25   24 1    
    36   26   25 ar   
    37   31   25 ar   
    38   27   26 1    
    39   28   26 ar   
    40   39   27 1    
    41   40   27 1    
    42   29   28 ar   
    43   30   29 ar   
    44   41   29 1    
    45   31   30 ar   
@<TRIPOS>SUBSTRUCTURE
     1 ATP605      1 GROUP   
@<TRIPOS>SET

