#    Name: 1osf_KOS_1_INTS_M
#    Modification time : Mon Mar 24 20:35:36 2014

@<TRIPOS>MOLECULE
1osf_KOS_1_INTS_M
   72     0    12     0     0
SMALL
NO_CHARGES


@<TRIPOS>ATOM
      1 CA         77.0000  -25.4930   57.3490 C.3       4 GLC5        0.0000 
      2 CA         79.1200  -25.7780   57.7570 C.3      12 GLL5        0.0000 
      3 CA         74.8800  -25.2080   56.9410 C.3       8 GLP5        0.0000 
      4 CA         78.4950  -26.1975   56.2055 C.3       4 GLC5        0.0000 
      5 CA         77.8700  -26.6170   54.6540 C.3       8 GLP5        0.0000 
      6 CA         79.6585  -27.6325   58.2410 C.3       4 GLC5        0.0000 
      7 CA         80.1970  -29.4870   58.7250 C.3       8 GLP5        0.0000 
      8 N          80.8035  -26.6910   59.1800 N.am      2 SEC2        0.0000 
      9 N          79.7800  -25.6360   59.2230 N.am     10 SEL2        0.0000 
     10 N          81.8270  -27.7460   59.1370 N.am      6 SEP2        0.0000 
     11 CA         79.9185  -28.5880   60.2610 C.3       4 GLC5        0.0000 
     12 CA         79.6400  -27.6890   61.7970 C.3      12 GLL5        0.0000 
     13 O          79.0330  -22.4105   64.4255 O.2       1 ALC1        0.0000 
     14 O          79.9890  -23.5820   64.9080 O.2       9 ALL1        0.0000 
     15 O          78.0770  -21.2390   63.9430 O.2       5 ALP1        0.0000 
     16 OD1        80.1015  -21.0635   66.6280 O.co2     3 ASC3        0.0000 
     17 OD1        81.2360  -21.9280   67.5940 O.co2    11 ASL3        0.0000 
     18 OD1        78.9670  -20.1990   65.6620 O.co2     7 ASP3        0.0000 
     19 O          80.1015  -21.0635   66.6280 O.2       1 ALC1        0.0000 
     20 O          81.2360  -21.9280   67.5940 O.2       9 ALL1        0.0000 
     21 O          78.9670  -20.1990   65.6620 O.2       5 ALP1        0.0000 
     22 N          75.3500  -30.6025   67.2655 N.am      2 SEC2        0.0000 
     23 N          76.5190  -30.5170   66.5550 N.am     10 SEL2        0.0000 
     24 N          74.1810  -30.6880   67.9760 N.am      6 SEP2        0.0000 
     25 CA         79.4840  -31.1405   64.4985 C.3       4 GLC5        0.0000 
     26 CA         77.4910  -30.9060   63.6900 C.3      12 GLL5        0.0000 
     27 CA         81.4770  -31.3750   65.3070 C.3       8 GLP5        0.0000 
     28 CA         77.0765  -32.7750   64.2805 C.3       4 GLC5        0.0000 
     29 CA         76.6620  -34.6440   64.8710 C.3       8 GLP5        0.0000 
     30 CA         74.8835  -27.1845   59.7995 C.3       4 GLC5        0.0000 
     31 CA         75.1460  -27.6980   61.6360 C.3      12 GLL5        0.0000 
     32 CA         74.6210  -26.6710   57.9630 C.3       8 GLP5        0.0000 
     33 CA         72.6360  -27.6510   60.0380 C.3       4 GLC5        0.0000 
     34 CA         72.4350  -28.7670   61.8240 C.3      12 GLL5        0.0000 
     35 CA         72.8370  -26.5350   58.2520 C.3       8 GLP5        0.0000 
     36 CA         73.6150  -30.2115   61.4455 C.3       4 GLC5        0.0000 
     37 CA         74.7950  -31.6560   61.0670 C.3       8 GLP5        0.0000 
     38 CA         71.9560  -29.8080   63.0335 C.3       4 GLC5        0.0000 
     39 CA         71.4770  -30.8490   64.2430 C.3       8 GLP5        0.0000 
     40 O          70.1235  -22.5785   62.2945 O.2       1 ALC1        0.0000 
     41 O          71.1520  -23.4860   62.5550 O.2       9 ALL1        0.0000 
     42 O          69.0950  -21.6710   62.0340 O.2       5 ALP1        0.0000 
     43 CA         74.3865  -24.5715   64.8480 C.3       4 GLC5        0.0000 
     44 CA         75.8490  -24.3170   63.5630 C.3      12 GLL5        0.0000 
     45 CA         72.9240  -24.8260   66.1330 C.3       8 GLP5        0.0000 
     46 CA         76.2395  -22.4720   64.6440 C.3       4 GLC5        0.0000 
     47 CA         76.6300  -20.6270   65.7250 C.3       8 GLP5        0.0000 
     48 CA         75.3180  -25.3655   59.5145 C.3       4 GLC5        0.0000 
     49 CA         76.0150  -24.0600   61.0660 C.3      12 GLL5        0.0000 
     50 CA         75.6265  -20.5365   61.3020 C.3       4 GLC5        0.0000 
     51 CA         76.7300  -21.8360   60.5100 C.3      12 GLL5        0.0000 
     52 CA         74.5230  -19.2370   62.0940 C.3       8 GLP5        0.0000 
     53 CA         76.2405  -20.6330   59.3030 C.3       4 GLC5        0.0000 
     54 CA         75.7510  -19.4300   58.0960 C.3       8 GLP5        0.0000 
     55 N          79.8035  -22.1645   61.0280 N.am      2 SEC2        0.0000 
     56 N          79.4060  -22.8590   59.9080 N.am     10 SEL2        0.0000 
     57 N          80.2010  -21.4700   62.1480 N.am      6 SEP2        0.0000 
     58 N          80.6775  -29.3080   64.6455 N.am      2 SEC2        0.0000 
     59 N          79.4840  -28.4360   64.7900 N.am     10 SEL2        0.0000 
     60 N          81.8710  -30.1800   64.5010 N.am      6 SEP2        0.0000 
     61 CA         75.9755  -30.9827   62.5382 C.3       4 GLC5        0.0000 
     62 CA         75.1450  -30.1701   64.7091 C.3       4 GLC5        0.0000 
     63 CA         76.2140  -28.6750   63.6590 C.3      12 GLL5        0.0000 
     64 CA         73.6050  -30.8480   65.5840 C.3       8 GLP5        0.0000 
     65 CA         75.2190  -29.8944   61.6766 C.3       4 GLC5        0.0000 
     66 CA         73.4873  -25.4870   64.1213 C.3       4 GLC5        0.0000 
     67 CA         74.0670  -26.9070   62.3220 C.3      12 GLL5        0.0000 
     68 CA         73.4437  -26.3415   60.1808 C.3       4 GLC5        0.0000 
     69 CA         74.0340  -25.3890   61.8970 C.3      12 GLL5        0.0000 
     70 CA         78.0990  -20.9530   60.9457 C.3       4 GLC5        0.0000 
     71 CA         77.2700  -23.2220   60.9250 C.3      12 GLL5        0.0000 
     72 CA         79.1980  -19.3770   61.1740 C.3       8 GLP5        0.0000 
@<TRIPOS>BOND
@<TRIPOS>SUBSTRUCTURE
     1 ALC1       13 GROUP        1 X    ALC  0     ROOT ALC X 1
     2 SEC2        8 GROUP        1 X    SEC  0     **** SEC X 2
     3 ASC3       16 GROUP        1 X    ASC  0     **** ASC X 3
     4 GLC5        1 GROUP        1 X    GLC  0     **** GLC X 6
     5 ALP1       15 GROUP        1 Y    ALP  0     ROOT ALP Y 8
     6 SEP2       10 GROUP        1 Y    SEP  0     **** SEP Y 9
     7 ASP3       18 GROUP        1 Y    ASP  0     **** ASP Y 10
     8 GLP5        3 GROUP        1 Y    GLP  0     **** GLP Y 13
     9 ALL1       14 GROUP        1 Z    ALL  0     ROOT ALL Z 15
    10 SEL2        9 GROUP        1 Z    SEL  0     **** SEL Z 16
    11 ASL3       17 GROUP        1 Z    ASL  0     **** ASL Z 17
    12 GLL5        2 GROUP        1 Z    GLL  0     **** GLL Z 20
@<TRIPOS>SET

