#    Name: 1osf_KOS_1_ligand
#    Modification time : Mon Mar 24 20:35:36 2014

@<TRIPOS>MOLECULE
1osf_KOS_1_ligand
   93    94     1     0     0
SMALL
NO_CHARGES


@<TRIPOS>ATOM
      1 C27        79.1200  -25.7780   57.7570 C.3       1 KOS280      0.0000 
      2 O6         79.7800  -25.6360   59.2230 O.3       1 KOS280      0.0000 
      3 C12        78.8920  -25.2050   60.2690 C.3       1 KOS280      0.0000 
      4 C13        79.7860  -25.1940   61.5740 C.3       1 KOS280      0.0000 
      5 C14        80.5360  -26.4640   62.1060 C.3       1 KOS280      0.0000 
      6 C28        79.6400  -27.6890   61.7970 C.3       1 KOS280      0.0000 
      7 C15        80.9970  -26.3810   63.7090 C.3       1 KOS280      0.0000 
      8 C16        79.8370  -26.0850   64.7170 C.2       1 KOS280      0.0000 
      9 C17        79.3790  -24.8540   65.2380 C.2       1 KOS280      0.0000 
     10 N29        79.9890  -23.5820   64.9080 N.pl3     1 KOS280      0.0000 
     11 C30        81.3940  -23.2560   65.1140 C.3       1 KOS280      0.0000 
     12 C31        81.9160  -22.8320   66.5430 C.3       1 KOS280      0.0000 
     13 N32        81.2360  -21.9280   67.5940 N.4       1 KOS280      0.0000 
     14 C33        82.0880  -21.7470   68.7380 C.3       1 KOS280      0.0000 
     15 C34        80.0670  -22.4710   68.2190 C.3       1 KOS280      0.0000 
     16 C18        78.2110  -24.7300   66.1910 C.2       1 KOS280      0.0000 
     17 O8         77.8760  -23.6050   66.5740 O.2       1 KOS280      0.0000 
     18 C19        77.5050  -25.9750   66.6380 C.2       1 KOS280      0.0000 
     19 C20        77.9180  -27.2170   66.1890 C.2       1 KOS280      0.0000 
     20 N1         77.3730  -28.4910   66.5340 N.am      1 KOS280      0.0000 
     21 C1         76.8570  -29.6750   65.8730 C.2       1 KOS280      0.0000 
     22 O1         76.5190  -30.5170   66.5550 O.2       1 KOS280      0.0000 
     23 C2         76.8210  -29.7130   64.3290 C.2       1 KOS280      0.0000 
     24 C22        77.4910  -30.9060   63.6900 C.3       1 KOS280      0.0000 
     25 C3         76.2140  -28.6750   63.6590 C.2       1 KOS280      0.0000 
     26 C4         76.0660  -28.4600   62.2140 C.2       1 KOS280      0.0000 
     27 C5         75.1460  -27.6980   61.6360 C.2       1 KOS280      0.0000 
     28 C6         74.0670  -26.9070   62.3220 C.3       1 KOS280      0.0000 
     29 O2         72.6720  -27.4180   62.0050 O.3       1 KOS280      0.0000 
     30 C23        72.4350  -28.7670   61.8240 C.3       1 KOS280      0.0000 
     31 C7         74.0340  -25.3890   61.8970 C.3       1 KOS280      0.0000 
     32 O3         73.0120  -24.7260   62.5950 O.3       1 KOS280      0.0000 
     33 C24        72.2830  -23.7610   61.8720 C.2       1 KOS280      0.0000 
     34 N2         71.1520  -23.4860   62.5550 N.am      1 KOS280      0.0000 
     35 O4         72.6020  -23.2440   60.8110 O.2       1 KOS280      0.0000 
     36 C8         75.4050  -24.5260   62.1190 C.2       1 KOS280      0.0000 
     37 C25        75.8490  -24.3170   63.5630 C.3       1 KOS280      0.0000 
     38 C9         76.0150  -24.0600   61.0660 C.2       1 KOS280      0.0000 
     39 C10        77.2700  -23.2220   60.9250 C.3       1 KOS280      0.0000 
     40 C26        76.7300  -21.8360   60.5100 C.3       1 KOS280      0.0000 
     41 C11        78.2730  -23.7950   59.9150 C.3       1 KOS280      0.0000 
     42 O5         79.4060  -22.8590   59.9080 O.3       1 KOS280      0.0000 
     43 C21        79.1170  -27.3180   65.1960 C.2       1 KOS280      0.0000 
     44 O9         79.4840  -28.4360   64.7900 O.2       1 KOS280      0.0000 
     45 H          78.1053  -25.9062   60.4215 H         1 KOS280      0.0000 
     46 H          79.1389  -24.7980   62.4186 H         1 KOS280      0.0000 
     47 H          80.5556  -24.3695   61.4445 H         1 KOS280      0.0000 
     48 H          81.4569  -26.5715   61.5277 H         1 KOS280      0.0000 
     49 H          81.7534  -25.5997   63.7659 H         1 KOS280      0.0000 
     50 H          81.4610  -27.3387   63.9401 H         1 KOS280      0.0000 
     51 H          79.3808  -22.8438   64.4926 H         1 KOS280      0.0000 
     52 H          81.7146  -22.4248   64.4101 H         1 KOS280      0.0000 
     53 H          82.0527  -24.1222   64.7903 H         1 KOS280      0.0000 
     54 H          82.9919  -22.4088   66.3740 H         1 KOS280      0.0000 
     55 H          82.2022  -23.8276   67.0834 H         1 KOS280      0.0000 
     56 H          81.0221  -20.9701   67.1611 H         1 KOS280      0.0000 
     57 H          76.7232  -25.8526   67.2759 H         1 KOS280      0.0000 
     58 H          77.3266  -28.6246   67.6804 H         1 KOS280      0.0000 
     59 H          75.7703  -27.8839   64.2575 H         1 KOS280      0.0000 
     60 H          76.7857  -28.9849   61.6251 H         1 KOS280      0.0000 
     61 H          75.1132  -27.5920   60.5688 H         1 KOS280      0.0000 
     62 H          74.1928  -26.9227   63.3939 H         1 KOS280      0.0000 
     63 H          73.8389  -25.3494   60.8169 H         1 KOS280      0.0000 
     64 H          71.0181  -23.9926   63.4067 H         1 KOS280      0.0000 
     65 H          70.5484  -22.8001   62.1487 H         1 KOS280      0.0000 
     66 H          75.5976  -24.2761   60.0624 H         1 KOS280      0.0000 
     67 H          77.7219  -23.1175   61.8914 H         1 KOS280      0.0000 
     68 H          77.8436  -23.8393   58.9477 H         1 KOS280      0.0000 
     69 H          79.7871  -26.0829   57.0773 H         1 KOS280      0.0000 
     70 H          78.3706  -26.4400   57.7497 H         1 KOS280      0.0000 
     71 H          78.7467  -24.9091   57.4320 H         1 KOS280      0.0000 
     72 H          79.4706  -27.7873   60.8164 H         1 KOS280      0.0000 
     73 H          80.0571  -28.5425   62.1094 H         1 KOS280      0.0000 
     74 H          78.7477  -27.6185   62.2430 H         1 KOS280      0.0000 
     75 H          82.9574  -21.3199   68.4897 H         1 KOS280      0.0000 
     76 H          81.6620  -21.1640   69.4298 H         1 KOS280      0.0000 
     77 H          82.3048  -22.6169   69.1810 H         1 KOS280      0.0000 
     78 H          80.2660  -23.3241   68.7012 H         1 KOS280      0.0000 
     79 H          79.6769  -21.8396   68.8892 H         1 KOS280      0.0000 
     80 H          79.3488  -22.6716   67.5527 H         1 KOS280      0.0000 
     81 H          78.4601  -30.9608   63.9306 H         1 KOS280      0.0000 
     82 H          77.0689  -31.7663   63.9759 H         1 KOS280      0.0000 
     83 H          77.4383  -30.8711   62.6920 H         1 KOS280      0.0000 
     84 H          72.9675  -29.1389   61.0637 H         1 KOS280      0.0000 
     85 H          72.6739  -29.2984   62.6367 H         1 KOS280      0.0000 
     86 H          71.4724  -28.9516   61.6256 H         1 KOS280      0.0000 
     87 H          76.0192  -25.1855   64.0286 H         1 KOS280      0.0000 
     88 H          76.6934  -23.7842   63.6185 H         1 KOS280      0.0000 
     89 H          75.1587  -23.8286   64.0968 H         1 KOS280      0.0000 
     90 H          77.4678  -21.1736   60.3802 H         1 KOS280      0.0000 
     91 H          76.2196  -21.8782   59.6511 H         1 KOS280      0.0000 
     92 H          76.1130  -21.4562   61.1993 H         1 KOS280      0.0000 
     93 H          79.5084  -22.5839   58.9520 H         1 KOS280      0.0000 
@<TRIPOS>BOND
     1    2    1 1    
     2   69    1 1    
     3   70    1 1    
     4   71    1 1    
     5    3    2 1    
     6    4    3 1    
     7   41    3 1    
     8   45    3 1    
     9    5    4 1    
    10   46    4 1    
    11   47    4 1    
    12    6    5 1    
    13    7    5 1    
    14   48    5 1    
    15   72    6 1    
    16   73    6 1    
    17   74    6 1    
    18    8    7 1    
    19   49    7 1    
    20   50    7 1    
    21    9    8 2    
    22   43    8 1    
    23   10    9 1    
    24   16    9 1    
    25   11   10 1    
    26   51   10 1    
    27   12   11 1    
    28   52   11 1    
    29   53   11 1    
    30   13   12 1    
    31   54   12 1    
    32   55   12 1    
    33   14   13 1    
    34   15   13 1    
    35   56   13 1    
    36   75   14 1    
    37   76   14 1    
    38   77   14 1    
    39   78   15 1    
    40   79   15 1    
    41   80   15 1    
    42   17   16 2    
    43   18   16 1    
    44   19   18 2    
    45   57   18 1    
    46   20   19 1    
    47   43   19 1    
    48   21   20 am   
    49   58   20 1    
    50   22   21 2    
    51   23   21 1    
    52   24   23 1    
    53   25   23 2    
    54   81   24 1    
    55   82   24 1    
    56   83   24 1    
    57   26   25 1    
    58   59   25 1    
    59   27   26 2    
    60   60   26 1    
    61   28   27 1    
    62   61   27 1    
    63   29   28 1    
    64   31   28 1    
    65   62   28 1    
    66   30   29 1    
    67   84   30 1    
    68   85   30 1    
    69   86   30 1    
    70   32   31 1    
    71   36   31 1    
    72   63   31 1    
    73   33   32 1    
    74   34   33 am   
    75   35   33 2    
    76   64   34 1    
    77   65   34 1    
    78   37   36 1    
    79   38   36 2    
    80   87   37 1    
    81   88   37 1    
    82   89   37 1    
    83   39   38 1    
    84   66   38 1    
    85   40   39 1    
    86   41   39 1    
    87   67   39 1    
    88   90   40 1    
    89   91   40 1    
    90   92   40 1    
    91   42   41 1    
    92   68   41 1    
    93   93   42 1    
    94   44   43 2    
@<TRIPOS>SUBSTRUCTURE
     1 KOS280      1 GROUP   
@<TRIPOS>SET

