#    Name: 4kao_KAO_1_INTS_M
#    Modification time : Tue Mar 25 07:38:49 2014

@<TRIPOS>MOLECULE
4kao_KAO_1_INTS_M
   83     0     9     0     0
SMALL
NO_CHARGES


@<TRIPOS>ATOM
      1 CA          1.1305  -12.0080   14.7430 C.3       3 GLC5        0.0000 
      2 CA          3.1130  -12.1710   14.6260 C.3       9 GLL5        0.0000 
      3 CA         -0.8520  -11.8450   14.8600 C.3       6 GLP5        0.0000 
      4 O           4.4285  -10.2310   17.7830 O.2       1 ALC1        0.0000 
      5 O           3.8110  -10.9310   16.6820 O.2       7 ALL1        0.0000 
      6 O           5.0460   -9.5310   18.8840 O.2       4 ALP1        0.0000 
      7 CA          1.4525  -12.6930   11.1210 C.3       3 GLC5        0.0000 
      8 CA          1.4990  -14.0200   12.7700 C.3       9 GLL5        0.0000 
      9 CA          1.4060  -11.3660    9.4720 C.3       6 GLP5        0.0000 
     10 CA          0.7235  -15.7505   13.1490 C.3       3 GLC5        0.0000 
     11 CA         -0.0520  -17.4810   13.5280 C.3       6 GLP5        0.0000 
     12 CA         -0.5765  -14.3725   12.3300 C.3       3 GLC5        0.0000 
     13 CA         -2.6520  -14.7250   11.8900 C.3       6 GLP5        0.0000 
     14 CA          0.3235  -12.9325   13.8150 C.3       3 GLC5        0.0000 
     15 CA          4.9525  -13.7305   10.4495 C.3       3 GLC5        0.0000 
     16 CA          3.6020  -13.3800   11.6070 C.3       9 GLL5        0.0000 
     17 CA          6.3030  -14.0810    9.2920 C.3       6 GLP5        0.0000 
     18 CA          2.5040  -12.3730   10.5395 C.3       3 GLC5        0.0000 
     19 CA          5.0640  -15.4620   11.2460 C.3       3 GLC5        0.0000 
     20 CA          3.4630  -15.5440   12.8240 C.3       9 GLL5        0.0000 
     21 CA          6.6650  -15.3800    9.6680 C.3       6 GLP5        0.0000 
     22 CA          4.1190  -17.0875   12.2640 C.3       3 GLC5        0.0000 
     23 CA          4.7750  -18.6310   11.7040 C.3       6 GLP5        0.0000 
     24 CA          1.7055  -16.5125   13.1760 C.3       3 GLC5        0.0000 
     25 CA          7.7925  -14.5570   15.3340 C.3       3 GLC5        0.0000 
     26 CA          6.8570  -13.8050   16.5560 C.3       9 GLL5        0.0000 
     27 CA          8.7280  -15.3090   14.1120 C.3       6 GLP5        0.0000 
     28 CA          8.7730  -14.2535   16.0810 C.3       3 GLC5        0.0000 
     29 CA          7.7580  -14.1570   17.5400 C.3       9 GLL5        0.0000 
     30 CA          9.7880  -14.3500   14.6220 C.3       6 GLP5        0.0000 
     31 N           0.9380  -11.5615   16.5215 N.am      2 SEC2        0.0000 
     32 N           1.6910  -10.2500   16.2520 N.am      8 SEL2        0.0000 
     33 N           0.1850  -12.8730   16.7910 N.am      5 SEP2        0.0000 
     34 O           4.0450   -9.2185   18.1970 O.2       1 ALC1        0.0000 
     35 O           3.0440   -8.9060   17.5100 O.2       7 ALL1        0.0000 
     36 CA          3.0945   -7.7540   15.2610 C.3       3 GLC5        0.0000 
     37 CA          1.5170   -7.2470   16.6330 C.3       9 GLL5        0.0000 
     38 CA          4.6720   -8.2610   13.8890 C.3       6 GLP5        0.0000 
     39 CA          0.0465   -3.1920   20.9760 C.3       3 GLC5        0.0000 
     40 CA         -1.1890   -4.3940   19.5390 C.3       9 GLL5        0.0000 
     41 CA          1.2820   -1.9900   22.4130 C.3       6 GLP5        0.0000 
     42 CA         -0.6165   -1.7820   18.2980 C.3       3 GLC5        0.0000 
     43 CA         -2.4970   -2.6650   18.6010 C.3       9 GLL5        0.0000 
     44 CA          1.2640   -0.8990   17.9950 C.3       6 GLP5        0.0000 
     45 CA         -2.3950   -0.8145   18.0545 C.3       3 GLC5        0.0000 
     46 CA         -2.2930    1.0360   17.5080 C.3       6 GLP5        0.0000 
     47 N          -2.7255   -2.1855   16.0910 N.am      2 SEC2        0.0000 
     48 N          -1.9590   -2.8350   17.3930 N.am      8 SEL2        0.0000 
     49 N          -3.4920   -1.5360   14.7890 N.am      5 SEP2        0.0000 
     50 CA          4.9582  -11.2353   14.5627 C.3       3 GLC5        0.0000 
     51 CA          6.4460  -10.3990   13.9240 C.3       6 GLP5        0.0000 
     52 CA          2.5688  -13.4497   16.2698 C.3       3 GLC5        0.0000 
     53 CA          3.8280  -11.9720   15.7770 C.3       9 GLL5        0.0000 
     54 CA          1.6670  -14.8280   17.3380 C.3       6 GLP5        0.0000 
     55 CA          6.3303  -12.0065   15.3250 C.3       3 GLC5        0.0000 
     56 CA          5.5720  -13.4230   16.8960 C.3       9 GLL5        0.0000 
     57 CA          3.5287  -14.1170   17.4507 C.3       3 GLC5        0.0000 
     58 CA          8.4288  -12.5190   17.5720 C.3       3 GLC5        0.0000 
     59 CA          9.5500  -11.0570   18.0960 C.3       6 GLP5        0.0000 
     60 CA          8.7248  -12.6960   18.7545 C.3       3 GLC5        0.0000 
     61 CA          7.4070  -14.1350   18.8790 C.3       9 GLL5        0.0000 
     62 CA          6.5431  -11.7095   18.3669 C.3       3 GLC5        0.0000 
     63 CA          6.1200  -13.7420   19.2060 C.3       9 GLL5        0.0000 
     64 CA          7.3310   -9.8450   18.3490 C.3       6 GLP5        0.0000 
     65 CA          2.9860   -6.0903   20.3788 C.3       3 GLC5        0.0000 
     66 CA          1.9470   -7.3040   18.9810 C.3       9 GLL5        0.0000 
     67 CA          4.4670   -5.3990   21.6860 C.3       6 GLP5        0.0000 
     68 CA         -1.3493   -6.2995   17.1213 C.3       3 GLC5        0.0000 
     69 CA          0.3820   -5.6920   18.0910 C.3       9 GLL5        0.0000 
     70 CA         -3.2070   -6.6510   16.7850 C.3       6 GLP5        0.0000 
     71 CA          0.8610   -6.5077   15.0948 C.3       3 GLC5        0.0000 
     72 CA          0.6350   -6.2040   16.8240 C.3       9 GLL5        0.0000 
     73 CA          0.6460   -6.2900   13.4610 C.3       6 GLP5        0.0000 
     74 CA          2.4139   -5.0629   17.2756 C.3       3 GLC5        0.0000 
     75 CA          4.1490   -4.0360   16.8260 C.3       6 GLP5        0.0000 
     76 CA          3.5535   -6.8611   17.4664 C.3       3 GLC5        0.0000 
     77 CA          5.3180   -6.3200   17.4430 C.3       6 GLP5        0.0000 
     78 CA          0.2215   -2.5500   17.8873 C.3       3 GLC5        0.0000 
     79 CA         -0.6080   -4.6110   18.2970 C.3       9 GLL5        0.0000 
     80 CA         -2.7635   -4.8453   17.9662 C.3       3 GLC5        0.0000 
     81 CA         -2.1430   -3.4140   19.6940 C.3       9 GLL5        0.0000 
     82 CA         -2.0866   -5.3989   17.4375 C.3       3 GLC5        0.0000 
     83 CA         -1.0340   -3.7910   17.2620 C.3       9 GLL5        0.0000 
@<TRIPOS>BOND
@<TRIPOS>SUBSTRUCTURE
     1 ALC1        4 GROUP        1 X    ALC  0     ROOT ALC X 1
     2 SEC2       31 GROUP        1 X    SEC  0     **** SEC X 2
     3 GLC5        1 GROUP        1 X    GLC  0     **** GLC X 6
     4 ALP1        6 GROUP        1 Y    ALP  0     ROOT ALP Y 8
     5 SEP2       33 GROUP        1 Y    SEP  0     **** SEP Y 9
     6 GLP5        3 GROUP        1 Y    GLP  0     **** GLP Y 13
     7 ALL1        5 GROUP        1 Z    ALL  0     ROOT ALL Z 15
     8 SEL2       32 GROUP        1 Z    SEL  0     **** SEL Z 16
     9 GLL5        2 GROUP        1 Z    GLL  0     **** GLL Z 20
@<TRIPOS>SET

