#    Name: 4kao_KAO_1_ligand
#    Modification time : Tue Mar 25 07:38:49 2014

@<TRIPOS>MOLECULE
4kao_KAO_1_ligand
   59    62     1     0     0
SMALL
NO_CHARGES


@<TRIPOS>ATOM
      1 N1          4.6260  -13.0950   15.8830 N.pl3     1 KAO701      0.0000 
      2 C2          3.8280  -11.9720   15.7770 C.2       1 KAO701      0.0000 
      3 C3          3.1130  -12.1710   14.6260 C.2       1 KAO701      0.0000 
      4 C4          3.5140  -13.4050   14.0940 C.2       1 KAO701      0.0000 
      5 N5          4.4360  -13.9820   14.8460 N.2       1 KAO701      0.0000 
      6 N6          3.8110  -10.9310   16.6820 N.am      1 KAO701      0.0000 
      7 C7          2.7710  -10.0310   16.7830 C.2       1 KAO701      0.0000 
      8 C8          3.0220  -14.0850   12.8290 C.3       1 KAO701      0.0000 
      9 C9          1.4990  -14.0200   12.7700 C.3       1 KAO701      0.0000 
     10 C10         3.6020  -13.3800   11.6070 C.3       1 KAO701      0.0000 
     11 C11         3.4630  -15.5440   12.8240 C.3       1 KAO701      0.0000 
     12 C12         5.5720  -13.4230   16.8960 C.ar      1 KAO701      0.0000 
     13 C13         6.8570  -13.8050   16.5560 C.ar      1 KAO701      0.0000 
     14 C14         7.7580  -14.1570   17.5400 C.ar      1 KAO701      0.0000 
     15 C15         7.4070  -14.1350   18.8790 C.ar      1 KAO701      0.0000 
     16 C16         6.1200  -13.7420   19.2060 C.ar      1 KAO701      0.0000 
     17 C17         5.2090  -13.3890   18.2310 C.ar      1 KAO701      0.0000 
     18 C18         8.3920  -14.5350   19.9470 C.3       1 KAO701      0.0000 
     19 O19         1.6910  -10.2500   16.2520 O.2       1 KAO701      0.0000 
     20 N20         3.0440   -8.9060   17.5100 N.am      1 KAO701      0.0000 
     21 C21         2.1750   -7.8110   17.7120 C.ar      1 KAO701      0.0000 
     22 C22         1.9470   -7.3040   18.9810 C.ar      1 KAO701      0.0000 
     23 C23         1.0630   -6.2590   19.1620 C.ar      1 KAO701      0.0000 
     24 C24         0.3820   -5.6920   18.0910 C.ar      1 KAO701      0.0000 
     25 C25         0.6350   -6.2040   16.8240 C.ar      1 KAO701      0.0000 
     26 C26         1.5170   -7.2470   16.6330 C.ar      1 KAO701      0.0000 
     27 C27        -0.6080   -4.6110   18.2970 C.ar      1 KAO701      0.0000 
     28 C28        -1.1890   -4.3940   19.5390 C.ar      1 KAO701      0.0000 
     29 C29        -2.1430   -3.4140   19.6940 C.ar      1 KAO701      0.0000 
     30 C30        -2.4970   -2.6650   18.6010 C.ar      1 KAO701      0.0000 
     31 N31        -1.9590   -2.8350   17.3930 N.ar      1 KAO701      0.0000 
     32 C32        -1.0340   -3.7910   17.2620 C.ar      1 KAO701      0.0000 
     33 H           2.4669  -11.5968   14.2457 H         1 KAO701      0.0000 
     34 H           4.6363  -10.8177   17.3303 H         1 KAO701      0.0000 
     35 H           7.1412  -13.8264   15.5640 H         1 KAO701      0.0000 
     36 H           8.7213  -14.4451   17.2723 H         1 KAO701      0.0000 
     37 H           5.8363  -13.7129   20.2060 H         1 KAO701      0.0000 
     38 H           4.2548  -13.0989   18.4965 H         1 KAO701      0.0000 
     39 H           4.0062   -8.8310   17.9791 H         1 KAO701      0.0000 
     40 H           2.4401   -7.7098   19.7915 H         1 KAO701      0.0000 
     41 H           0.9003   -5.8851   20.1187 H         1 KAO701      0.0000 
     42 H           0.1464   -5.7885   16.0050 H         1 KAO701      0.0000 
     43 H           1.6886   -7.6103   15.6811 H         1 KAO701      0.0000 
     44 H          -0.9014   -4.9715   20.3445 H         1 KAO701      0.0000 
     45 H          -2.5776   -3.2495   20.6063 H         1 KAO701      0.0000 
     46 H          -3.2386   -1.9157   18.7403 H         1 KAO701      0.0000 
     47 H          -0.5819   -3.9499   16.3085 H         1 KAO701      0.0000 
     48 H           1.1673  -13.0766   12.7692 H         1 KAO701      0.0000 
     49 H           1.1403  -14.4576   11.9455 H         1 KAO701      0.0000 
     50 H           1.0771  -14.4783   13.5523 H         1 KAO701      0.0000 
     51 H           4.6018  -13.4002   11.6063 H         1 KAO701      0.0000 
     52 H           3.2996  -13.8059   10.7542 H         1 KAO701      0.0000 
     53 H           3.3282  -12.4190   11.5679 H         1 KAO701      0.0000 
     54 H           4.4585  -15.6312   12.8601 H         1 KAO701      0.0000 
     55 H           3.0962  -16.0455   13.6076 H         1 KAO701      0.0000 
     56 H           3.1566  -16.0218   12.0007 H         1 KAO701      0.0000 
     57 H           8.7049  -15.4775   19.8294 H         1 KAO701      0.0000 
     58 H           9.2052  -13.9530   19.9390 H         1 KAO701      0.0000 
     59 H           7.9942  -14.4702   20.8622 H         1 KAO701      0.0000 
@<TRIPOS>BOND
     1    2    1 1    
     2    5    1 1    
     3   12    1 1    
     4    3    2 2    
     5    6    2 1    
     6    4    3 1    
     7   33    3 1    
     8    5    4 2    
     9    8    4 1    
    10    7    6 am   
    11   34    6 1    
    12   19    7 2    
    13   20    7 am   
    14    9    8 1    
    15   10    8 1    
    16   11    8 1    
    17   48    9 1    
    18   49    9 1    
    19   50    9 1    
    20   51   10 1    
    21   52   10 1    
    22   53   10 1    
    23   54   11 1    
    24   55   11 1    
    25   56   11 1    
    26   13   12 ar   
    27   17   12 ar   
    28   14   13 ar   
    29   35   13 1    
    30   15   14 ar   
    31   36   14 1    
    32   16   15 ar   
    33   18   15 1    
    34   17   16 ar   
    35   37   16 1    
    36   38   17 1    
    37   57   18 1    
    38   58   18 1    
    39   59   18 1    
    40   21   20 1    
    41   39   20 1    
    42   22   21 ar   
    43   26   21 ar   
    44   23   22 ar   
    45   40   22 1    
    46   24   23 ar   
    47   41   23 1    
    48   25   24 ar   
    49   27   24 1    
    50   26   25 ar   
    51   42   25 1    
    52   43   26 1    
    53   28   27 ar   
    54   32   27 ar   
    55   29   28 ar   
    56   44   28 1    
    57   30   29 ar   
    58   45   29 1    
    59   31   30 ar   
    60   46   30 1    
    61   32   31 ar   
    62   47   32 1    
@<TRIPOS>SUBSTRUCTURE
     1 KAO701      1 GROUP   
@<TRIPOS>SET

