#    Name: 4bft_ZVT_2_INTS_M
#    Modification time : Tue Mar 25 07:38:00 2014

@<TRIPOS>MOLECULE
4bft_ZVT_2_INTS_M
   65     0     6     0     0
SMALL
NO_CHARGES


@<TRIPOS>ATOM
      1 CA        -67.7645  -14.2315   18.5880 C.3       2 GLC5        0.0000 
      2 CA        -67.9340  -14.0310   20.6410 C.3       6 GLL5        0.0000 
      3 CA        -67.5950  -14.4320   16.5350 C.3       4 GLP5        0.0000 
      4 CA        -63.2430  -13.0510   24.1465 C.3       2 GLC5        0.0000 
      5 CA        -63.6940  -13.0160   22.0950 C.3       6 GLL5        0.0000 
      6 CA        -62.7920  -13.0860   26.1980 C.3       4 GLP5        0.0000 
      7 CA        -64.1465  -10.2880   23.3750 C.3       2 GLC5        0.0000 
      8 CA        -64.6530  -11.9870   22.0230 C.3       6 GLL5        0.0000 
      9 CA        -63.6400   -8.5890   24.7270 C.3       4 GLP5        0.0000 
     10 CA        -68.0505   -9.0515   22.6390 C.3       2 GLC5        0.0000 
     11 CA        -67.5730   -8.9590   20.6230 C.3       6 GLL5        0.0000 
     12 CA        -68.5280   -9.1440   24.6550 C.3       4 GLP5        0.0000 
     13 CA        -66.0325   -7.0935   18.6130 C.3       2 GLC5        0.0000 
     14 CA        -66.9480   -7.8230   19.8210 C.3       6 GLL5        0.0000 
     15 CA        -65.1170   -6.3640   17.4050 C.3       4 GLP5        0.0000 
     16 CA        -69.3865   -8.7390   23.3130 C.3       2 GLC5        0.0000 
     17 CA        -70.2450   -8.3340   21.9710 C.3       6 GLL5        0.0000 
     18 CA        -71.1645   -8.0535   23.3550 C.3       2 GLC5        0.0000 
     19 CA        -72.0840   -7.7730   24.7390 C.3       4 GLP5        0.0000 
     20 N         -68.5505   -9.8765   17.4715 N.am      1 SEC2        0.0000 
     21 N         -69.1600   -9.7720   18.8290 N.am      5 SEL2        0.0000 
     22 N         -67.9410   -9.9810   16.1140 N.am      3 SEP2        0.0000 
     23 CA        -74.3890   -9.1270   19.1685 C.3       2 GLC5        0.0000 
     24 CA        -72.7620   -9.2170   20.0730 C.3       6 GLL5        0.0000 
     25 CA        -76.0160   -9.0370   18.2640 C.3       4 GLP5        0.0000 
     26 CA        -73.0935   -7.7285   18.7650 C.3       2 GLC5        0.0000 
     27 CA        -73.4250   -6.2400   17.4570 C.3       4 GLP5        0.0000 
     28 CA        -73.9405  -13.2125   21.1240 C.3       2 GLC5        0.0000 
     29 CA        -72.4350  -11.6460   21.3210 C.3       6 GLL5        0.0000 
     30 CA        -75.4460  -14.7790   20.9270 C.3       4 GLP5        0.0000 
     31 CA        -73.7035  -15.6055   16.4665 C.3       2 GLC5        0.0000 
     32 CA        -72.6820  -14.0410   17.0510 C.3       6 GLL5        0.0000 
     33 CA        -74.7250  -17.1700   15.8820 C.3       4 GLP5        0.0000 
     34 CA        -70.3475  -16.2900   14.9810 C.3       2 GLC5        0.0000 
     35 CA        -71.2430  -15.8440   16.5410 C.3       6 GLL5        0.0000 
     36 CA        -69.4520  -16.7360   13.4210 C.3       4 GLP5        0.0000 
     37 CA        -71.0700  -14.3800   15.5515 C.3       2 GLC5        0.0000 
     38 CA        -70.8970  -12.9160   14.5620 C.3       4 GLP5        0.0000 
     39 CA        -68.0173  -14.6108   22.6205 C.3       2 GLC5        0.0000 
     40 CA        -68.9260  -15.4100   24.3160 C.3       4 GLP5        0.0000 
     41 CA        -65.4873  -14.0945   19.2428 C.3       2 GLC5        0.0000 
     42 CA        -66.2830  -13.5920   21.2090 C.3       6 GLL5        0.0000 
     43 CA        -65.1790  -14.0840   17.2450 C.3       4 GLP5        0.0000 
     44 CA        -62.6155  -13.7515   20.5508 C.3       2 GLC5        0.0000 
     45 CA        -64.0140  -14.3320   21.7240 C.3       6 GLL5        0.0000 
     46 CA        -61.3770  -13.8290   19.1920 C.3       4 GLP5        0.0000 
     47 CA        -62.6797  -11.4537   21.3695 C.3       2 GLC5        0.0000 
     48 CA        -61.1860  -10.4060   20.6800 C.3       4 GLP5        0.0000 
     49 CA        -74.7037  -11.0212   21.3005 C.3       2 GLC5        0.0000 
     50 CA        -76.8200  -11.1360   21.1510 C.3       4 GLP5        0.0000 
     51 CA        -72.6287   -9.9593   23.1885 C.3       2 GLC5        0.0000 
     52 CA        -72.7400  -10.1670   21.5790 C.3       6 GLL5        0.0000 
     53 CA        -72.6700   -9.0120   24.9270 C.3       4 GLP5        0.0000 
     54 CA        -74.1508  -13.9050   19.7612 C.3       2 GLC5        0.0000 
     55 CA        -72.5850  -12.9960   19.2410 C.3       6 GLL5        0.0000 
     56 CA        -74.6090  -12.7988   16.7417 C.3       2 GLC5        0.0000 
     57 CA        -73.1260  -13.0660   17.9500 C.3       6 GLL5        0.0000 
     58 CA        -76.3140  -12.0440   15.9830 C.3       4 GLP5        0.0000 
     59 CA        -72.9436  -15.4327   19.5075 C.3       2 GLC5        0.0000 
     60 CA        -71.6650  -14.9230   17.4310 C.3       6 GLL5        0.0000 
     61 CA        -74.3830  -16.2090   20.7170 C.3       4 GLP5        0.0000 
     62 CA        -69.4385  -14.7801   17.1930 C.3       2 GLC5        0.0000 
     63 CA        -71.1100  -14.8730   18.7160 C.3       6 GLL5        0.0000 
     64 CA        -72.1770  -16.5606   17.7525 C.3       2 GLC5        0.0000 
     65 CA        -73.0720  -17.9930   17.6540 C.3       4 GLP5        0.0000 
@<TRIPOS>BOND
@<TRIPOS>SUBSTRUCTURE
     1 SEC2       20 GROUP        1 X    SEC  0     ROOT SEC X 2
     2 GLC5        1 GROUP        1 X    GLC  0     **** GLC X 6
     3 SEP2       22 GROUP        1 Y    SEP  0     ROOT SEP Y 9
     4 GLP5        3 GROUP        1 Y    GLP  0     **** GLP Y 13
     5 SEL2       21 GROUP        1 Z    SEL  0     ROOT SEL Z 16
     6 GLL5        2 GROUP        1 Z    GLL  0     **** GLL Z 20
@<TRIPOS>SET

