#    Name: 4bft_ZVT_2_ligand
#    Modification time : Tue Mar 25 07:38:00 2014

@<TRIPOS>MOLECULE
4bft_ZVT_2_ligand
   49    51     1     0     0
SMALL
NO_CHARGES


@<TRIPOS>ATOM
      1 CL        -67.9340  -14.0310   20.6410 Cl        1 ZVT501      0.0000 
      2 CAX       -66.2830  -13.5920   21.2090 C.ar      1 ZVT501      0.0000 
      3 CAH       -65.3080  -14.6180   21.2720 C.ar      1 ZVT501      0.0000 
      4 CAF       -64.0140  -14.3320   21.7240 C.ar      1 ZVT501      0.0000 
      5 CAG       -63.6940  -13.0160   22.0950 C.ar      1 ZVT501      0.0000 
      6 CAI       -64.6530  -11.9870   22.0230 C.ar      1 ZVT501      0.0000 
      7 CAY       -65.9650  -12.2700   21.5860 C.ar      1 ZVT501      0.0000 
      8 CAU       -66.9380  -11.1180   21.5210 C.2       1 ZVT501      0.0000 
      9 OAC       -67.9230  -11.1020   22.2380 O.2       1 ZVT501      0.0000 
     10 NAR       -66.6850  -10.1100   20.6780 N.am      1 ZVT501      0.0000 
     11 CBB       -67.5730   -8.9590   20.6230 C.3       1 ZVT501      0.0000 
     12 CAA       -66.9480   -7.8230   19.8210 C.3       1 ZVT501      0.0000 
     13 CBA       -68.9130   -9.2430   20.0460 C.2       1 ZVT501      0.0000 
     14 NBC       -70.0790   -8.9560   20.6320 N.pl3     1 ZVT501      0.0000 
     15 CAB       -70.2450   -8.3340   21.9710 C.3       1 ZVT501      0.0000 
     16 NAQ       -69.1600   -9.7720   18.8290 N.2       1 ZVT501      0.0000 
     17 NAP       -70.5450   -9.8640   18.6320 N.2       1 ZVT501      0.0000 
     18 CAZ       -71.0250   -9.3400   19.7680 C.2       1 ZVT501      0.0000 
     19 SAT       -72.7620   -9.2170   20.0730 S.3       1 ZVT501      0.0000 
     20 CAO       -72.7400  -10.1670   21.5790 C.3       1 ZVT501      0.0000 
     21 CAN       -72.4350  -11.6460   21.3210 C.3       1 ZVT501      0.0000 
     22 OAS       -73.0710  -12.0280   20.0940 O.3       1 ZVT501      0.0000 
     23 CAW       -72.5850  -12.9960   19.2410 C.ar      1 ZVT501      0.0000 
     24 CAL       -71.5770  -13.9070   19.6140 C.ar      1 ZVT501      0.0000 
     25 CAM       -73.1260  -13.0660   17.9500 C.ar      1 ZVT501      0.0000 
     26 CAK       -72.6820  -14.0410   17.0510 C.ar      1 ZVT501      0.0000 
     27 CAV       -71.6650  -14.9230   17.4310 C.ar      1 ZVT501      0.0000 
     28 FAD       -71.2430  -15.8440   16.5410 F         1 ZVT501      0.0000 
     29 CAJ       -71.1100  -14.8730   18.7160 C.ar      1 ZVT501      0.0000 
     30 H         -65.5574  -15.5682   20.9848 H         1 ZVT501      0.0000 
     31 H         -63.3124  -15.0679   21.7836 H         1 ZVT501      0.0000 
     32 H         -62.7426  -12.7977   22.4255 H         1 ZVT501      0.0000 
     33 H         -64.3995  -11.0320   22.2877 H         1 ZVT501      0.0000 
     34 H         -65.8728  -10.1001   20.0452 H         1 ZVT501      0.0000 
     35 H         -67.7240   -8.5585   21.6442 H         1 ZVT501      0.0000 
     36 H         -73.7186  -10.0063   21.9842 H         1 ZVT501      0.0000 
     37 H         -71.9862   -9.6804   22.1644 H         1 ZVT501      0.0000 
     38 H         -72.8111  -12.2178   22.1679 H         1 ZVT501      0.0000 
     39 H         -71.3534  -11.7606   21.2700 H         1 ZVT501      0.0000 
     40 H         -71.1801  -13.8576   20.5643 H         1 ZVT501      0.0000 
     41 H         -73.8517  -12.3977   17.6641 H         1 ZVT501      0.0000 
     42 H         -73.0994  -14.1090   16.1188 H         1 ZVT501      0.0000 
     43 H         -70.3815  -15.5267   18.9904 H         1 ZVT501      0.0000 
     44 H         -66.0831   -7.5186   20.2202 H         1 ZVT501      0.0000 
     45 H         -66.7558   -8.0958   18.8783 H         1 ZVT501      0.0000 
     46 H         -67.5483   -7.0244   19.7784 H         1 ZVT501      0.0000 
     47 H         -69.8361   -8.8921   22.6930 H         1 ZVT501      0.0000 
     48 H         -69.8143   -7.4327   22.0178 H         1 ZVT501      0.0000 
     49 H         -71.2091   -8.2108   22.2063 H         1 ZVT501      0.0000 
@<TRIPOS>BOND
     1    2    1 1    
     2    3    2 ar   
     3    7    2 ar   
     4    4    3 ar   
     5   30    3 1    
     6    5    4 ar   
     7   31    4 1    
     8    6    5 ar   
     9   32    5 1    
    10    7    6 ar   
    11   33    6 1    
    12    8    7 1    
    13    9    8 2    
    14   10    8 am   
    15   11   10 1    
    16   34   10 1    
    17   12   11 1    
    18   13   11 1    
    19   35   11 1    
    20   44   12 1    
    21   45   12 1    
    22   46   12 1    
    23   14   13 1    
    24   16   13 2    
    25   15   14 1    
    26   18   14 1    
    27   47   15 1    
    28   48   15 1    
    29   49   15 1    
    30   17   16 1    
    31   18   17 2    
    32   19   18 1    
    33   20   19 1    
    34   21   20 1    
    35   36   20 1    
    36   37   20 1    
    37   22   21 1    
    38   38   21 1    
    39   39   21 1    
    40   23   22 1    
    41   24   23 ar   
    42   25   23 ar   
    43   29   24 ar   
    44   40   24 1    
    45   26   25 ar   
    46   41   25 1    
    47   27   26 ar   
    48   42   26 1    
    49   28   27 1    
    50   29   27 ar   
    51   43   29 1    
@<TRIPOS>SUBSTRUCTURE
     1 ZVT501      1 GROUP   
@<TRIPOS>SET

