#    Name: 3af2_ACP_1_INTS_M
#    Modification time : Tue Mar 25 11:49:39 2014

@<TRIPOS>MOLECULE
3af2_ACP_1_INTS_M
   46     0    12     0     0
SMALL
NO_CHARGES


@<TRIPOS>ATOM
      1 N         -35.1540   27.0755   -3.3410 N.am      2 SEC2        0.0000 
      2 N         -35.8540   28.1830   -3.9490 N.am     10 SEL2        0.0000 
      3 N         -34.4540   25.9680   -2.7330 N.am      6 SEP2        0.0000 
      4 N         -35.6280   26.7835   -4.6980 N.am      2 SEC2        0.0000 
      5 N         -35.4020   25.3840   -5.4470 N.am      6 SEP2        0.0000 
      6 NZ        -37.9200   25.6835   -3.7795 N.4       3 LYC4        0.0000 
      7 NZ        -38.1260   26.9880   -3.9830 N.4      11 LYL4        0.0000 
      8 NZ        -37.8180   23.6720   -2.4520 N.4       7 LYP4        0.0000 
      9 N         -36.7640   26.1860   -4.7150 N.am      2 SEC2        0.0000 
     10 N         -38.1260   26.9880   -3.9830 N.am     10 SEL2        0.0000 
     11 N         -37.9200   25.6835   -3.7795 N.am      2 SEC2        0.0000 
     12 N         -37.7140   24.3790   -3.5760 N.am      6 SEP2        0.0000 
     13 N         -35.0890   31.6685   -4.1570 N.am      2 SEC2        0.0000 
     14 N         -36.4690   31.7590   -3.4880 N.am     10 SEL2        0.0000 
     15 N         -33.7090   31.5780   -4.8260 N.am      6 SEP2        0.0000 
     16 N         -34.9785   29.1110   -1.4615 N.am      2 SEC2        0.0000 
     17 N         -35.6740   30.0400   -1.7990 N.am     10 SEL2        0.0000 
     18 N         -34.2830   28.1820   -1.1240 N.am      6 SEP2        0.0000 
     19 CA        -37.3085   28.4345   -1.8300 C.3       4 GLC5        0.0000 
     20 CA        -38.0780   29.5800   -2.8990 C.3      12 GLL5        0.0000 
     21 CA        -36.5390   27.2890   -0.7610 C.3       8 GLP5        0.0000 
     22 NZ        -39.2325   32.7950   -3.9290 N.4       3 LYC4        0.0000 
     23 NZ        -38.9390   33.1120   -2.5520 N.4      11 LYL4        0.0000 
     24 NZ        -40.6090   33.2240   -5.4550 N.4       7 LYP4        0.0000 
     25 N         -37.9350   33.9460   -2.9740 N.am      2 SEC2        0.0000 
     26 N         -38.9390   33.1120   -2.5520 N.am     10 SEL2        0.0000 
     27 N         -36.9310   34.7800   -3.3960 N.am      6 SEP2        0.0000 
     28 N         -39.2325   32.7950   -3.9290 N.am      2 SEC2        0.0000 
     29 N         -39.5260   32.4780   -5.3060 N.am      6 SEP2        0.0000 
     30 N         -39.9100   33.6595   -3.5800 N.am      2 SEC2        0.0000 
     31 N         -40.8810   34.2070   -4.6080 N.am      6 SEP2        0.0000 
     32 N         -42.2175   34.2560   -4.3390 N.am      2 SEC2        0.0000 
     33 N         -43.5540   34.3050   -4.0700 N.am     10 SEL2        0.0000 
     34 CA        -45.1770   33.5195   -5.1170 C.3       4 GLC5        0.0000 
     35 CA        -44.6710   34.8190   -3.5680 C.3      12 GLL5        0.0000 
     36 CA        -45.6830   32.2200   -6.6660 C.3       8 GLP5        0.0000 
     37 O         -44.4790   38.3200   -4.4900 O.2       1 ALC1        0.0000 
     38 O         -44.8580   36.8710   -4.6760 O.2       9 ALL1        0.0000 
     39 O         -44.1000   39.7690   -4.3040 O.2       5 ALP1        0.0000 
     40 CA        -45.7845   32.4925   -4.0775 C.3       4 GLC5        0.0000 
     41 CA        -45.1860   33.8900   -2.6670 C.3      12 GLL5        0.0000 
     42 CA        -46.3830   31.0950   -5.4880 C.3       8 GLP5        0.0000 
     43 CA        -45.3120   31.0057   -3.8275 C.3       4 GLC5        0.0000 
     44 CA        -44.4310   31.5760   -1.8230 C.3      12 GLL5        0.0000 
     45 CA        -44.3985   30.4461   -0.0421 C.3       4 GLC5        0.0000 
     46 CA        -45.3470   30.3160    1.6160 C.3       8 GLP5        0.0000 
@<TRIPOS>BOND
@<TRIPOS>SUBSTRUCTURE
     1 ALC1       37 GROUP        1 X    ALC  0     ROOT ALC X 1
     2 SEC2        1 GROUP        1 X    SEC  0     **** SEC X 2
     3 LYC4        6 GROUP        1 X    LYC  0     **** LYC X 4
     4 GLC5       19 GROUP        1 X    GLC  0     **** GLC X 6
     5 ALP1       39 GROUP        1 Y    ALP  0     ROOT ALP Y 8
     6 SEP2        3 GROUP        1 Y    SEP  0     **** SEP Y 9
     7 LYP4        8 GROUP        1 Y    LYP  0     **** LYP Y 11
     8 GLP5       21 GROUP        1 Y    GLP  0     **** GLP Y 13
     9 ALL1       38 GROUP        1 Z    ALL  0     ROOT ALL Z 15
    10 SEL2        2 GROUP        1 Z    SEL  0     **** SEL Z 16
    11 LYL4        7 GROUP        1 Z    LYL  0     **** LYL Z 18
    12 GLL5       20 GROUP        1 Z    GLL  0     **** GLL Z 20
@<TRIPOS>SET

