#    Name: 3af2_ACP_1_ligand
#    Modification time : Tue Mar 25 11:49:39 2014

@<TRIPOS>MOLECULE
3af2_ACP_1_ligand
   45    47     1     0     0
SMALL
NO_CHARGES


@<TRIPOS>ATOM
      1 PG        -37.4620   28.3070   -4.0900 P.3       1 ACP313      0.0000 
      2 O1G       -37.6140   29.0090   -5.5450 O.co2     1 ACP313      0.0000 
      3 O2G       -35.8540   28.1830   -3.9490 O.co2     1 ACP313      0.0000 
      4 O3G       -38.1260   26.9880   -3.9830 O.co2     1 ACP313      0.0000 
      5 PB        -36.7830   30.8050   -2.4030 P.3       1 ACP313      0.0000 
      6 O1B       -36.4690   31.7590   -3.4880 O.co2     1 ACP313      0.0000 
      7 O2B       -35.6740   30.0400   -1.7990 O.co2     1 ACP313      0.0000 
      8 C3B       -38.0780   29.5800   -2.8990 C.3       1 ACP313      0.0000 
      9 PA        -38.8410   32.4930   -1.2120 P.3       1 ACP313      0.0000 
     10 O1A       -38.9390   33.1120   -2.5520 O.co2     1 ACP313      0.0000 
     11 O2A       -38.8180   33.3840   -0.0200 O.co2     1 ACP313      0.0000 
     12 O3A       -37.4810   31.6020   -1.1600 O.3       1 ACP313      0.0000 
     13 O5'       -40.0270   31.3990   -0.9450 O.3       1 ACP313      0.0000 
     14 C5'       -41.3390   31.7030   -1.4000 C.3       1 ACP313      0.0000 
     15 C4'       -42.4280   30.8110   -0.7790 C.3       1 ACP313      0.0000 
     16 O4'       -43.6240   31.6210   -0.5980 O.3       1 ACP313      0.0000 
     17 C3'       -42.8900   29.6610   -1.6880 C.3       1 ACP313      0.0000 
     18 O3'       -43.3130   28.5400   -0.8900 O.3       1 ACP313      0.0000 
     19 C2'       -44.0510   30.2570   -2.5110 C.3       1 ACP313      0.0000 
     20 O2'       -45.1900   29.3970   -2.4590 O.3       1 ACP313      0.0000 
     21 C1'       -44.4310   31.5760   -1.8230 C.3       1 ACP313      0.0000 
     22 N9        -44.3690   32.8210   -2.6730 N.pl3     1 ACP313      0.0000 
     23 C8        -43.3880   33.0930   -3.5350 C.2       1 ACP313      0.0000 
     24 N7        -43.5540   34.3050   -4.0700 N.2       1 ACP313      0.0000 
     25 C5        -44.6710   34.8190   -3.5680 C.ar      1 ACP313      0.0000 
     26 C6        -45.3390   36.0220   -3.7770 C.ar      1 ACP313      0.0000 
     27 N6        -44.8580   36.8710   -4.6760 N.pl3     1 ACP313      0.0000 
     28 N1        -46.4580   36.3020   -3.0860 N.ar      1 ACP313      0.0000 
     29 C2        -46.9230   35.4020   -2.2330 C.ar      1 ACP313      0.0000 
     30 N3        -46.3260   34.2320   -2.0320 N.ar      1 ACP313      0.0000 
     31 C4        -45.1860   33.8900   -2.6670 C.ar      1 ACP313      0.0000 
     32 H         -38.3451   29.0723   -2.0389 H         1 ACP313      0.0000 
     33 H         -38.8118   30.1143   -3.3940 H         1 ACP313      0.0000 
     34 H         -41.4242   31.5984   -2.5040 H         1 ACP313      0.0000 
     35 H         -41.6161   32.7567   -1.1768 H         1 ACP313      0.0000 
     36 H         -42.1041   30.4202    0.1467 H         1 ACP313      0.0000 
     37 H         -42.0948   29.4296   -2.3528 H         1 ACP313      0.0000 
     38 H         -43.7191   30.4635   -3.4828 H         1 ACP313      0.0000 
     39 H         -45.4993   31.4313   -1.4924 H         1 ACP313      0.0000 
     40 H         -42.6431   32.4838   -3.7481 H         1 ACP313      0.0000 
     41 H         -44.8282   36.5422   -5.6200 H         1 ACP313      0.0000 
     42 H         -44.5688   37.7629   -4.3283 H         1 ACP313      0.0000 
     43 H         -47.8112   35.6231   -1.6851 H         1 ACP313      0.0000 
     44 H         -42.5284   27.9201   -0.8783 H         1 ACP313      0.0000 
     45 H         -45.0449   28.8240   -1.6523 H         1 ACP313      0.0000 
@<TRIPOS>BOND
     1    2    1 ar   
     2    3    1 ar   
     3    4    1 ar   
     4    8    1 1    
     5    6    5 ar   
     6    7    5 ar   
     7    8    5 1    
     8   12    5 1    
     9   32    8 1    
    10   33    8 1    
    11   10    9 ar   
    12   11    9 ar   
    13   12    9 1    
    14   13    9 1    
    15   14   13 1    
    16   15   14 1    
    17   34   14 1    
    18   35   14 1    
    19   16   15 1    
    20   17   15 1    
    21   36   15 1    
    22   21   16 1    
    23   18   17 1    
    24   19   17 1    
    25   37   17 1    
    26   44   18 1    
    27   20   19 1    
    28   21   19 1    
    29   38   19 1    
    30   45   20 1    
    31   22   21 1    
    32   39   21 1    
    33   23   22 1    
    34   31   22 1    
    35   24   23 2    
    36   40   23 1    
    37   25   24 1    
    38   26   25 ar   
    39   31   25 ar   
    40   27   26 1    
    41   28   26 ar   
    42   41   27 1    
    43   42   27 1    
    44   29   28 ar   
    45   30   29 ar   
    46   43   29 1    
    47   31   30 ar   
@<TRIPOS>SUBSTRUCTURE
     1 ACP313      1 GROUP   
@<TRIPOS>SET

