#    Name: 4eoi_1RO_2_INTS_M
#    Modification time : Mon Mar 24 18:21:59 2014

@<TRIPOS>MOLECULE
4eoi_1RO_2_INTS_M
   64     0     6     0     0
SMALL
NO_CHARGES


@<TRIPOS>ATOM
      1 CA        -38.1880  -12.8460  -34.6550 C.3       2 GLC5        0.0000 
      2 CA        -37.2880  -14.3920  -35.3760 C.3       6 GLL5        0.0000 
      3 CA        -39.0880  -11.3000  -33.9340 C.3       4 GLP5        0.0000 
      4 CA        -33.4435  -18.5940  -34.6035 C.3       2 GLC5        0.0000 
      5 CA        -34.9320  -17.6740  -35.2650 C.3       6 GLL5        0.0000 
      6 CA        -31.9550  -19.5140  -33.9420 C.3       4 GLP5        0.0000 
      7 CA        -35.5970  -14.8300  -37.0705 C.3       2 GLC5        0.0000 
      8 CA        -35.0430  -16.0230  -35.7770 C.3       6 GLL5        0.0000 
      9 CA        -36.1510  -13.6370  -38.3640 C.3       4 GLP5        0.0000 
     10 CA        -33.5770  -14.8200  -35.2575 C.3       2 GLC5        0.0000 
     11 CA        -32.1110  -13.6170  -34.7380 C.3       4 GLP5        0.0000 
     12 CA        -34.5965  -10.9485  -33.8025 C.3       2 GLC5        0.0000 
     13 CA        -35.1930  -12.2290  -32.5720 C.3       6 GLL5        0.0000 
     14 CA        -34.0000   -9.6680  -35.0330 C.3       4 GLP5        0.0000 
     15 CA        -33.0255  -11.5505  -29.7355 C.3       2 GLC5        0.0000 
     16 CA        -34.1230  -13.1980  -30.1030 C.3       6 GLL5        0.0000 
     17 CA        -31.9280   -9.9030  -29.3680 C.3       4 GLP5        0.0000 
     18 CA        -35.0175  -12.8825  -26.8995 C.3       2 GLC5        0.0000 
     19 CA        -33.8330  -14.1780  -27.8080 C.3       6 GLL5        0.0000 
     20 CA        -36.2020  -11.5870  -25.9910 C.3       4 GLP5        0.0000 
     21 CA        -32.8670  -12.4985  -27.4200 C.3       2 GLC5        0.0000 
     22 CA        -31.9010  -10.8190  -27.0320 C.3       4 GLP5        0.0000 
     23 CA        -34.5315  -15.3925  -25.1935 C.3       2 GLC5        0.0000 
     24 CA        -33.6770  -15.2810  -26.9630 C.3       6 GLL5        0.0000 
     25 CA        -35.3860  -15.5040  -23.4240 C.3       4 GLP5        0.0000 
     26 N         -33.2420  -17.5920  -25.3520 N.am      1 SEC2        0.0000 
     27 N         -33.4640  -17.6590  -26.6950 N.am      5 SEL2        0.0000 
     28 N         -33.0200  -17.5250  -24.0090 N.am      3 SEP2        0.0000 
     29 CA        -33.6730  -18.6455  -25.2525 C.3       2 GLC5        0.0000 
     30 CA        -33.4130  -18.8940  -27.2270 C.3       6 GLL5        0.0000 
     31 CA        -33.9330  -18.3970  -23.2780 C.3       4 GLP5        0.0000 
     32 CA        -33.8705  -20.4555  -25.8440 C.3       2 GLC5        0.0000 
     33 CA        -34.3280  -22.0170  -24.4610 C.3       4 GLP5        0.0000 
     34 CA        -35.6685  -17.6200  -29.3160 C.3       2 GLC5        0.0000 
     35 CA        -33.6750  -18.0460  -29.4800 C.3       6 GLL5        0.0000 
     36 CA        -37.6620  -17.1940  -29.1520 C.3       4 GLP5        0.0000 
     37 CA        -32.4550  -15.3415  -31.3770 C.3       2 GLC5        0.0000 
     38 CA        -33.8740  -15.6380  -29.7440 C.3       6 GLL5        0.0000 
     39 CA        -31.0360  -15.0450  -33.0100 C.3       4 GLP5        0.0000 
     40 CA        -37.3473  -12.0628  -33.4970 C.3       2 GLC5        0.0000 
     41 CA        -36.5598  -14.3565  -36.8222 C.3       2 GLC5        0.0000 
     42 CA        -38.1617  -17.7311  -35.5254 C.3       2 GLC5        0.0000 
     43 CA        -36.6490  -15.7600  -35.1850 C.3       6 GLL5        0.0000 
     44 CA        -39.8180  -18.2950  -36.2840 C.3       4 GLP5        0.0000 
     45 CA        -33.6734  -13.3736  -33.4758 C.3       2 GLC5        0.0000 
     46 CA        -34.8650  -13.4350  -31.3670 C.3       6 GLL5        0.0000 
     47 CA        -32.0075  -14.3927  -28.1082 C.3       2 GLC5        0.0000 
     48 CA        -30.2600  -14.0560  -28.8310 C.3       4 GLP5        0.0000 
     49 CA        -35.4385  -14.9298  -27.6197 C.3       2 GLC5        0.0000 
     50 CA        -37.1220  -15.1300  -27.8540 C.3       4 GLP5        0.0000 
     51 CA        -32.3765  -16.0045  -25.7707 C.3       2 GLC5        0.0000 
     52 CA        -31.1040  -16.0820  -24.3190 C.3       4 GLP5        0.0000 
     53 CA        -31.9672  -15.3617  -28.5228 C.3       2 GLC5        0.0000 
     54 CA        -33.6210  -16.5730  -27.4820 C.3       6 GLL5        0.0000 
     55 CA        -35.3982  -15.8988  -28.0343 C.3       2 GLC5        0.0000 
     56 CA        -33.7280  -16.7620  -28.9470 C.3       6 GLL5        0.0000 
     57 CA        -34.8148  -20.6238  -27.8612 C.3       2 GLC5        0.0000 
     58 CA        -36.1660  -22.2410  -27.8070 C.3       4 GLP5        0.0000 
     59 CA        -31.8987  -18.6217  -30.2670 C.3       2 GLC5        0.0000 
     60 CA        -33.5140  -19.1190  -28.6040 C.3       6 GLL5        0.0000 
     61 CA        -30.2030  -18.6610  -31.4920 C.3       4 GLP5        0.0000 
     62 CA        -32.1066  -14.3816  -29.2632 C.3       2 GLC5        0.0000 
     63 CA        -35.5376  -14.9186  -28.7748 C.3       2 GLC5        0.0000 
     64 CA        -33.9420  -14.3550  -29.1910 C.3       6 GLL5        0.0000 
@<TRIPOS>BOND
@<TRIPOS>SUBSTRUCTURE
     1 SEC2       26 GROUP        1 X    SEC  0     ROOT SEC X 2
     2 GLC5        1 GROUP        1 X    GLC  0     **** GLC X 6
     3 SEP2       28 GROUP        1 Y    SEP  0     ROOT SEP Y 9
     4 GLP5        3 GROUP        1 Y    GLP  0     **** GLP Y 13
     5 SEL2       27 GROUP        1 Z    SEL  0     ROOT SEL Z 16
     6 GLL5        2 GROUP        1 Z    GLL  0     **** GLL Z 20
@<TRIPOS>SET

