#    Name: 4eoi_1RO_2_ligand
#    Modification time : Mon Mar 24 18:21:59 2014

@<TRIPOS>MOLECULE
4eoi_1RO_2_ligand
   38    41     1     0     0
SMALL
NO_CHARGES


@<TRIPOS>ATOM
      1 O1        -35.4490  -15.8240  -31.2750 O.2       1 1RO301      0.0000 
      2 C13       -35.4660  -14.6980  -31.8750 C.2       1 1RO301      0.0000 
      3 N2        -36.0800  -14.6620  -33.0440 N.am      1 1RO301      0.0000 
      4 C15       -36.0200  -13.4220  -33.5480 C.2       1 1RO301      0.0000 
      5 N3        -36.6010  -13.2580  -34.7480 N.pl3     1 1RO301      0.0000 
      6 C18       -37.2880  -14.3920  -35.3760 C.3       1 1RO301      0.0000 
      7 C19       -36.6490  -15.7600  -35.1850 C.2       1 1RO301      0.0000 
      8 C23       -37.0870  -16.9450  -34.5960 C.2       1 1RO301      0.0000 
      9 C22       -36.1430  -17.9820  -34.6430 C.2       1 1RO301      0.0000 
     10 C21       -34.9320  -17.6740  -35.2650 C.2       1 1RO301      0.0000 
     11 S2        -35.0430  -16.0230  -35.7770 S.3       1 1RO301      0.0000 
     12 S1        -35.1930  -12.2290  -32.5720 S.3       1 1RO301      0.0000 
     13 C12       -34.8650  -13.4350  -31.3670 C.2       1 1RO301      0.0000 
     14 C11       -34.1230  -13.1980  -30.1030 C.2       1 1RO301      0.0000 
     15 C1        -33.9420  -14.3550  -29.1910 C.ar      1 1RO301      0.0000 
     16 C6        -33.8330  -14.1780  -27.8080 C.ar      1 1RO301      0.0000 
     17 C5        -33.6770  -15.2810  -26.9630 C.ar      1 1RO301      0.0000 
     18 C4        -33.6210  -16.5730  -27.4820 C.ar      1 1RO301      0.0000 
     19 N1        -33.4640  -17.6590  -26.6950 N.ar      1 1RO301      0.0000 
     20 C9        -33.4130  -18.8940  -27.2270 C.ar      1 1RO301      0.0000 
     21 C8        -33.5140  -19.1190  -28.6040 C.ar      1 1RO301      0.0000 
     22 C7        -33.6750  -18.0460  -29.4800 C.ar      1 1RO301      0.0000 
     23 C3        -33.7280  -16.7620  -28.9470 C.ar      1 1RO301      0.0000 
     24 C2        -33.8740  -15.6380  -29.7440 C.ar      1 1RO301      0.0000 
     25 H         -36.5169  -15.4218  -33.4854 H         1 1RO301      0.0000 
     26 H         -36.5956  -12.3767  -35.2626 H         1 1RO301      0.0000 
     27 H         -37.3900  -14.2134  -36.4776 H         1 1RO301      0.0000 
     28 H         -38.3430  -14.4527  -35.0030 H         1 1RO301      0.0000 
     29 H         -37.9731  -17.0492  -34.1850 H         1 1RO301      0.0000 
     30 H         -36.3289  -18.8807  -34.2556 H         1 1RO301      0.0000 
     31 H         -34.1720  -18.0832  -35.4512 H         1 1RO301      0.0000 
     32 H         -33.7679  -12.3151  -29.8804 H         1 1RO301      0.0000 
     33 H         -33.8678  -13.2301  -27.4099 H         1 1RO301      0.0000 
     34 H         -33.6027  -15.1346  -25.9446 H         1 1RO301      0.0000 
     35 H         -33.2937  -19.7328  -26.6059 H         1 1RO301      0.0000 
     36 H         -33.4692  -20.0785  -28.9691 H         1 1RO301      0.0000 
     37 H         -33.7514  -18.1995  -30.4810 H         1 1RO301      0.0000 
     38 H         -33.9348  -15.7445  -30.7747 H         1 1RO301      0.0000 
@<TRIPOS>BOND
     1    2    1 2    
     2    3    2 am   
     3   13    2 1    
     4    4    3 2    
     5   25    3 1    
     6    5    4 1    
     7   12    4 1    
     8    6    5 1    
     9   26    5 1    
    10    7    6 1    
    11   27    6 1    
    12   28    6 1    
    13    8    7 2    
    14   11    7 1    
    15    9    8 1    
    16   29    8 1    
    17   10    9 2    
    18   30    9 1    
    19   11   10 1    
    20   31   10 1    
    21   13   12 1    
    22   14   13 2    
    23   15   14 1    
    24   32   14 1    
    25   16   15 ar   
    26   24   15 ar   
    27   17   16 ar   
    28   33   16 1    
    29   18   17 ar   
    30   34   17 1    
    31   19   18 ar   
    32   23   18 ar   
    33   20   19 ar   
    34   21   20 ar   
    35   35   20 1    
    36   22   21 ar   
    37   36   21 1    
    38   23   22 ar   
    39   37   22 1    
    40   24   23 ar   
    41   38   24 1    
@<TRIPOS>SUBSTRUCTURE
     1 1RO301      1 GROUP   
@<TRIPOS>SET

