#    Name: 1rk2_ADP_3_INTS_M
#    Modification time : Tue Mar 25 00:49:20 2014

@<TRIPOS>MOLECULE
1rk2_ADP_3_INTS_M
   47     0     6     0     0
SMALL
NO_CHARGES


@<TRIPOS>ATOM
      1 N           4.8995   -1.4840  195.7590 N.am      1 SEC2        0.0000 
      2 N           4.9410   -0.1020  195.5410 N.am      5 SEL2        0.0000 
      3 N           4.8580   -2.8660  195.9770 N.am      3 SEP2        0.0000 
      4 N           3.0655    0.7490  199.3090 N.am      1 SEC2        0.0000 
      5 N           2.4680    1.4820  198.2220 N.am      5 SEL2        0.0000 
      6 N           3.6630    0.0160  200.3960 N.am      3 SEP2        0.0000 
      7 N           1.2130    2.1170  198.4330 N.am      1 SEC2        0.0000 
      8 N          -0.0420    2.7520  198.6440 N.am      3 SEP2        0.0000 
      9 N           1.5300    0.4965  197.8405 N.am      1 SEC2        0.0000 
     10 N           0.5920   -0.4890  197.4590 N.am      3 SEP2        0.0000 
     11 CA          3.9945    2.3450  200.2875 C.3       2 GLC5        0.0000 
     12 CA          4.7540    3.6600  199.2560 C.3       6 GLL5        0.0000 
     13 CA          3.2350    1.0300  201.3190 C.3       4 GLP5        0.0000 
     14 CA          4.4950    3.1540  201.1640 C.3       2 GLC5        0.0000 
     15 CA          4.6430    4.9570  200.0220 C.3       6 GLL5        0.0000 
     16 CA          4.3470    1.3510  202.3060 C.3       4 GLP5        0.0000 
     17 CA          6.3980    4.9795  201.1175 C.3       2 GLC5        0.0000 
     18 CA          8.1530    5.0020  202.2130 C.3       4 GLP5        0.0000 
     19 CA          3.2435    3.1735  200.9275 C.3       2 GLC5        0.0000 
     20 CA          3.2520    5.3170  200.5360 C.3       6 GLL5        0.0000 
     21 N           3.3430    7.5010  202.9630 N.am      1 SEC2        0.0000 
     22 N           3.8650    7.3130  201.8000 N.am      5 SEL2        0.0000 
     23 N           2.8210    7.6890  204.1260 N.am      3 SEP2        0.0000 
     24 CA          5.4420    6.7340  197.6500 C.3       2 GLC5        0.0000 
     25 CA          4.0780    7.1560  199.3420 C.3       6 GLL5        0.0000 
     26 CA          6.8060    6.3120  195.9580 C.3       4 GLP5        0.0000 
     27 CA         -0.0130    7.5800  197.2475 C.3       2 GLC5        0.0000 
     28 CA          1.8480    8.1060  196.5730 C.3       6 GLL5        0.0000 
     29 CA         -1.8740    7.0540  197.9220 C.3       4 GLP5        0.0000 
     30 CA         -0.8010    8.4350  196.4275 C.3       2 GLC5        0.0000 
     31 CA          1.0310    9.1000  196.0550 C.3       6 GLL5        0.0000 
     32 CA         -2.6330    7.7700  196.8000 C.3       4 GLP5        0.0000 
     33 CA          2.6280   10.4850  195.5885 C.3       2 GLC5        0.0000 
     34 CA          4.2250   11.8700  195.1220 C.3       4 GLP5        0.0000 
     35 CA          1.6930   12.1790  197.1660 C.3       2 GLC5        0.0000 
     36 CA          1.5110   10.5360  197.9020 C.3       6 GLL5        0.0000 
     37 CA          1.8750   13.8220  196.4300 C.3       4 GLP5        0.0000 
     38 CA          3.2565   11.5690  198.4550 C.3       2 GLC5        0.0000 
     39 CA          5.0020   12.6020  199.0080 C.3       4 GLP5        0.0000 
     40 CA          2.8680   11.2030  196.5120 C.3       2 GLC5        0.0000 
     41 CA          6.6072    3.7692  199.0950 C.3       2 GLC5        0.0000 
     42 CA          8.5160    3.2300  198.5510 C.3       4 GLP5        0.0000 
     43 CA          5.3128    7.9067  200.1980 C.3       2 GLC5        0.0000 
     44 CA          6.9460    8.8220  200.4340 C.3       4 GLP5        0.0000 
     45 CA          3.7510    8.9395  196.2425 C.3       2 GLC5        0.0000 
     46 CA          2.4980    8.3760  197.8010 C.3       6 GLL5        0.0000 
     47 CA          5.3290    9.6380  195.2980 C.3       4 GLP5        0.0000 
@<TRIPOS>BOND
@<TRIPOS>SUBSTRUCTURE
     1 SEC2        1 GROUP        1 X    SEC  0     ROOT SEC X 2
     2 GLC5       11 GROUP        1 X    GLC  0     **** GLC X 6
     3 SEP2        3 GROUP        1 Y    SEP  0     ROOT SEP Y 9
     4 GLP5       13 GROUP        1 Y    GLP  0     **** GLP Y 13
     5 SEL2        2 GROUP        1 Z    SEL  0     ROOT SEL Z 16
     6 GLL5       12 GROUP        1 Z    GLL  0     **** GLL Z 20
@<TRIPOS>SET

