#    Name: 1rk2_ADP_3_ligand
#    Modification time : Tue Mar 25 00:49:20 2014

@<TRIPOS>MOLECULE
1rk2_ADP_3_ligand
   39    41     1     0     0
SMALL
NO_CHARGES


@<TRIPOS>ATOM
      1 PB          5.7800    1.0890  196.2610 P.3       1 ADP310      0.0000 
      2 O1B         6.0450    2.2550  195.3780 O.co2     1 ADP310      0.0000 
      3 O2B         4.9410   -0.1020  195.5410 O.co2     1 ADP310      0.0000 
      4 O3B         7.0670    0.5240  196.7810 O.co2     1 ADP310      0.0000 
      5 PA          3.4330    2.3180  197.4510 P.3       1 ADP310      0.0000 
      6 O1A         2.9520    2.5950  196.0790 O.co2     1 ADP310      0.0000 
      7 O2A         2.4680    1.4820  198.2220 O.co2     1 ADP310      0.0000 
      8 O3A         4.8370    1.5760  197.4020 O.3       1 ADP310      0.0000 
      9 O5'         3.7800    3.6670  198.2150 O.3       1 ADP310      0.0000 
     10 C5'         4.7540    3.6600  199.2560 C.3       1 ADP310      0.0000 
     11 C4'         4.6430    4.9570  200.0220 C.3       1 ADP310      0.0000 
     12 O4'         5.0710    6.0980  199.2430 O.3       1 ADP310      0.0000 
     13 C3'         3.2520    5.3170  200.5360 C.3       1 ADP310      0.0000 
     14 O3'         2.9470    4.7230  201.8130 O.3       1 ADP310      0.0000 
     15 C2'         3.2810    6.8270  200.5820 C.3       1 ADP310      0.0000 
     16 O2'         3.8650    7.3130  201.8000 O.3       1 ADP310      0.0000 
     17 C1'         4.0780    7.1560  199.3420 C.3       1 ADP310      0.0000 
     18 N9          3.2110    7.3120  198.1050 N.pl3     1 ADP310      0.0000 
     19 C8          3.0320    6.4050  197.1210 C.2       1 ADP310      0.0000 
     20 N7          2.2020    6.9010  196.2010 N.2       1 ADP310      0.0000 
     21 C5          1.8480    8.1060  196.5730 C.ar      1 ADP310      0.0000 
     22 C6          1.0310    9.1000  196.0550 C.ar      1 ADP310      0.0000 
     23 N6          0.3930    8.8950  194.9010 N.pl3     1 ADP310      0.0000 
     24 N1          0.8780   10.2950  196.7280 N.ar      1 ADP310      0.0000 
     25 C2          1.5110   10.5360  197.9020 C.ar      1 ADP310      0.0000 
     26 N3          2.3010    9.5790  198.4110 N.ar      1 ADP310      0.0000 
     27 C4          2.4980    8.3760  197.8010 C.ar      1 ADP310      0.0000 
     28 H           5.7692    3.5823  198.8592 H         1 ADP310      0.0000 
     29 H           4.5934    2.8350  199.9543 H         1 ADP310      0.0000 
     30 H           5.2980    4.8964  200.9159 H         1 ADP310      0.0000 
     31 H           2.5469    5.0309  199.7670 H         1 ADP310      0.0000 
     32 H           2.2750    7.1697  200.4270 H         1 ADP310      0.0000 
     33 H           4.5920    8.1047  199.5384 H         1 ADP310      0.0000 
     34 H           3.4498    5.5235  197.0946 H         1 ADP310      0.0000 
     35 H          -0.2183    9.6270  194.6001 H         1 ADP310      0.0000 
     36 H           0.5835    8.0278  194.4409 H         1 ADP310      0.0000 
     37 H           1.3837   11.4375  198.3881 H         1 ADP310      0.0000 
     38 H           3.1130    5.4478  202.4817 H         1 ADP310      0.0000 
     39 H           4.4603    8.0659  201.5191 H         1 ADP310      0.0000 
@<TRIPOS>BOND
     1    2    1 ar   
     2    3    1 ar   
     3    4    1 ar   
     4    8    1 1    
     5    6    5 ar   
     6    7    5 ar   
     7    8    5 1    
     8    9    5 1    
     9   10    9 1    
    10   11   10 1    
    11   28   10 1    
    12   29   10 1    
    13   12   11 1    
    14   13   11 1    
    15   30   11 1    
    16   17   12 1    
    17   14   13 1    
    18   15   13 1    
    19   31   13 1    
    20   38   14 1    
    21   16   15 1    
    22   17   15 1    
    23   32   15 1    
    24   39   16 1    
    25   18   17 1    
    26   33   17 1    
    27   19   18 1    
    28   27   18 1    
    29   20   19 2    
    30   34   19 1    
    31   21   20 1    
    32   22   21 ar   
    33   27   21 ar   
    34   23   22 1    
    35   24   22 ar   
    36   35   23 1    
    37   36   23 1    
    38   25   24 ar   
    39   26   25 ar   
    40   37   25 1    
    41   27   26 ar   
@<TRIPOS>SUBSTRUCTURE
     1 ADP310      1 GROUP   
@<TRIPOS>SET

