#    Name: 3P80_2_CAVITY_N1_ALL.mol2
#    Modification time : Mon Mar 10 13:18:10 2014

@<TRIPOS>MOLECULE
3P80_2_CAVITY_N1_ALL.mol2
   95     0     7     0     0
SMALL
NO_CHARGES


@<TRIPOS>ATOM
      1 CA          4.6331  -15.5343  -31.1175 C.3       6 GLY6        0.0000 
      2 CZ          2.5899  -15.6240  -30.5544 C.ar      5 PHE5        0.0000 
      3 CA          3.3661  -14.9076  -31.6194 C.3       6 GLY6        0.0000 
      4 CA          4.1423  -14.1912  -32.6844 C.3       6 GLY6        0.0000 
      5 OG         11.1736  -17.5081  -27.6786 O.2       1 SER1        0.0000 
      6 O           9.9066  -16.8815  -28.1805 O.2       2 ALA2        0.0000 
      7 OD1         6.1054  -15.0016  -29.6862 O.3       3 ASP3        0.0000 
      8 CZ          4.0622  -15.0913  -29.1231 C.ar      5 PHE5        0.0000 
      9 CZ          4.8384  -14.3749  -30.1881 C.ar      5 PHE5        0.0000 
     10 CZ          3.5713  -13.7483  -30.6900 C.ar      5 PHE5        0.0000 
     11 NZ         11.0935  -18.4082  -24.1172 N.2       4 LYS4        0.0000 
     12 CA         11.8697  -17.6918  -25.1823 C.3       6 GLY6        0.0000 
     13 DU          9.8265  -17.7816  -24.6191 H         7 CUB7        0.0000 
     14 CA         10.6026  -17.0652  -25.6842 C.3       6 GLY6        0.0000 
     15 N           9.3356  -16.4385  -26.1861 N.2       2 ALA2        0.0000 
     16 N          10.1118  -15.7221  -27.2511 N.2       2 ALA2        0.0000 
     17 DU          8.0685  -15.8119  -26.6880 H         7 CUB7        0.0000 
     18 N           8.8447  -15.0955  -27.7530 N.2       2 ALA2        0.0000 
     19 OG          6.8015  -15.1852  -27.1899 O.2       1 SER1        0.0000 
     20 O           7.5777  -14.4688  -28.2549 O.2       2 ALA2        0.0000 
     21 OG          5.5344  -14.5586  -27.6918 O.2       1 SER1        0.0000 
     22 O           6.3106  -13.8422  -28.7568 O.2       2 ALA2        0.0000 
     23 CZ          5.0436  -13.2156  -29.2587 C.ar      5 PHE5        0.0000 
     24 OG          5.8198  -12.4992  -30.3237 O.2       1 SER1        0.0000 
     25 O          11.2987  -17.2489  -23.1878 O.2       2 ALA2        0.0000 
     26 CA          9.2555  -17.3386  -22.6247 C.3       6 GLY6        0.0000 
     27 NZ         10.0317  -16.6222  -23.6897 N.2       4 LYS4        0.0000 
     28 CA         10.8079  -15.9058  -24.7548 C.3       6 GLY6        0.0000 
     29 O           7.2123  -17.4284  -22.0615 O.2       2 ALA2        0.0000 
     30 CA          7.9885  -16.7120  -23.1266 C.3       6 GLY6        0.0000 
     31 DU          8.7646  -15.9956  -24.1916 H         7 CUB7        0.0000 
     32 N           9.5408  -15.2792  -25.2567 N.2       2 ALA2        0.0000 
     33 CA          6.7214  -16.0853  -23.6285 C.3       6 GLY6        0.0000 
     34 DU          7.4976  -15.3689  -24.6935 H         7 CUB7        0.0000 
     35 N           8.2738  -14.6525  -25.7586 N.2       2 ALA2        0.0000 
     36 N           9.0500  -13.9361  -26.8236 N.2       2 ALA2        0.0000 
     37 CA          5.4544  -15.4587  -24.1304 C.3       6 GLY6        0.0000 
     38 OG          6.2305  -14.7423  -25.1954 O.2       1 SER1        0.0000 
     39 OG          7.0067  -14.0259  -26.2605 O.2       1 SER1        0.0000 
     40 N           7.7829  -13.3095  -27.3255 N.2       2 ALA2        0.0000 
     41 OG          8.5591  -12.5931  -28.3905 O.2       1 SER1        0.0000 
     42 OG          6.5159  -12.6829  -27.8274 O.2       1 SER1        0.0000 
     43 CZ          7.2921  -11.9665  -28.8924 C.ar      5 PHE5        0.0000 
     44 CZ          6.0250  -11.3398  -29.3943 C.ar      5 PHE5        0.0000 
     45 O          11.5040  -16.0895  -22.2584 O.2       2 ALA2        0.0000 
     46 CA         10.2369  -15.4629  -22.7603 C.3       6 GLY6        0.0000 
     47 CA         11.0131  -14.7465  -23.8254 C.3       6 GLY6        0.0000 
     48 O           7.4175  -16.2690  -21.1321 O.2       2 ALA2        0.0000 
     49 CA          8.1937  -15.5526  -22.1972 C.3       6 GLY6        0.0000 
     50 DU          8.9699  -14.8362  -23.2622 H         7 CUB7        0.0000 
     51 O           9.7461  -14.1198  -24.3273 O.2       2 ALA2        0.0000 
     52 CA          6.9266  -14.9260  -22.6991 C.3       6 GLY6        0.0000 
     53 DU          7.7028  -14.2096  -23.7641 H         7 CUB7        0.0000 
     54 DU          8.4790  -13.4932  -24.8292 H         7 CUB7        0.0000 
     55 N           9.2552  -12.7768  -25.8942 N.2       2 ALA2        0.0000 
     56 CZ          5.6596  -14.2993  -23.2010 C.ar      5 PHE5        0.0000 
     57 OG          6.4358  -13.5829  -24.2660 O.2       1 SER1        0.0000 
     58 OG          7.2120  -12.8665  -25.3311 O.2       1 SER1        0.0000 
     59 OG          7.9881  -12.1502  -26.3961 O.2       1 SER1        0.0000 
     60 OG          6.7211  -11.5235  -26.8980 O.2       1 SER1        0.0000 
     61 CZ          7.4973  -10.8071  -27.9630 C.ar      5 PHE5        0.0000 
     62 CZ          5.4540  -10.8969  -27.3999 C.ar      5 PHE5        0.0000 
     63 CA          6.2302  -10.1805  -28.4649 C.3       6 GLY6        0.0000 
     64 CA         11.7092  -14.9302  -21.3290 C.3       6 GLY6        0.0000 
     65 CA         10.4422  -14.3035  -21.8309 C.3       6 GLY6        0.0000 
     66 CA         11.2183  -13.5871  -22.8960 C.3       6 GLY6        0.0000 
     67 CA          7.6227  -15.1097  -20.2027 C.3       6 GLY6        0.0000 
     68 CA          8.3989  -14.3933  -21.2678 C.3       6 GLY6        0.0000 
     69 DU          9.1751  -13.6769  -22.3328 H         7 CUB7        0.0000 
     70 O           9.9513  -12.9605  -23.3979 O.2       2 ALA2        0.0000 
     71 CA          6.3557  -14.4830  -20.7046 C.3       6 GLY6        0.0000 
     72 CA          7.1319  -13.7666  -21.7697 C.3       6 GLY6        0.0000 
     73 DU          7.9081  -13.0502  -22.8347 H         7 CUB7        0.0000 
     74 DU          8.6842  -12.3338  -23.8998 H         7 CUB7        0.0000 
     75 OG          9.4604  -11.6174  -24.9648 O.2       1 SER1        0.0000 
     76 CZ          5.8648  -13.1400  -22.2716 C.ar      5 PHE5        0.0000 
     77 CZ          6.6410  -12.4236  -23.3366 C.ar      5 PHE5        0.0000 
     78 CZ          7.4172  -11.7072  -24.4017 C.ar      5 PHE5        0.0000 
     79 OG          8.1934  -10.9908  -25.4667 O.2       1 SER1        0.0000 
     80 CZ          6.1501  -11.0806  -24.9036 C.ar      5 PHE5        0.0000 
     81 N           6.9263  -10.3642  -25.9686 N.2       2 ALA2        0.0000 
     82 OG          7.7025   -9.6478  -27.0336 O.2       1 SER1        0.0000 
     83 CA          5.6593   -9.7375  -26.4705 C.3       6 GLY6        0.0000 
     84 CA          6.4355   -9.0211  -27.5355 C.3       6 GLY6        0.0000 
     85 N           9.8712  -13.8606  -19.8365 N.2       2 ALA2        0.0000 
     86 CA         10.6474  -13.1442  -20.9015 C.3       6 GLY6        0.0000 
     87 N           8.6042  -13.2339  -20.3384 N.2       2 ALA2        0.0000 
     88 O           9.3803  -12.5175  -21.4034 O.2       2 ALA2        0.0000 
     89 CA          8.1133  -11.8909  -21.9053 C.3       6 GLY6        0.0000 
     90 O           8.8895  -11.1745  -22.9704 O.2       2 ALA2        0.0000 
     91 OG          9.6657  -10.4581  -24.0354 O.2       1 SER1        0.0000 
     92 CZ          7.6224  -10.5478  -23.4723 C.ar      5 PHE5        0.0000 
     93 OG          8.3986   -9.8315  -24.5373 O.2       1 SER1        0.0000 
     94 N           7.1316   -9.2048  -25.0392 N.2       2 ALA2        0.0000 
     95 OG          7.9077   -8.4884  -26.1042 O.2       1 SER1        0.0000 
@<TRIPOS>BOND
@<TRIPOS>SUBSTRUCTURE
     1 SER1        5 GROUP   
     2 ALA2        6 GROUP   
     3 ASP3        7 GROUP   
     4 LYS4       11 GROUP   
     5 PHE5        2 GROUP   
     6 GLY6        1 GROUP   
     7 CUB7       13 GROUP   
@<TRIPOS>SET

