#    Name: 3p80_P80_2_ligand
#    Modification time : Tue Mar 25 06:02:57 2014

@<TRIPOS>MOLECULE
3p80_P80_2_ligand
   19    19     1     0     0
SMALL
NO_CHARGES


@<TRIPOS>ATOM
      1 C1          9.1490  -13.0610  -25.7640 C.2       1 P80403      0.0000 
      2 N1          9.9410  -13.6220  -24.8600 N.pl3     1 P80403      0.0000 
      3 O1         10.6040  -12.8400  -23.8870 O.2       1 P80403      0.0000 
      4 C2          8.4650  -13.8030  -26.7280 C.2       1 P80403      0.0000 
      5 O2         10.1850  -14.9910  -24.8530 O.2       1 P80403      0.0000 
      6 C1'         7.5900  -13.2810  -27.6860 C.ar      1 P80403      0.0000 
      7 C2'         6.7040  -14.1500  -28.3250 C.ar      1 P80403      0.0000 
      8 C3'         5.8020  -13.6870  -29.2780 C.ar      1 P80403      0.0000 
      9 O3'         4.9530  -14.5420  -29.9000 O.3       1 P80403      0.0000 
     10 C4'         5.7830  -12.3380  -29.6110 C.ar      1 P80403      0.0000 
     11 C5'         6.6560  -11.4690  -28.9820 C.ar      1 P80403      0.0000 
     12 C6'         7.5630  -11.9300  -28.0320 C.ar      1 P80403      0.0000 
     13 H           9.0112  -12.0137  -25.7793 H         1 P80403      0.0000 
     14 H           8.6220  -14.8570  -26.7357 H         1 P80403      0.0000 
     15 H           6.7198  -15.1571  -28.0841 H         1 P80403      0.0000 
     16 H           5.1252  -11.9921  -30.3186 H         1 P80403      0.0000 
     17 H           6.6377  -10.4609  -29.2183 H         1 P80403      0.0000 
     18 H           8.2155  -11.2737  -27.5833 H         1 P80403      0.0000 
     19 H           5.0433  -15.4044  -29.4018 H         1 P80403      0.0000 
@<TRIPOS>BOND
     1    2    1 1    
     2    4    1 2    
     3   13    1 1    
     4    3    2 2    
     5    5    2 2    
     6    6    4 1    
     7   14    4 1    
     8    7    6 ar   
     9   12    6 ar   
    10    8    7 ar   
    11   15    7 1    
    12    9    8 1    
    13   10    8 ar   
    14   19    9 1    
    15   11   10 ar   
    16   16   10 1    
    17   12   11 ar   
    18   17   11 1    
    19   18   12 1    
@<TRIPOS>SUBSTRUCTURE
     1 P80403      1 GROUP   
@<TRIPOS>SET

