#    Name: 3fzn_D7K_2_INTS_M
#    Modification time : Tue Mar 25 06:49:41 2014

@<TRIPOS>MOLECULE
3fzn_D7K_2_INTS_M
  106     0    12     0     0
SMALL
NO_CHARGES


@<TRIPOS>ATOM
      1 Zn         76.6715   44.6670  104.0435 Zn        3 ZIC7        0.0000 
      2 Zn         77.3940   45.1320  103.4790 Zn       11 ZIL7        0.0000 
      3 Zn         75.9490   44.2020  104.6080 Zn        7 ZIP7        0.0000 
      4 N          78.7685   44.6205  103.5850 N.am      2 SEC2        0.0000 
      5 N          77.3940   45.1320  103.4790 N.am     10 SEL2        0.0000 
      6 N          80.1430   44.1090  103.6910 N.am      6 SEP2        0.0000 
      7 N          79.9995   46.8290  102.6485 N.am      2 SEC2        0.0000 
      8 N          78.6720   47.2870  102.9320 N.am     10 SEL2        0.0000 
      9 N          81.3270   46.3710  102.3650 N.am      6 SEP2        0.0000 
     10 N          79.5100   48.1935  102.3575 N.am      2 SEC2        0.0000 
     11 N          80.3480   49.1000  101.7830 N.am      6 SEP2        0.0000 
     12 N          74.7780   48.4075  101.5605 N.am      2 SEC2        0.0000 
     13 N          74.0630   47.2160  102.0150 N.am     10 SEL2        0.0000 
     14 N          75.4930   49.5990  101.1060 N.am      6 SEP2        0.0000 
     15 N          72.9555   46.9130  101.2175 N.am      2 SEC2        0.0000 
     16 N          71.8480   46.6100  100.4200 N.am      6 SEP2        0.0000 
     17 Zn         75.2180   44.8555  104.2345 Zn        3 ZIC7        0.0000 
     18 Zn         74.4870   45.5090  103.8610 Zn       11 ZIL7        0.0000 
     19 N          73.7310   44.9555  104.9740 N.am      2 SEC2        0.0000 
     20 N          74.4870   45.5090  103.8610 N.am     10 SEL2        0.0000 
     21 N          72.9750   44.4020  106.0870 N.am      6 SEP2        0.0000 
     22 N          73.8965   44.9255  102.6325 N.am      2 SEC2        0.0000 
     23 N          73.3060   44.3420  101.4040 N.am      6 SEP2        0.0000 
     24 N          73.3425   49.1680  103.8865 N.am      2 SEC2        0.0000 
     25 N          73.9700   47.9960  104.4730 N.am     10 SEL2        0.0000 
     26 N          72.7150   50.3400  103.3000 N.am      6 SEP2        0.0000 
     27 N          72.6445   48.0670  104.6395 N.am      2 SEC2        0.0000 
     28 N          71.3190   48.1380  104.8060 N.am      6 SEP2        0.0000 
     29 CA         75.4350   46.6070   96.5825 C.3       4 GLC5        0.0000 
     30 CA         76.7990   47.7190   97.7950 C.3      12 GLL5        0.0000 
     31 CA         74.0710   45.4950   95.3700 C.3       8 GLP5        0.0000 
     32 CA         78.2465   44.8450   97.8400 C.3       4 GLC5        0.0000 
     33 CA         78.3330   46.2350   96.4040 C.3      12 GLL5        0.0000 
     34 CA         78.1600   43.4550   99.2760 C.3       8 GLP5        0.0000 
     35 CA         75.6295   50.1075   99.3945 C.3       4 GLC5        0.0000 
     36 CA         76.0000   49.2060   97.7430 C.3      12 GLL5        0.0000 
     37 CA         75.2590   51.0090  101.0460 C.3       8 GLP5        0.0000 
     38 CA         74.1520   49.0280   98.6300 C.3       4 GLC5        0.0000 
     39 CA         72.3040   48.8500   99.5170 C.3       8 GLP5        0.0000 
     40 CA         77.0865   47.4670   93.0210 C.3       4 GLC5        0.0000 
     41 CA         78.0860   48.3580   94.3950 C.3      12 GLL5        0.0000 
     42 CA         76.0870   46.5760   91.6470 C.3       8 GLP5        0.0000 
     43 CA         80.4895   50.1355   96.3365 C.3       4 GLC5        0.0000 
     44 CA         80.1240   49.9400   94.6030 C.3      12 GLL5        0.0000 
     45 CA         80.8550   50.3310   98.0700 C.3       8 GLP5        0.0000 
     46 O          79.6250   52.2810   95.1810 O.2       1 ALC1        0.0000 
     47 O          79.2920   50.9480   94.9440 O.2       9 ALL1        0.0000 
     48 O          79.9580   53.6140   95.4180 O.2       5 ALP1        0.0000 
     49 N          82.1805   51.1550   95.7050 N.am      2 SEC2        0.0000 
     50 N          81.4910   50.1500   94.5640 N.am     10 SEL2        0.0000 
     51 N          82.8700   52.1600   96.8460 N.am      6 SEP2        0.0000 
     52 CA         82.3605   49.7150   96.2500 C.3       4 GLC5        0.0000 
     53 CA         82.3400   49.1620   94.1790 C.3      12 GLL5        0.0000 
     54 CA         82.3810   50.2680   98.3210 C.3       8 GLP5        0.0000 
     55 CA         83.6150   51.1780   93.0305 C.3       4 GLC5        0.0000 
     56 CA         83.7540   49.4180   94.0900 C.3      12 GLL5        0.0000 
     57 CA         83.4760   52.9380   91.9710 C.3       8 GLP5        0.0000 
     58 CA         84.2220   49.2575   92.0260 C.3       4 GLC5        0.0000 
     59 CA         84.6900   49.0970   89.9620 C.3       8 GLP5        0.0000 
     60 CA         83.9615   47.9115   95.1685 C.3       4 GLC5        0.0000 
     61 CA         84.1690   46.4050   96.2470 C.3       8 GLP5        0.0000 
     62 N          74.5185   48.5605   92.3495 N.am      2 SEC2        0.0000 
     63 N          74.8990   49.1480   93.4660 N.am     10 SEL2        0.0000 
     64 N          74.1380   47.9730   91.2330 N.am      6 SEP2        0.0000 
     65 N          73.3700   51.0580   92.4200 N.am      2 SEC2        0.0000 
     66 N          73.6930   51.4010   93.7670 N.am     10 SEL2        0.0000 
     67 N          73.0470   50.7150   91.0730 N.am      6 SEP2        0.0000 
     68 N          73.1255   52.7785   93.7280 N.am      2 SEC2        0.0000 
     69 N          72.5580   54.1560   93.6890 N.am      6 SEP2        0.0000 
     70 CA         72.1650   49.6195   93.3310 C.3       4 GLC5        0.0000 
     71 CA         72.0960   49.6540   95.3690 C.3      12 GLL5        0.0000 
     72 CA         72.2340   49.5850   91.2930 C.3       8 GLP5        0.0000 
     73 CA         72.2000   49.2520   97.4430 C.3       4 GLC5        0.0000 
     74 CA         72.7930   47.9540   94.7795 C.3       4 GLC5        0.0000 
     75 CA         73.4900   46.2540   94.1900 C.3       8 GLP5        0.0000 
     76 CA         70.6400   50.0080   94.7665 C.3       4 GLC5        0.0000 
     77 CA         69.1840   50.3620   94.1640 C.3       8 GLP5        0.0000 
     78 O          77.2335   51.0445   92.8015 O.2       1 ALC1        0.0000 
     79 O          76.7920   51.3150   94.2790 O.2       9 ALL1        0.0000 
     80 O          77.6750   50.7740   91.3240 O.2       5 ALP1        0.0000 
     81 CA         75.8110   55.8035   96.0015 C.3       4 GLC5        0.0000 
     82 CA         76.1300   54.0680   97.3180 C.3      12 GLL5        0.0000 
     83 CA         75.4920   57.5390   94.6850 C.3       8 GLP5        0.0000 
     84 CA         73.3795   50.3610   98.2715 C.3       4 GLC5        0.0000 
     85 CA         74.4550   51.8720   97.0260 C.3      12 GLL5        0.0000 
     86 CA         78.6373   47.9903   98.9240 C.3       4 GLC5        0.0000 
     87 CA         76.6790   46.8200   99.0160 C.3      12 GLL5        0.0000 
     88 CA         80.1740   48.9790   98.2240 C.3       8 GLP5        0.0000 
     89 CA         77.6303   45.2283   99.4500 C.3       4 GLC5        0.0000 
     90 CA         77.5220   47.1830  100.2320 C.3      12 GLL5        0.0000 
     91 CA         76.5420   45.7037   95.7065 C.3       4 GLC5        0.0000 
     92 CA         77.4650   47.5020   96.6420 C.3      12 GLL5        0.0000 
     93 CA         75.1850   44.5390   94.8900 C.3       8 GLP5        0.0000 
     94 CA         78.9532   47.9509   97.5176 C.3       4 GLC5        0.0000 
     95 CA         78.2237   49.1838   97.5760 C.3       4 GLC5        0.0000 
     96 CA         79.8953   48.5340   96.1919 C.3       4 GLC5        0.0000 
     97 CA         79.5300   48.6780   94.3380 C.3      12 GLL5        0.0000 
     98 CA         79.4011   49.6142   92.8692 C.3       4 GLC5        0.0000 
     99 CA         78.9320   50.2140   91.3570 C.3       8 GLP5        0.0000 
    100 CA         77.8705   54.7460   96.1997 C.3       4 GLC5        0.0000 
    101 CA         79.4400   55.9420   95.5190 C.3       8 GLP5        0.0000 
    102 CA         76.0905   52.7332   99.0836 C.3       4 GLC5        0.0000 
    103 CA         76.4720   53.0320   96.4430 C.3      12 GLL5        0.0000 
    104 CA         76.5600   51.6900  100.7090 C.3       8 GLP5        0.0000 
    105 CA         74.7707   51.6988   99.2542 C.3       4 GLC5        0.0000 
    106 CA         74.1100   52.9050   97.8990 C.3      12 GLL5        0.0000 
@<TRIPOS>BOND
@<TRIPOS>SUBSTRUCTURE
     1 ALC1       46 GROUP        1 X    ALC  0     ROOT ALC X 1
     2 SEC2        4 GROUP        1 X    SEC  0     **** SEC X 2
     3 ZIC7        1 GROUP        1 X    ZIC  0     **** ZIC X 5
     4 GLC5       29 GROUP        1 X    GLC  0     **** GLC X 6
     5 ALP1       48 GROUP        1 Y    ALP  0     ROOT ALP Y 8
     6 SEP2        6 GROUP        1 Y    SEP  0     **** SEP Y 9
     7 ZIP7        3 GROUP        1 Y    ZIP  0     **** ZIP Y 12
     8 GLP5       31 GROUP        1 Y    GLP  0     **** GLP Y 13
     9 ALL1       47 GROUP        1 Z    ALL  0     ROOT ALL Z 15
    10 SEL2        5 GROUP        1 Z    SEL  0     **** SEL Z 16
    11 ZIL7        2 GROUP        1 Z    ZIL  0     **** ZIL Z 19
    12 GLL5       30 GROUP        1 Z    GLL  0     **** GLL Z 20
@<TRIPOS>SET

