#    Name: 3fzn_D7K_2_ligand
#    Modification time : Tue Mar 25 06:49:41 2014

@<TRIPOS>MOLECULE
3fzn_D7K_2_ligand
   63    65     1     0     0
SMALL
NO_CHARGES


@<TRIPOS>ATOM
      1 PA         77.4500   46.4540  102.8080 P.3       1 D7K602      0.0000 
      2 O1A        77.3940   45.1320  103.4790 O.co2     1 D7K602      0.0000 
      3 O2A        78.6720   47.2870  102.9320 O.co2     1 D7K602      0.0000 
      4 O1B        74.0630   47.2160  102.0150 O.co2     1 D7K602      0.0000 
      5 PB         74.6210   46.9860  103.3820 P.3       1 D7K602      0.0000 
      6 O2B        74.4870   45.5090  103.8610 O.co2     1 D7K602      0.0000 
      7 O3B        73.9700   47.9960  104.4730 O.co2     1 D7K602      0.0000 
      8 O3A        76.1940   47.4140  103.3760 O.3       1 D7K602      0.0000 
      9 O01        77.1260   46.2380  101.2500 O.3       1 D7K602      0.0000 
     10 C01        77.5220   47.1830  100.2320 C.3       1 D7K602      0.0000 
     11 C05        76.6790   46.8200   99.0160 C.3       1 D7K602      0.0000 
     12 C04        76.7990   47.7190   97.7950 C.2       1 D7K602      0.0000 
     13 C03        77.4650   47.5020   96.6420 C.2       1 D7K602      0.0000 
     14 CM4        78.3330   46.2350   96.4040 C.3       1 D7K602      0.0000 
     15 S1         76.0000   49.2060   97.7430 S.3       1 D7K602      0.0000 
     16 C02        76.5470   49.5710   96.1130 C.2       1 D7K602      0.0000 
     17 N3         77.3700   48.5180   95.7110 N.pl3     1 D7K602      0.0000 
     18 C7         78.0860   48.3580   94.3950 C.3       1 D7K602      0.0000 
     19 C5         79.5300   48.6780   94.3380 C.ar      1 D7K602      0.0000 
     20 C6         80.4250   47.6600   93.9530 C.ar      1 D7K602      0.0000 
     21 C4         80.1240   49.9400   94.6030 C.ar      1 D7K602      0.0000 
     22 N4         79.2920   50.9480   94.9440 N.pl3     1 D7K602      0.0000 
     23 N3         81.4910   50.1500   94.5640 N.ar      1 D7K602      0.0000 
     24 C2         82.3400   49.1620   94.1790 C.ar      1 D7K602      0.0000 
     25 N1         81.8430   47.9480   93.8770 N.ar      1 D7K602      0.0000 
     26 CM2        83.7540   49.4180   94.0900 C.3       1 D7K602      0.0000 
     27 O12        74.8990   49.1480   93.4660 O.co2     1 D7K602      0.0000 
     28 P8         74.4640   50.2600   94.3690 P.3       1 D7K602      0.0000 
     29 O11        73.6930   51.4010   93.7670 O.co2     1 D7K602      0.0000 
     30 O9         73.5250   49.5600   95.4820 O.3       1 D7K602      0.0000 
     31 C10        72.0960   49.6540   95.3690 C.3       1 D7K602      0.0000 
     32 C7         76.0130   50.8580   95.3810 C.3       1 D7K602      0.0000 
     33 O7         76.7920   51.3150   94.2790 O.3       1 D7K602      0.0000 
     34 C2         75.6510   51.9110   96.2880 C.ar      1 D7K602      0.0000 
     35 C3         76.4720   53.0320   96.4430 C.ar      1 D7K602      0.0000 
     36 C4         76.1300   54.0680   97.3180 C.ar      1 D7K602      0.0000 
     37 C5         74.9410   54.0030   98.0360 C.ar      1 D7K602      0.0000 
     38 C6         74.1100   52.9050   97.8990 C.ar      1 D7K602      0.0000 
     39 C1         74.4550   51.8720   97.0260 C.ar      1 D7K602      0.0000 
     40 H          78.5595   47.0784   99.9723 H         1 D7K602      0.0000 
     41 H          77.2948   48.1942  100.5161 H         1 D7K602      0.0000 
     42 H          75.6058   46.7826   99.3269 H         1 D7K602      0.0000 
     43 H          76.9261   45.7726   98.7131 H         1 D7K602      0.0000 
     44 H          77.5406   48.9762   93.6229 H         1 D7K602      0.0000 
     45 H          77.9289   47.2979   94.0382 H         1 D7K602      0.0000 
     46 H          80.0977   46.7293   93.7278 H         1 D7K602      0.0000 
     47 H          78.3551   50.8803   94.6010 H         1 D7K602      0.0000 
     48 H          79.6869   51.6724   95.5091 H         1 D7K602      0.0000 
     49 H          77.3504   53.0966   95.8995 H         1 D7K602      0.0000 
     50 H          76.7572   54.8724   97.4273 H         1 D7K602      0.0000 
     51 H          74.6818   54.7726   98.6682 H         1 D7K602      0.0000 
     52 H          73.2361   52.8450   98.4386 H         1 D7K602      0.0000 
     53 H          73.8227   51.0619   96.9171 H         1 D7K602      0.0000 
     54 H          78.7533   46.2378   95.4966 H         1 D7K602      0.0000 
     55 H          79.0750   46.1626   97.0705 H         1 D7K602      0.0000 
     56 H          77.7930   45.3963   96.4743 H         1 D7K602      0.0000 
     57 H          84.1362   49.7014   94.9695 H         1 D7K602      0.0000 
     58 H          84.2606   48.6068   93.7980 H         1 D7K602      0.0000 
     59 H          83.9594   50.1439   93.4336 H         1 D7K602      0.0000 
     60 H          71.7841   50.6040   95.3828 H         1 D7K602      0.0000 
     61 H          71.7633   49.2486   94.5176 H         1 D7K602      0.0000 
     62 H          71.6323   49.1823   96.1190 H         1 D7K602      0.0000 
     63 H          76.7311   50.5846   93.5986 H         1 D7K602      0.0000 
@<TRIPOS>BOND
     1    2    1 ar   
     2    3    1 ar   
     3    8    1 1    
     4    9    1 1    
     5    5    4 ar   
     6    6    5 ar   
     7    7    5 ar   
     8    8    5 1    
     9   10    9 1    
    10   11   10 1    
    11   40   10 1    
    12   41   10 1    
    13   12   11 1    
    14   42   11 1    
    15   43   11 1    
    16   13   12 2    
    17   15   12 1    
    18   14   13 1    
    19   17   13 1    
    20   54   14 1    
    21   55   14 1    
    22   56   14 1    
    23   16   15 1    
    24   17   16 2    
    25   32   16 1    
    26   18   17 1    
    27   19   18 1    
    28   44   18 1    
    29   45   18 1    
    30   20   19 ar   
    31   21   19 ar   
    32   25   20 ar   
    33   46   20 1    
    34   22   21 1    
    35   23   21 ar   
    36   47   22 1    
    37   48   22 1    
    38   24   23 ar   
    39   25   24 ar   
    40   26   24 1    
    41   57   26 1    
    42   58   26 1    
    43   59   26 1    
    44   28   27 ar   
    45   29   28 ar   
    46   30   28 1    
    47   32   28 1    
    48   31   30 1    
    49   60   31 1    
    50   61   31 1    
    51   62   31 1    
    52   33   32 1    
    53   34   32 1    
    54   63   33 1    
    55   35   34 ar   
    56   39   34 ar   
    57   36   35 ar   
    58   49   35 1    
    59   37   36 ar   
    60   50   36 1    
    61   38   37 ar   
    62   51   37 1    
    63   39   38 ar   
    64   52   38 1    
    65   53   39 1    
@<TRIPOS>SUBSTRUCTURE
     1 D7K602      1 GROUP   
@<TRIPOS>SET

