#    Name: 2f3k_RO1_1_INTS_M
#    Modification time : Mon Apr  7 18:04:45 2014

@<TRIPOS>MOLECULE
2f3k_RO1_1_INTS_M
  107     0     9     0     0
SMALL
NO_CHARGES


@<TRIPOS>ATOM
      1 N          15.0305   -5.0945   11.0205 N.am      2 SEC2        0.0000 
      2 N          15.7700   -5.1270   12.2670 N.am      8 SEL2        0.0000 
      3 N          14.2910   -5.0620    9.7740 N.am      5 SEP2        0.0000 
      4 CA         16.3480   -7.2655   10.9355 C.3       3 GLC5        0.0000 
      5 CA         16.0560   -7.6330   13.1220 C.3       9 GLL5        0.0000 
      6 CA         16.6400   -6.8980    8.7490 C.3       6 GLP5        0.0000 
      7 CA         14.2695   -6.9645   12.0020 C.3       3 GLC5        0.0000 
      8 CA         12.4830   -6.2960   10.8820 C.3       6 GLP5        0.0000 
      9 CA         14.9470   -8.4330   14.7310 C.3       3 GLC5        0.0000 
     10 CA         13.8380   -9.2330   16.3400 C.3       6 GLP5        0.0000 
     11 CA         15.3470   -3.8320   16.8675 C.3       3 GLC5        0.0000 
     12 CA         16.0350   -3.9760   15.1590 C.3       9 GLL5        0.0000 
     13 CA         14.6590   -3.6880   18.5760 C.3       6 GLP5        0.0000 
     14 CA         16.2280   -2.8955   13.3735 C.3       3 GLC5        0.0000 
     15 CA         16.4210   -1.8150   11.5880 C.3       6 GLP5        0.0000 
     16 CA         13.9270   -4.0315   15.1220 C.3       3 GLC5        0.0000 
     17 CA         11.8190   -4.0870   15.0850 C.3       6 GLP5        0.0000 
     18 CA         15.1640   -2.2685   15.8265 C.3       3 GLC5        0.0000 
     19 CA         14.2930   -0.5610   16.4940 C.3       6 GLP5        0.0000 
     20 CA         15.6665   -5.0015   17.2160 C.3       3 GLC5        0.0000 
     21 CA         16.6740   -6.3150   15.8560 C.3       9 GLL5        0.0000 
     22 CA         15.2560   -7.7740   16.0980 C.3       3 GLC5        0.0000 
     23 CA         17.3785   -8.0730   16.9615 C.3       3 GLC5        0.0000 
     24 CA         18.0830   -9.8310   18.0670 C.3       6 GLP5        0.0000 
     25 CA         18.1745   -6.3930   17.3080 C.3       3 GLC5        0.0000 
     26 CA         19.6750   -6.4710   18.7600 C.3       6 GLP5        0.0000 
     27 CA         17.7895   -3.7870   12.5130 C.3       3 GLC5        0.0000 
     28 CA         18.0660   -5.0040   14.1660 C.3       9 GLL5        0.0000 
     29 CA         17.5130   -2.5700   10.8600 C.3       6 GLP5        0.0000 
     30 O          18.9640   -7.2060   15.2635 O.2       1 ALC1        0.0000 
     31 O          18.8140   -6.2220   13.8920 O.2       7 ALL1        0.0000 
     32 O          19.1140   -8.1900   16.6350 O.2       4 ALP1        0.0000 
     33 N          17.8680   -5.2135   10.6695 N.am      2 SEC2        0.0000 
     34 N          18.8050   -5.8080   11.6750 N.am      8 SEL2        0.0000 
     35 N          16.9310   -4.6190    9.6640 N.am      5 SEP2        0.0000 
     36 O          19.8560   -2.9845   12.9205 O.2       1 ALC1        0.0000 
     37 O          19.4840   -3.0510   14.5120 O.2       7 ALL1        0.0000 
     38 O          20.2280   -2.9180   11.3290 O.2       4 ALP1        0.0000 
     39 CA         22.8810   -5.4690   18.3420 C.3       3 GLC5        0.0000 
     40 CA         22.9640   -5.5620   16.0990 C.3       9 GLL5        0.0000 
     41 CA         22.7980   -5.3760   20.5850 C.3       6 GLP5        0.0000 
     42 N          19.3495    0.4120   12.8400 N.am      2 SEC2        0.0000 
     43 N          20.0520   -0.3750   13.5760 N.am      8 SEL2        0.0000 
     44 N          18.6470    1.1990   12.1040 N.am      5 SEP2        0.0000 
     45 CA         20.0170    2.2450   14.7605 C.3       3 GLC5        0.0000 
     46 CA         20.2220    0.4210   15.8340 C.3       9 GLL5        0.0000 
     47 CA         19.8120    4.0690   13.6870 C.3       6 GLP5        0.0000 
     48 CA         21.6440    2.1215   15.7475 C.3       3 GLC5        0.0000 
     49 CA         23.0660    3.8220   15.6610 C.3       6 GLP5        0.0000 
     50 CA         24.9555   -0.0090   21.6825 C.3       3 GLC5        0.0000 
     51 CA         24.0710   -0.0230   20.2830 C.3       9 GLL5        0.0000 
     52 CA         25.8400    0.0050   23.0820 C.3       6 GLP5        0.0000 
     53 CA         23.3300   -1.6330   21.1115 C.3       3 GLC5        0.0000 
     54 CA         22.5890   -3.2430   21.9400 C.3       6 GLP5        0.0000 
     55 CA         26.4110    3.3700   19.2025 C.3       3 GLC5        0.0000 
     56 CA         24.8800    1.9580   19.0250 C.3       9 GLL5        0.0000 
     57 CA         27.9420    4.7820   19.3800 C.3       6 GLP5        0.0000 
     58 CA         26.6920    1.0395   18.9745 C.3       3 GLC5        0.0000 
     59 CA         28.5040    0.1210   18.9240 C.3       6 GLP5        0.0000 
     60 CA         25.5600    2.3470   20.7910 C.3       3 GLC5        0.0000 
     61 CA         26.2400    2.7360   22.5570 C.3       6 GLP5        0.0000 
     62 CA         26.5060   -0.0340   18.3665 C.3       3 GLC5        0.0000 
     63 CA         24.5080   -0.1890   17.8090 C.3       9 GLL5        0.0000 
     64 CA         25.3335   -1.4755   16.6465 C.3       3 GLC5        0.0000 
     65 CA         26.1590   -2.7620   15.4840 C.3       6 GLP5        0.0000 
     66 CA         15.8655    3.1285   20.6885 C.3       3 GLC5        0.0000 
     67 CA         17.5030    1.6830   20.6900 C.3       9 GLL5        0.0000 
     68 CA         14.2280    4.5740   20.6870 C.3       6 GLP5        0.0000 
     69 CA         14.8085    0.0435   21.3805 C.3       3 GLC5        0.0000 
     70 CA         16.0170   -0.1390   19.7730 C.3       9 GLL5        0.0000 
     71 CA         13.6000    0.2260   22.9880 C.3       6 GLP5        0.0000 
     72 CA         15.1550   -0.3500   18.1335 C.3       3 GLC5        0.0000 
     73 CA         24.3383   -8.8927   12.2480 C.3       3 GLC5        0.0000 
     74 CA         23.1280  -10.5680   12.4440 C.3       9 GLL5        0.0000 
     75 CA         25.9830   -7.7570   12.0670 C.3       6 GLP5        0.0000 
     76 CA         24.5637  -10.6750   14.0718 C.3       3 GLC5        0.0000 
     77 CA         25.9480  -10.3960   15.1240 C.3       6 GLP5        0.0000 
     78 CA         23.4369   -9.4938   14.7554 C.3       3 GLC5        0.0000 
     79 CA         21.6370  -10.0070   14.6720 C.3       9 GLL5        0.0000 
     80 CA         25.1170   -9.3100   15.6860 C.3       6 GLP5        0.0000 
     81 CA         23.3103   -4.0125   11.9640 C.3       3 GLC5        0.0000 
     82 CA         22.4170   -4.3050   13.6760 C.3       9 GLL5        0.0000 
     83 CA         23.9830   -3.0600   10.2440 C.3       6 GLP5        0.0000 
     84 CA         24.1827   -3.1820   14.8788 C.3       3 GLC5        0.0000 
     85 CA         24.4870   -6.8485   13.1825 C.3       3 GLC5        0.0000 
     86 CA         22.8580   -5.6250   13.6920 C.3       9 GLL5        0.0000 
     87 CA         24.0805   -7.6093   15.5938 C.3       3 GLC5        0.0000 
     88 CA         23.1240   -6.2550   14.9040 C.3       9 GLL5        0.0000 
     89 CA         24.4495   -3.8337   15.7882 C.3       3 GLC5        0.0000 
     90 CA         21.2075   -5.6883   17.4263 C.3       3 GLC5        0.0000 
     91 CA         22.5160   -4.2490   16.0860 C.3       9 GLL5        0.0000 
     92 CA         24.3156    1.7106   16.8250 C.3       3 GLC5        0.0000 
     93 CA         24.0090    0.7090   18.9410 C.3       9 GLL5        0.0000 
     94 CA         24.1550    2.8490   15.2540 C.3       6 GLP5        0.0000 
     95 CA         19.3470    0.0563   20.8102 C.3       3 GLC5        0.0000 
     96 CA         19.5610    0.9050   19.4760 C.3       9 GLL5        0.0000 
     97 CA         19.7730   -1.1940   22.1930 C.3       6 GLP5        0.0000 
     98 CA         17.2597    2.9670   16.5813 C.3       3 GLC5        0.0000 
     99 CA         17.4420    1.2040   18.2180 C.3       9 GLL5        0.0000 
    100 CA         16.6730    4.7310   15.5950 C.3       6 GLP5        0.0000 
    101 CA         15.9947    0.1495   17.0654 C.3       3 GLC5        0.0000 
    102 CA         18.4767   -0.0937   21.5093 C.3       3 GLC5        0.0000 
    103 CA         16.8580    0.3300   20.9610 C.3       9 GLL5        0.0000 
    104 CA         15.7808    1.2332   22.0757 C.3       3 GLC5        0.0000 
    105 CA         14.3810    1.4600   23.3260 C.3       6 GLP5        0.0000 
    106 CA         16.1124   -1.5534   19.8543 C.3       3 GLC5        0.0000 
    107 CA         15.5810   -3.1950   19.6610 C.3       6 GLP5        0.0000 
@<TRIPOS>BOND
@<TRIPOS>SUBSTRUCTURE
     1 ALC1       30 GROUP        1 X    ALC  0     ROOT ALC X 1
     2 SEC2        1 GROUP        1 X    SEC  0     **** SEC X 2
     3 GLC5        4 GROUP        1 X    GLC  0     **** GLC X 6
     4 ALP1       32 GROUP        1 Y    ALP  0     ROOT ALP Y 8
     5 SEP2        3 GROUP        1 Y    SEP  0     **** SEP Y 9
     6 GLP5        6 GROUP        1 Y    GLP  0     **** GLP Y 13
     7 ALL1       31 GROUP        1 Z    ALL  0     ROOT ALL Z 15
     8 SEL2        2 GROUP        1 Z    SEL  0     **** SEL Z 16
     9 GLL5        5 GROUP        1 Z    GLL  0     **** GLL Z 20
@<TRIPOS>SET

