#    Name: 2f3k_RO1_1_ligand
#    Modification time : Mon Apr  7 18:04:45 2014

@<TRIPOS>MOLECULE
2f3k_RO1_1_ligand
  104   107     1     0     0
SMALL
NO_CHARGES


@<TRIPOS>ATOM
      1 O6         15.7700   -5.1270   12.2670 O.2       1 RO1506      0.0000 
      2 S1         15.5540   -5.9210   13.4740 S.o2      1 RO1506      0.0000 
      3 O5         14.2570   -6.0150   14.1470 O.2       1 RO1506      0.0000 
      4 C37        16.0560   -7.6330   13.1220 C.3       1 RO1506      0.0000 
      5 C29        16.6390   -5.3060   14.6930 C.3       1 RO1506      0.0000 
      6 C33        16.0350   -3.9760   15.1590 C.3       1 RO1506      0.0000 
      7 C34        16.6740   -6.3150   15.8560 C.3       1 RO1506      0.0000 
      8 C26        18.0660   -5.0040   14.1660 C.3       1 RO1506      0.0000 
      9 N5         18.8140   -6.2220   13.8920 N.am      1 RO1506      0.0000 
     10 C32        19.1180   -6.5170   12.6260 C.2       1 RO1506      0.0000 
     11 O4         18.8050   -5.8080   11.6750 O.2       1 RO1506      0.0000 
     12 C36        19.8780   -7.7950   12.3850 C.3       1 RO1506      0.0000 
     13 O7         20.6150   -8.1490   13.5540 O.3       1 RO1506      0.0000 
     14 C1         21.4940   -9.2070   13.5410 C.ar      1 RO1506      0.0000 
     15 C2         22.2590   -9.4890   12.4140 C.ar      1 RO1506      0.0000 
     16 C4         23.1280  -10.5680   12.4440 C.ar      1 RO1506      0.0000 
     17 C3         23.2310  -11.3400   13.5950 C.ar      1 RO1506      0.0000 
     18 N1         22.4930  -11.0430   14.6740 N.ar      1 RO1506      0.0000 
     19 C5         21.6370  -10.0070   14.6720 C.ar      1 RO1506      0.0000 
     20 C24        18.8620   -4.0970   15.0890 C.2       1 RO1506      0.0000 
     21 O3         18.9770   -4.3570   16.2810 O.2       1 RO1506      0.0000 
     22 N4         19.4840   -3.0510   14.5120 N.am      1 RO1506      0.0000 
     23 C15        20.2730   -2.0690   15.2700 C.3       1 RO1506      0.0000 
     24 C19        21.7550   -2.1820   14.8640 C.3       1 RO1506      0.0000 
     25 C25        22.2370   -3.6160   14.8780 C.ar      1 RO1506      0.0000 
     26 C27        22.4170   -4.3050   13.6760 C.ar      1 RO1506      0.0000 
     27 C30        22.8580   -5.6250   13.6920 C.ar      1 RO1506      0.0000 
     28 C35        23.1240   -6.2550   14.9040 C.ar      1 RO1506      0.0000 
     29 C31        22.9640   -5.5620   16.0990 C.ar      1 RO1506      0.0000 
     30 C28        22.5160   -4.2490   16.0860 C.ar      1 RO1506      0.0000 
     31 C12        19.6930   -0.6920   14.9190 C.2       1 RO1506      0.0000 
     32 O2         20.0520   -0.3750   13.5760 O.2       1 RO1506      0.0000 
     33 C8         20.2220    0.4210   15.8340 C.3       1 RO1506      0.0000 
     34 N2         19.4820    0.4190   17.1000 N.4       1 RO1506      0.0000 
     35 C6         20.3300    0.9960   18.1580 C.3       1 RO1506      0.0000 
     36 C10        21.6340    0.2910   18.3870 C.2       1 RO1506      0.0000 
     37 O1         21.7130   -0.9390   18.3540 O.2       1 RO1506      0.0000 
     38 N3         22.6440    1.1180   18.6640 N.am      1 RO1506      0.0000 
     39 C17        24.0090    0.7090   18.9410 C.3       1 RO1506      0.0000 
     40 C23        24.0710   -0.0230   20.2830 C.3       1 RO1506      0.0000 
     41 C22        24.8800    1.9580   19.0250 C.3       1 RO1506      0.0000 
     42 C21        24.5080   -0.1890   17.8090 C.3       1 RO1506      0.0000 
     43 C9         19.5610    0.9050   19.4760 C.3       1 RO1506      0.0000 
     44 C13        18.2810    1.7080   19.3790 C.3       1 RO1506      0.0000 
     45 C11        17.4420    1.2040   18.2180 C.3       1 RO1506      0.0000 
     46 C14        16.8420   -0.1680   18.4950 C.3       1 RO1506      0.0000 
     47 C7         18.2510    1.2020   16.9170 C.3       1 RO1506      0.0000 
     48 C16        17.5030    1.6830   20.6900 C.3       1 RO1506      0.0000 
     49 C20        16.8580    0.3300   20.9610 C.3       1 RO1506      0.0000 
     50 C18        16.0170   -0.1390   19.7730 C.3       1 RO1506      0.0000 
     51 H          17.9345   -4.4511   13.2080 H         1 RO1506      0.0000 
     52 H          19.0749   -6.8015   14.6888 H         1 RO1506      0.0000 
     53 H          20.5415   -7.6431   11.5222 H         1 RO1506      0.0000 
     54 H          19.1566   -8.5779   12.1122 H         1 RO1506      0.0000 
     55 H          22.1796   -8.9074   11.5771 H         1 RO1506      0.0000 
     56 H          23.6954  -10.7981   11.6185 H         1 RO1506      0.0000 
     57 H          23.8876  -12.1443   13.5972 H         1 RO1506      0.0000 
     58 H          21.0662   -9.7828   15.5122 H         1 RO1506      0.0000 
     59 H          19.4343   -2.8852   13.4807 H         1 RO1506      0.0000 
     60 H          20.1716   -2.2338   16.3125 H         1 RO1506      0.0000 
     61 H          22.3534   -1.5849   15.5581 H         1 RO1506      0.0000 
     62 H          21.8750   -1.7623   13.8611 H         1 RO1506      0.0000 
     63 H          22.2236   -3.8363   12.7836 H         1 RO1506      0.0000 
     64 H          22.9872   -6.1344   12.8086 H         1 RO1506      0.0000 
     65 H          23.4392   -7.2339   14.9155 H         1 RO1506      0.0000 
     66 H          23.1784   -6.0247   16.9929 H         1 RO1506      0.0000 
     67 H          22.3888   -3.7392   16.9719 H         1 RO1506      0.0000 
     68 H          20.1045    1.3735   15.3149 H         1 RO1506      0.0000 
     69 H          21.2856    0.2461   16.0035 H         1 RO1506      0.0000 
     70 H          19.2257   -0.5996   17.3565 H         1 RO1506      0.0000 
     71 H          20.5127    2.0427   17.9770 H         1 RO1506      0.0000 
     72 H          22.4827    2.1710   18.6953 H         1 RO1506      0.0000 
     73 H          20.1799    1.2980   20.2769 H         1 RO1506      0.0000 
     74 H          19.3260   -0.1353   19.6797 H         1 RO1506      0.0000 
     75 H          18.5536    2.7496   19.1666 H         1 RO1506      0.0000 
     76 H          16.6059    1.9115   18.0770 H         1 RO1506      0.0000 
     77 H          17.6433   -0.8971   18.5990 H         1 RO1506      0.0000 
     78 H          16.2056   -0.4577   17.6610 H         1 RO1506      0.0000 
     79 H          17.6321    0.7728   16.1287 H         1 RO1506      0.0000 
     80 H          18.4836    2.2346   16.6560 H         1 RO1506      0.0000 
     81 H          16.7228    2.4536   20.6587 H         1 RO1506      0.0000 
     82 H          18.1828    1.9291   21.5151 H         1 RO1506      0.0000 
     83 H          16.2190    0.4045   21.8435 H         1 RO1506      0.0000 
     84 H          17.6375   -0.4085   21.1603 H         1 RO1506      0.0000 
     85 H          15.6338   -1.1388   19.9797 H         1 RO1506      0.0000 
     86 H          15.1726    0.5388   19.6439 H         1 RO1506      0.0000 
     87 H          17.0207   -7.6919   12.8655 H         1 RO1506      0.0000 
     88 H          15.9267   -8.2284   13.9149 H         1 RO1506      0.0000 
     89 H          15.5281   -8.0276   12.3699 H         1 RO1506      0.0000 
     90 H          16.4889   -3.6293   15.9799 H         1 RO1506      0.0000 
     91 H          16.1140   -3.2666   14.4587 H         1 RO1506      0.0000 
     92 H          15.0632   -4.0656   15.3771 H         1 RO1506      0.0000 
     93 H          16.9920   -7.2149   15.5575 H         1 RO1506      0.0000 
     94 H          17.2855   -6.0162   16.5886 H         1 RO1506      0.0000 
     95 H          15.7698   -6.4439   16.2632 H         1 RO1506      0.0000 
     96 H          25.0003   -0.3215   20.5007 H         1 RO1506      0.0000 
     97 H          23.7655    0.5580   21.0374 H         1 RO1506      0.0000 
     98 H          23.4924   -0.8386   20.2883 H         1 RO1506      0.0000 
     99 H          25.8358    1.7323   19.2136 H         1 RO1506      0.0000 
    100 H          24.8648    2.4794   18.1718 H         1 RO1506      0.0000 
    101 H          24.5757    2.5748   19.7509 H         1 RO1506      0.0000 
    102 H          25.4477   -0.4940   17.9637 H         1 RO1506      0.0000 
    103 H          23.9457   -1.0101   17.7110 H         1 RO1506      0.0000 
    104 H          24.4943    0.2826   16.9273 H         1 RO1506      0.0000 
@<TRIPOS>BOND
     1    2    1 2    
     2    3    2 2    
     3    4    2 1    
     4    5    2 1    
     5   87    4 1    
     6   88    4 1    
     7   89    4 1    
     8    6    5 1    
     9    7    5 1    
    10    8    5 1    
    11   90    6 1    
    12   91    6 1    
    13   92    6 1    
    14   93    7 1    
    15   94    7 1    
    16   95    7 1    
    17    9    8 1    
    18   20    8 1    
    19   51    8 1    
    20   10    9 am   
    21   52    9 1    
    22   11   10 2    
    23   12   10 1    
    24   13   12 1    
    25   53   12 1    
    26   54   12 1    
    27   14   13 1    
    28   15   14 ar   
    29   19   14 ar   
    30   16   15 ar   
    31   55   15 1    
    32   17   16 ar   
    33   56   16 1    
    34   18   17 ar   
    35   57   17 1    
    36   19   18 ar   
    37   58   19 1    
    38   21   20 2    
    39   22   20 am   
    40   23   22 1    
    41   59   22 1    
    42   24   23 1    
    43   31   23 1    
    44   60   23 1    
    45   25   24 1    
    46   61   24 1    
    47   62   24 1    
    48   26   25 ar   
    49   30   25 ar   
    50   27   26 ar   
    51   63   26 1    
    52   28   27 ar   
    53   64   27 1    
    54   29   28 ar   
    55   65   28 1    
    56   30   29 ar   
    57   66   29 1    
    58   67   30 1    
    59   32   31 2    
    60   33   31 1    
    61   34   33 1    
    62   68   33 1    
    63   69   33 1    
    64   35   34 1    
    65   47   34 1    
    66   70   34 1    
    67   36   35 1    
    68   43   35 1    
    69   71   35 1    
    70   37   36 2    
    71   38   36 am   
    72   39   38 1    
    73   72   38 1    
    74   40   39 1    
    75   41   39 1    
    76   42   39 1    
    77   96   40 1    
    78   97   40 1    
    79   98   40 1    
    80   99   41 1    
    81  100   41 1    
    82  101   41 1    
    83  102   42 1    
    84  103   42 1    
    85  104   42 1    
    86   44   43 1    
    87   73   43 1    
    88   74   43 1    
    89   45   44 1    
    90   48   44 1    
    91   75   44 1    
    92   46   45 1    
    93   47   45 1    
    94   76   45 1    
    95   50   46 1    
    96   77   46 1    
    97   78   46 1    
    98   79   47 1    
    99   80   47 1    
   100   49   48 1    
   101   81   48 1    
   102   82   48 1    
   103   50   49 1    
   104   83   49 1    
   105   84   49 1    
   106   85   50 1    
   107   86   50 1    
@<TRIPOS>SUBSTRUCTURE
     1 RO1506      1 GROUP   
@<TRIPOS>SET

