#    Name: 4gub_0Y4_1_INTS_M
#    Modification time : Mon Mar 24 23:44:20 2014

@<TRIPOS>MOLECULE
4gub_0Y4_1_INTS_M
   75     0     9     0     0
SMALL
NO_CHARGES


@<TRIPOS>ATOM
      1 CA         26.9425   57.7785   10.7815 C.3       3 GLC5        0.0000 
      2 CA         26.8840   57.2430    8.8150 C.3       9 GLL5        0.0000 
      3 CA         27.0010   58.3140   12.7480 C.3       6 GLP5        0.0000 
      4 CA         29.3030   58.1500    4.9080 C.3       3 GLC5        0.0000 
      5 CA         29.5690   56.2950    5.1550 C.3       9 GLL5        0.0000 
      6 CA         29.0370   60.0050    4.6610 C.3       6 GLP5        0.0000 
      7 CA         29.6195   57.4000    3.3585 C.3       3 GLC5        0.0000 
      8 CA         29.6700   58.5050    1.5620 C.3       6 GLP5        0.0000 
      9 CA         30.6130   56.5680    6.6910 C.3       3 GLC5        0.0000 
     10 CA         31.6570   56.8410    8.2270 C.3       6 GLP5        0.0000 
     11 CA         31.5325   55.7560    4.6345 C.3       3 GLC5        0.0000 
     12 CA         33.4960   55.2170    4.1140 C.3       6 GLP5        0.0000 
     13 CA         27.0455   57.9060   -0.4545 C.3       3 GLC5        0.0000 
     14 CA         25.2210   57.2390   -0.1170 C.3       9 GLL5        0.0000 
     15 CA         28.8700   58.5730   -0.7920 C.3       6 GLP5        0.0000 
     16 CA         26.1920   53.9825    0.5690 C.3       3 GLC5        0.0000 
     17 CA         27.9650   55.1590    0.6000 C.3       9 GLL5        0.0000 
     18 CA         24.4190   52.8060    0.5380 C.3       6 GLP5        0.0000 
     19 CA         29.2980   56.5175    1.4990 C.3       3 GLC5        0.0000 
     20 CA         28.9260   54.5300    1.4360 C.3       9 GLL5        0.0000 
     21 CA         30.8725   54.7105    0.9185 C.3       3 GLC5        0.0000 
     22 CA         32.8190   54.8910    0.4010 C.3       6 GLP5        0.0000 
     23 N          24.9330   59.5235   -3.5250 N.am      2 SEC2        0.0000 
     24 N          23.8840   59.4680   -2.4620 N.am      8 SEL2        0.0000 
     25 N          25.9820   59.5790   -4.5880 N.am      5 SEP2        0.0000 
     26 CA         22.4105   61.0660   -0.1585 C.3       3 GLC5        0.0000 
     27 CA         20.6560   60.2560   -1.1100 C.3       9 GLL5        0.0000 
     28 CA         24.1650   61.8760    0.7930 C.3       6 GLP5        0.0000 
     29 CA         25.2585   60.2080    4.3640 C.3       3 GLC5        0.0000 
     30 CA         25.1210   58.5040    5.7380 C.3       9 GLL5        0.0000 
     31 CA         25.3960   61.9120    2.9900 C.3       6 GLP5        0.0000 
     32 CA         26.8710   59.5600    5.8610 C.3       3 GLC5        0.0000 
     33 CA         28.6210   60.6160    5.9840 C.3       6 GLP5        0.0000 
     34 O          27.8125   54.6905    7.9825 O.2       1 ALC1        0.0000 
     35 O          27.7610   55.4340    6.6260 O.2       7 ALL1        0.0000 
     36 O          27.8640   53.9470    9.3390 O.2       4 ALP1        0.0000 
     37 N          30.8115   54.4140    7.5850 N.am      2 SEC2        0.0000 
     38 N          29.7920   54.3980    6.5300 N.am      8 SEL2        0.0000 
     39 N          31.8310   54.4300    8.6400 N.am      5 SEP2        0.0000 
     40 CA         25.2140   55.1560    0.9400 C.3       3 GLC5        0.0000 
     41 CA         26.9630   56.0190    0.9910 C.3       9 GLL5        0.0000 
     42 CA         23.4650   54.2930    0.8890 C.3       6 GLP5        0.0000 
     43 CA         26.4830   54.6155    2.5020 C.3       3 GLC5        0.0000 
     44 CA         26.0030   53.2120    4.0130 C.3       6 GLP5        0.0000 
     45 N          26.9060   55.5855   -2.7620 N.am      2 SEC2        0.0000 
     46 N          26.8430   55.8230   -1.2360 N.am      8 SEL2        0.0000 
     47 N          26.9690   55.3480   -4.2880 N.am      5 SEP2        0.0000 
     48 O          24.5295   56.9070   -2.5490 O.2       1 ALC1        0.0000 
     49 O          24.6430   57.5120   -1.3410 O.2       7 ALL1        0.0000 
     50 O          24.4160   56.3020   -3.7570 O.2       4 ALP1        0.0000 
     51 CA         25.4710   58.8555   -2.8350 C.3       3 GLC5        0.0000 
     52 CA         23.7060   58.4710   -1.5430 C.3       9 GLL5        0.0000 
     53 CA         27.2360   59.2400   -4.1270 C.3       6 GLP5        0.0000 
     54 CA         24.8047   60.4467    6.9370 C.3       3 GLC5        0.0000 
     55 CA         25.5540   58.3450    7.0440 C.3       9 GLL5        0.0000 
     56 CA         24.2720   62.4690    7.4830 C.3       6 GLP5        0.0000 
     57 CA         27.7658   58.4224    7.0504 C.3       3 GLC5        0.0000 
     58 CA         29.0450   59.6940    7.1230 C.3       6 GLP5        0.0000 
     59 CA         26.3190   54.8840    4.8750 C.3       3 GLC5        0.0000 
     60 CA         26.8670   56.4840    6.3830 C.3       9 GLL5        0.0000 
     61 CA         25.7505   59.2650    0.7023 C.3       3 GLC5        0.0000 
     62 CA         24.8090   57.7150    1.0640 C.3       9 GLL5        0.0000 
     63 CA         26.4860   61.0530    0.9310 C.3       6 GLP5        0.0000 
     64 CA         24.2400   55.8850    0.6813 C.3       3 GLC5        0.0000 
     65 CA         28.1670   57.0810    0.0017 C.3       3 GLC5        0.0000 
     66 CA         29.7372   53.5448    0.1790 C.3       3 GLC5        0.0000 
     67 CA         31.0290   52.2450   -0.6600 C.3       6 GLP5        0.0000 
     68 CA         27.9153   53.0082    1.4265 C.3       3 GLC5        0.0000 
     69 CA         27.3850   51.1720    1.8350 C.3       6 GLP5        0.0000 
     70 CA         27.5055   58.5713    4.7882 C.3       3 GLC5        0.0000 
     71 CA         26.4030   56.6280    5.0910 C.3       9 GLL5        0.0000 
     72 CA         23.6317   60.2015   -0.2140 C.3       3 GLC5        0.0000 
     73 CA         22.0682   56.9225   -1.4285 C.3       3 GLC5        0.0000 
     74 CA         22.4910   58.5830   -0.8990 C.3       9 GLL5        0.0000 
     75 CA         21.0380   55.3180   -1.6360 C.3       6 GLP5        0.0000 
@<TRIPOS>BOND
@<TRIPOS>SUBSTRUCTURE
     1 ALC1       34 GROUP        1 X    ALC  0     ROOT ALC X 1
     2 SEC2       23 GROUP        1 X    SEC  0     **** SEC X 2
     3 GLC5        1 GROUP        1 X    GLC  0     **** GLC X 6
     4 ALP1       36 GROUP        1 Y    ALP  0     ROOT ALP Y 8
     5 SEP2       25 GROUP        1 Y    SEP  0     **** SEP Y 9
     6 GLP5        3 GROUP        1 Y    GLP  0     **** GLP Y 13
     7 ALL1       35 GROUP        1 Z    ALL  0     ROOT ALL Z 15
     8 SEL2       24 GROUP        1 Z    SEL  0     **** SEL Z 16
     9 GLL5        2 GROUP        1 Z    GLL  0     **** GLL Z 20
@<TRIPOS>SET

