#    Name: 4gub_0Y4_1_ligand
#    Modification time : Mon Mar 24 23:44:20 2014

@<TRIPOS>MOLECULE
4gub_0Y4_1_ligand
   49    52     1     0     0
SMALL
NO_CHARGES


@<TRIPOS>ATOM
      1 C1         26.8840   57.2430    8.8150 C.3       1 0Y4401      0.0000 
      2 C2         26.4320   57.3380    7.3870 C.ar      1 0Y4401      0.0000 
      3 C3         25.5540   58.3450    7.0440 C.ar      1 0Y4401      0.0000 
      4 C7         26.8670   56.4840    6.3830 C.ar      1 0Y4401      0.0000 
      5 C9         29.0630   55.3060    6.1650 C.2       1 0Y4401      0.0000 
      6 C11        29.5690   56.2950    5.1550 C.3       1 0Y4401      0.0000 
      7 C13        25.5660   57.2910    2.2680 C.2       1 0Y4401      0.0000 
      8 C14        24.8090   57.7150    1.0640 C.2       1 0Y4401      0.0000 
      9 C15        25.2210   57.2390   -0.1170 C.2       1 0Y4401      0.0000 
     10 N18        26.5890   56.4830    2.2050 N.2       1 0Y4401      0.0000 
     11 C19        27.9650   55.1590    0.6000 C.2       1 0Y4401      0.0000 
     12 C20        27.8560   55.0730   -0.8010 C.2       1 0Y4401      0.0000 
     13 C22        28.9260   54.5300    1.4360 C.1       1 0Y4401      0.0000 
     14 N23        29.7200   54.0190    2.1090 N.1       1 0Y4401      0.0000 
     15 N29        23.8840   59.4680   -2.4620 N.2       1 0Y4401      0.0000 
     16 C30        20.6560   60.2560   -1.1100 C.3       1 0Y4401      0.0000 
     17 C4         25.1210   58.5040    5.7380 C.ar      1 0Y4401      0.0000 
     18 C5         25.5450   57.6470    4.7400 C.ar      1 0Y4401      0.0000 
     19 C6         26.4030   56.6280    5.0910 C.ar      1 0Y4401      0.0000 
     20 N8         27.7610   55.4340    6.6260 N.am      1 0Y4401      0.0000 
     21 O10        29.7920   54.3980    6.5300 O.2       1 0Y4401      0.0000 
     22 N12        25.0550   57.8320    3.4350 N.pl3     1 0Y4401      0.0000 
     23 N16        26.2930   56.3900   -0.1480 N.pl3     1 0Y4401      0.0000 
     24 C17        26.9630   56.0190    0.9910 C.2       1 0Y4401      0.0000 
     25 N21        26.8430   55.8230   -1.2360 N.2       1 0Y4401      0.0000 
     26 N24        24.6430   57.5120   -1.3410 N.pl3     1 0Y4401      0.0000 
     27 C25        23.7060   58.4710   -1.5430 C.2       1 0Y4401      0.0000 
     28 C26        22.4910   58.5830   -0.8990 C.2       1 0Y4401      0.0000 
     29 N27        21.9390   59.6970   -1.4500 N.pl3     1 0Y4401      0.0000 
     30 C28        22.7950   60.2000   -2.3860 C.2       1 0Y4401      0.0000 
     31 H          25.2100   58.9970    7.7763 H         1 0Y4401      0.0000 
     32 H          24.0311   58.3344    1.2021 H         1 0Y4401      0.0000 
     33 H          28.4559   54.5309   -1.3391 H         1 0Y4401      0.0000 
     34 H          24.4696   59.2772    5.5071 H         1 0Y4401      0.0000 
     35 H          26.7107   55.9469    4.3623 H         1 0Y4401      0.0000 
     36 H          27.3878   54.6304    7.2469 H         1 0Y4401      0.0000 
     37 H          24.1880   58.4645    3.3423 H         1 0Y4401      0.0000 
     38 H          24.9598   56.9271   -2.1721 H         1 0Y4401      0.0000 
     39 H          22.1441   58.0239   -0.2460 H         1 0Y4401      0.0000 
     40 H          22.5977   61.0046   -2.9182 H         1 0Y4401      0.0000 
     41 H          27.5175   56.4818    8.9542 H         1 0Y4401      0.0000 
     42 H          27.3546   58.0740    9.1117 H         1 0Y4401      0.0000 
     43 H          26.1155   57.1026    9.4393 H         1 0Y4401      0.0000 
     44 H          30.5156   56.1069    4.8930 H         1 0Y4401      0.0000 
     45 H          29.0244   56.2810    4.3164 H         1 0Y4401      0.0000 
     46 H          29.5425   57.2310    5.5061 H         1 0Y4401      0.0000 
     47 H          20.6064   60.5119   -0.1446 H         1 0Y4401      0.0000 
     48 H          20.4567   61.0790   -1.6420 H         1 0Y4401      0.0000 
     49 H          19.9123   59.6096   -1.2805 H         1 0Y4401      0.0000 
@<TRIPOS>BOND
     1    2    1 1    
     2   41    1 1    
     3   42    1 1    
     4   43    1 1    
     5    3    2 ar   
     6    4    2 ar   
     7   17    3 ar   
     8   31    3 1    
     9   19    4 ar   
    10   20    4 1    
    11    6    5 1    
    12   20    5 am   
    13   21    5 2    
    14   44    6 1    
    15   45    6 1    
    16   46    6 1    
    17    8    7 1    
    18   10    7 2    
    19   22    7 1    
    20    9    8 2    
    21   32    8 1    
    22   23    9 1    
    23   26    9 1    
    24   24   10 1    
    25   12   11 1    
    26   13   11 1    
    27   24   11 2    
    28   25   12 2    
    29   33   12 1    
    30   14   13 3    
    31   27   15 1    
    32   30   15 2    
    33   29   16 1    
    34   47   16 1    
    35   48   16 1    
    36   49   16 1    
    37   18   17 ar   
    38   34   17 1    
    39   19   18 ar   
    40   22   18 1    
    41   35   19 1    
    42   36   20 1    
    43   37   22 1    
    44   24   23 1    
    45   25   23 1    
    46   27   26 1    
    47   38   26 1    
    48   28   27 2    
    49   29   28 1    
    50   39   28 1    
    51   30   29 1    
    52   40   30 1    
@<TRIPOS>SUBSTRUCTURE
     1 0Y4401      1 GROUP   
@<TRIPOS>SET

