#    Name: 3vvz_RHQ_1_INTS_M
#    Modification time : Tue Mar 25 01:42:21 2014

@<TRIPOS>MOLECULE
3vvz_RHQ_1_INTS_M
   72     0     3     0     0
SMALL
NO_CHARGES


@<TRIPOS>ATOM
      1 CA          3.3020   14.8155  -34.0580 C.3       1 GLC5        0.0000 
      2 CA          3.5740   15.3730  -35.9650 C.3       3 GLL5        0.0000 
      3 CA          3.0300   14.2580  -32.1510 C.3       2 GLP5        0.0000 
      4 CA          3.2495   12.2080  -38.5480 C.3       1 GLC5        0.0000 
      5 CA          4.3020   13.1550  -36.8020 C.3       3 GLL5        0.0000 
      6 CA          2.1970   11.2610  -40.2940 C.3       2 GLP5        0.0000 
      7 CA          6.6070    9.5040  -37.2315 C.3       1 GLC5        0.0000 
      8 CA          4.9550   10.9230  -37.6830 C.3       3 GLL5        0.0000 
      9 CA          8.2590    8.0850  -36.7800 C.3       2 GLP5        0.0000 
     10 CA          3.5760   11.0920  -38.9885 C.3       1 GLC5        0.0000 
     11 CA          9.0035   12.3310  -36.6255 C.3       1 GLC5        0.0000 
     12 CA          8.3720   11.2100  -35.0120 C.3       3 GLL5        0.0000 
     13 CA          9.6350   13.4520  -38.2390 C.3       2 GLP5        0.0000 
     14 CA          9.0560   10.1830  -32.3565 C.3       1 GLC5        0.0000 
     15 CA          7.9630   10.7720  -33.6520 C.3       3 GLL5        0.0000 
     16 CA         10.1490    9.5940  -31.0610 C.3       2 GLP5        0.0000 
     17 CA          6.5090   11.8550  -32.9355 C.3       1 GLC5        0.0000 
     18 CA          5.0550   12.9380  -32.2190 C.3       2 GLP5        0.0000 
     19 CA          6.4845    9.4220  -33.7525 C.3       1 GLC5        0.0000 
     20 CA          5.0060    8.0720  -33.8530 C.3       2 GLP5        0.0000 
     21 CA          6.5930   17.9890  -30.3785 C.3       1 GLC5        0.0000 
     22 CA          5.6350   19.5460  -31.6780 C.3       3 GLL5        0.0000 
     23 CA          7.5510   16.4320  -29.0790 C.3       2 GLP5        0.0000 
     24 CA          4.0855   18.5540  -30.6645 C.3       1 GLC5        0.0000 
     25 CA          2.5360   17.5620  -29.6510 C.3       2 GLP5        0.0000 
     26 CA          5.7185   22.2940  -29.9825 C.3       1 GLC5        0.0000 
     27 CA          5.7870   20.8020  -30.8430 C.3       3 GLL5        0.0000 
     28 CA          5.6500   23.7860  -29.1220 C.3       2 GLP5        0.0000 
     29 CA          4.8090   16.0115  -40.9810 C.3       1 GLC5        0.0000 
     30 CA          4.1070   18.0100  -40.8050 C.3       3 GLL5        0.0000 
     31 CA          5.5110   14.0130  -41.1570 C.3       2 GLP5        0.0000 
     32 CA          5.7295   18.6465  -42.8155 C.3       1 GLC5        0.0000 
     33 CA          3.6930   18.1710  -42.2740 C.3       3 GLL5        0.0000 
     34 CA          7.7660   19.1220  -43.3570 C.3       2 GLP5        0.0000 
     35 CA          4.6250   17.4425  -44.0245 C.3       1 GLC5        0.0000 
     36 CA          5.5570   16.7140  -45.7750 C.3       2 GLP5        0.0000 
     37 CA          5.7485   14.1188  -37.6007 C.3       1 GLC5        0.0000 
     38 CA          4.5200   14.3100  -36.0340 C.3       3 GLL5        0.0000 
     39 CA          6.3900   13.8870  -39.5380 C.3       2 GLP5        0.0000 
     40 CA          8.0813   13.1262  -36.9682 C.3       1 GLC5        0.0000 
     41 CA          6.4210   12.2310  -36.0830 C.3       3 GLL5        0.0000 
     42 CA          6.4588   13.3438  -37.6178 C.3       1 GLC5        0.0000 
     43 CA          0.6858   14.0150  -34.7248 C.3       1 GLC5        0.0000 
     44 CA          0.0050   14.6630  -36.9700 C.3       3 GLL5        0.0000 
     45 CA          0.7670   13.3520  -32.8490 C.3       2 GLP5        0.0000 
     46 CA          0.3417   12.6790  -35.9592 C.3       1 GLC5        0.0000 
     47 CA          1.2040   14.6930  -36.2310 C.3       3 GLL5        0.0000 
     48 CA          0.0790   10.6800  -35.3180 C.3       2 GLP5        0.0000 
     49 CA         -1.9820   14.7882  -36.8383 C.3       1 GLC5        0.0000 
     50 CA         -3.9120   14.6060  -36.0790 C.3       2 GLP5        0.0000 
     51 CA          0.6528   15.1660  -40.5315 C.3       1 GLC5        0.0000 
     52 CA         -0.1090   15.2780  -38.2250 C.3       3 GLL5        0.0000 
     53 CA          0.8620   14.7170  -42.5800 C.3       2 GLP5        0.0000 
     54 CA         -0.3588   17.0535  -39.2205 C.3       1 GLC5        0.0000 
     55 CA          0.9960   15.9520  -38.7410 C.3       3 GLL5        0.0000 
     56 CA         -1.1610   18.4920  -39.9580 C.3       2 GLP5        0.0000 
     57 CA         -0.5961   15.9505  -35.8724 C.3       1 GLC5        0.0000 
     58 CA         -1.4400   16.9230  -34.3320 C.3       2 GLP5        0.0000 
     59 CA          5.6270   12.8350  -38.3930 C.3       1 GLC5        0.0000 
     60 CA          5.2440   12.1310  -36.8240 C.3       3 GLL5        0.0000 
     61 CA          0.6529   18.6807  -34.5524 C.3       1 GLC5        0.0000 
     62 CA          2.9070   17.5230  -35.1160 C.3       3 GLL5        0.0000 
     63 CA         -1.3120   18.4140  -34.6250 C.3       2 GLP5        0.0000 
     64 CA          8.2133    9.5380  -35.5560 C.3       1 GLC5        0.0000 
     65 CA          9.9737   11.7065  -34.4660 C.3       1 GLC5        0.0000 
     66 CA         11.7800   12.4220  -34.6000 C.3       2 GLP5        0.0000 
     67 CA          6.6880   21.4975  -32.4922 C.3       1 GLC5        0.0000 
     68 CA          7.6650   22.8210  -33.7240 C.3       2 GLP5        0.0000 
     69 CA          7.4230   19.8370  -30.8642 C.3       1 GLC5        0.0000 
     70 CA          9.1350   19.5000  -30.4680 C.3       2 GLP5        0.0000 
     71 CA          2.7855   16.9703  -42.6593 C.3       1 GLC5        0.0000 
     72 CA          1.6710   15.8500  -43.7790 C.3       2 GLP5        0.0000 
@<TRIPOS>BOND
@<TRIPOS>SUBSTRUCTURE
     1 GLC5        1 GROUP        1 X    GLC  0     ROOT GLC X 6
     2 GLP5        3 GROUP        1 Y    GLP  0     ROOT GLP Y 13
     3 GLL5        2 GROUP        1 Z    GLL  0     ROOT GLL Z 20
@<TRIPOS>SET

