#    Name: 3vvz_RHQ_1_ligand
#    Modification time : Tue Mar 25 01:42:21 2014

@<TRIPOS>MOLECULE
3vvz_RHQ_1_ligand
   63    66     1     0     0
SMALL
NO_CHARGES


@<TRIPOS>ATOM
      1 C1          5.0130   16.5430  -34.4700 C.2       1 RHQ301      0.0000 
      2 C2          3.8310   16.4820  -35.1860 C.2       1 RHQ301      0.0000 
      3 C3          2.9070   17.5230  -35.1160 C.2       1 RHQ301      0.0000 
      4 C4          3.1700   18.6410  -34.3190 C.2       1 RHQ301      0.0000 
      5 C5          4.3580   18.7110  -33.5990 C.2       1 RHQ301      0.0000 
      6 C6          5.2670   17.6490  -33.6820 C.2       1 RHQ301      0.0000 
      7 O1          5.9290   15.5080  -34.5140 O.3       1 RHQ301      0.0000 
      8 C7          5.6940   14.3910  -35.2930 C.ar      1 RHQ301      0.0000 
      9 C8          4.5200   14.3100  -36.0340 C.ar      1 RHQ301      0.0000 
     10 C9          3.5740   15.3730  -35.9650 C.2       1 RHQ301      0.0000 
     11 C10         6.6340   13.3700  -35.3120 C.ar      1 RHQ301      0.0000 
     12 C11         6.4210   12.2310  -36.0830 C.ar      1 RHQ301      0.0000 
     13 C12         5.2440   12.1310  -36.8240 C.ar      1 RHQ301      0.0000 
     14 C13         4.3020   13.1550  -36.8020 C.ar      1 RHQ301      0.0000 
     15 N1          7.3520   11.2400  -36.0940 N.pl3     1 RHQ301      0.0000 
     16 C14         2.3000   15.3640  -36.7520 C.ar      1 RHQ301      0.0000 
     17 C15         1.2040   14.6930  -36.2310 C.ar      1 RHQ301      0.0000 
     18 C16         0.0050   14.6630  -36.9700 C.ar      1 RHQ301      0.0000 
     19 C17        -0.1090   15.2780  -38.2250 C.ar      1 RHQ301      0.0000 
     20 C18         0.9960   15.9520  -38.7410 C.ar      1 RHQ301      0.0000 
     21 C19         2.1910   16.0090  -38.0180 C.ar      1 RHQ301      0.0000 
     22 C20         4.9550   10.9230  -37.6830 C.3       1 RHQ301      0.0000 
     23 C21         2.1970   19.8130  -34.2420 C.3       1 RHQ301      0.0000 
     24 C22         8.3720   11.2100  -35.0120 C.3       1 RHQ301      0.0000 
     25 C23         7.9630   10.7720  -33.6520 C.3       1 RHQ301      0.0000 
     26 N2          4.5980   19.8600  -32.7860 N.2       1 RHQ301      0.0000 
     27 C24         5.6350   19.5460  -31.6780 C.3       1 RHQ301      0.0000 
     28 C25         5.7870   20.8020  -30.8430 C.3       1 RHQ301      0.0000 
     29 C26         3.3050   16.7870  -38.7020 C.2       1 RHQ301      0.0000 
     30 O27         4.4000   16.9820  -38.1680 O.2       1 RHQ301      0.0000 
     31 O2          3.0680   17.3430  -40.0580 O.3       1 RHQ301      0.0000 
     32 C28         4.1070   18.0100  -40.8050 C.3       1 RHQ301      0.0000 
     33 C29         3.6930   18.1710  -42.2740 C.3       1 RHQ301      0.0000 
     34 H           2.0311   17.4705  -35.6499 H         1 RHQ301      0.0000 
     35 H           6.1488   17.7017  -33.1363 H         1 RHQ301      0.0000 
     36 H           7.4959   13.4542  -34.7521 H         1 RHQ301      0.0000 
     37 H           3.4353   13.0701  -37.3521 H         1 RHQ301      0.0000 
     38 H           7.3992   10.5150  -36.7938 H         1 RHQ301      0.0000 
     39 H           1.2550   14.2249  -35.3269 H         1 RHQ301      0.0000 
     40 H          -0.8164   14.1706  -36.5715 H         1 RHQ301      0.0000 
     41 H          -0.9813   15.2308  -38.7443 H         1 RHQ301      0.0000 
     42 H           0.9340   16.4114  -39.6602 H         1 RHQ301      0.0000 
     43 H           8.8417   12.2385  -34.9327 H         1 RHQ301      0.0000 
     44 H           9.2382   10.5634  -35.3530 H         1 RHQ301      0.0000 
     45 H           6.5689   19.2920  -32.1391 H         1 RHQ301      0.0000 
     46 H           5.2641   18.7418  -31.0739 H         1 RHQ301      0.0000 
     47 H           5.0448   17.4421  -40.7821 H         1 RHQ301      0.0000 
     48 H           4.3107   19.0098  -40.4034 H         1 RHQ301      0.0000 
     49 H           5.6508   10.7948  -38.3897 H         1 RHQ301      0.0000 
     50 H           4.9269   10.0816  -37.1433 H         1 RHQ301      0.0000 
     51 H           4.0741   11.0014  -38.1497 H         1 RHQ301      0.0000 
     52 H           2.5289   20.5317  -33.6311 H         1 RHQ301      0.0000 
     53 H           2.0508   20.2337  -35.1373 H         1 RHQ301      0.0000 
     54 H           1.3005   19.5297  -33.9014 H         1 RHQ301      0.0000 
     55 H           8.7280   10.7958  -33.0084 H         1 RHQ301      0.0000 
     56 H           7.2440   11.3555  -33.2744 H         1 RHQ301      0.0000 
     57 H           7.6103    9.8362  -33.6536 H         1 RHQ301      0.0000 
     58 H           6.4471   20.6778  -30.1022 H         1 RHQ301      0.0000 
     59 H           6.1036   21.5762  -31.3910 H         1 RHQ301      0.0000 
     60 H           4.9220   21.0751  -30.4221 H         1 RHQ301      0.0000 
     61 H           4.4014   18.6284  -42.8115 H         1 RHQ301      0.0000 
     62 H           3.5189   17.2879  -42.7097 H         1 RHQ301      0.0000 
     63 H           2.8582   18.7135  -42.3673 H         1 RHQ301      0.0000 
@<TRIPOS>BOND
     1    2    1 1    
     2    6    1 2    
     3    7    1 1    
     4    3    2 1    
     5   10    2 2    
     6    4    3 2    
     7   34    3 1    
     8    5    4 1    
     9   23    4 1    
    10    6    5 1    
    11   26    5 2    
    12   35    6 1    
    13    8    7 1    
    14    9    8 ar   
    15   11    8 ar   
    16   10    9 1    
    17   14    9 ar   
    18   16   10 1    
    19   12   11 ar   
    20   36   11 1    
    21   13   12 ar   
    22   15   12 1    
    23   14   13 ar   
    24   22   13 1    
    25   37   14 1    
    26   24   15 1    
    27   38   15 1    
    28   17   16 ar   
    29   21   16 ar   
    30   18   17 ar   
    31   39   17 1    
    32   19   18 ar   
    33   40   18 1    
    34   20   19 ar   
    35   41   19 1    
    36   21   20 ar   
    37   42   20 1    
    38   29   21 1    
    39   49   22 1    
    40   50   22 1    
    41   51   22 1    
    42   52   23 1    
    43   53   23 1    
    44   54   23 1    
    45   25   24 1    
    46   43   24 1    
    47   44   24 1    
    48   55   25 1    
    49   56   25 1    
    50   57   25 1    
    51   27   26 1    
    52   28   27 1    
    53   45   27 1    
    54   46   27 1    
    55   58   28 1    
    56   59   28 1    
    57   60   28 1    
    58   30   29 2    
    59   31   29 1    
    60   32   31 1    
    61   33   32 1    
    62   47   32 1    
    63   48   32 1    
    64   61   33 1    
    65   62   33 1    
    66   63   33 1    
@<TRIPOS>SUBSTRUCTURE
     1 RHQ301      1 GROUP   
@<TRIPOS>SET

