#    Name: 3pp1_IZG_1_INTS_M
#    Modification time : Tue Mar 25 08:15:56 2014

@<TRIPOS>MOLECULE
3pp1_IZG_1_INTS_M
   67     0     9     0     0
SMALL
NO_CHARGES


@<TRIPOS>ATOM
      1 CA        -35.7610   31.7200    1.9390 C.3       3 GLC5        0.0000 
      2 CA        -34.6430   33.0180    2.7360 C.3       9 GLL5        0.0000 
      3 CA        -36.8790   30.4220    1.1420 C.3       6 GLP5        0.0000 
      4 CA        -34.4115   33.6975    4.5260 C.3       3 GLC5        0.0000 
      5 CA        -34.1800   34.3770    6.3160 C.3       6 GLP5        0.0000 
      6 CA        -35.1720   33.8810    1.2890 C.3       3 GLC5        0.0000 
      7 CA        -35.7010   34.7440   -0.1580 C.3       6 GLP5        0.0000 
      8 N         -28.5165   29.7980    6.6220 N.am      2 SEC2        0.0000 
      9 N         -28.3790   31.3460    6.2320 N.am      8 SEL2        0.0000 
     10 N         -28.6540   28.2500    7.0120 N.am      5 SEP2        0.0000 
     11 N         -27.3670   29.1480    6.5775 N.am      2 SEC2        0.0000 
     12 N         -26.0800   30.0460    6.1430 N.am      8 SEL2        0.0000 
     13 O         -25.6445   28.9860    6.7515 O.2       1 ALC1        0.0000 
     14 O         -26.0800   30.0460    6.1430 O.2       7 ALL1        0.0000 
     15 O         -25.2090   27.9260    7.3600 O.2       4 ALP1        0.0000 
     16 N         -29.8765   28.7610    6.4270 N.am      2 SEC2        0.0000 
     17 N         -31.0990   29.2720    5.8420 N.am      8 SEL2        0.0000 
     18 CA        -33.9590   30.5885    7.8155 C.3       3 GLC5        0.0000 
     19 CA        -33.8180   30.0940    5.7250 C.3       9 GLL5        0.0000 
     20 CA        -34.1000   31.0830    9.9060 C.3       6 GLP5        0.0000 
     21 CA        -34.1805   29.5315    8.4550 C.3       3 GLC5        0.0000 
     22 CA        -34.2610   27.9800    7.0040 C.3       9 GLL5        0.0000 
     23 CA        -35.9105   22.0160    8.4690 C.3       3 GLC5        0.0000 
     24 CA        -36.6860   23.8520    8.3040 C.3       9 GLL5        0.0000 
     25 CA        -35.1350   20.1800    8.6340 C.3       6 GLP5        0.0000 
     26 CA        -34.5700   23.4900    8.8420 C.3       3 GLC5        0.0000 
     27 CA        -32.4540   23.1280    9.3800 C.3       6 GLP5        0.0000 
     28 CA        -34.8860   23.2015    7.2020 C.3       3 GLC5        0.0000 
     29 CA        -33.0860   22.5510    6.1000 C.3       6 GLP5        0.0000 
     30 CA        -37.7335   24.1920    6.5745 C.3       3 GLC5        0.0000 
     31 CA        -38.7810   24.5320    4.8450 C.3       6 GLP5        0.0000 
     32 CA        -33.2935   26.7440    6.0755 C.3       3 GLC5        0.0000 
     33 CA        -33.8110   27.2070    8.0810 C.3       9 GLL5        0.0000 
     34 CA        -32.7760   26.2810    4.0700 C.3       6 GLP5        0.0000 
     35 CA        -31.1215   28.2990    9.0215 C.3       3 GLC5        0.0000 
     36 CA        -32.7110   27.5900    8.7780 C.3       9 GLL5        0.0000 
     37 CA        -29.5320   29.0080    9.2650 C.3       6 GLP5        0.0000 
     38 CA        -37.5090   29.3995    7.7425 C.3       3 GLC5        0.0000 
     39 CA        -36.1240   30.2090    6.2860 C.3       9 GLL5        0.0000 
     40 CA        -38.8940   28.5900    9.1990 C.3       6 GLP5        0.0000 
     41 CA        -35.1120   30.6460    8.0960 C.3       3 GLC5        0.0000 
     42 N         -37.5565   31.3675    3.5915 N.am      2 SEC2        0.0000 
     43 N         -36.4870   31.9930    4.3940 N.am      8 SEL2        0.0000 
     44 N         -38.6260   30.7420    2.7890 N.am      5 SEP2        0.0000 
     45 N         -37.8755   32.6395    3.9885 N.am      2 SEC2        0.0000 
     46 N         -39.2640   33.2860    3.5830 N.am      5 SEP2        0.0000 
     47 CA        -33.5337   32.7250    5.3483 C.3       3 GLC5        0.0000 
     48 CA        -33.0410   31.5590    3.8870 C.3       9 GLL5        0.0000 
     49 CA        -33.0260   28.3107    4.6847 C.3       3 GLC5        0.0000 
     50 CA        -32.7340   30.5870    4.8740 C.3       9 GLL5        0.0000 
     51 CA        -34.3177   32.3668    5.9710 C.3       3 GLC5        0.0000 
     52 CA        -37.8055   26.5427    7.3030 C.3       3 GLC5        0.0000 
     53 CA        -36.0700   26.4000    6.6690 C.3       9 GLL5        0.0000 
     54 CA        -39.7560   27.0760    7.3970 C.3       6 GLP5        0.0000 
     55 CA        -34.1129   26.6840    5.3660 C.3       3 GLC5        0.0000 
     56 CA        -33.7625   24.4795    8.7385 C.3       3 GLC5        0.0000 
     57 CA        -35.6400   25.6190    7.7490 C.3       9 GLL5        0.0000 
     58 CA        -34.0785   24.1910    7.0985 C.3       3 GLC5        0.0000 
     59 CA        -34.5020   26.0430    8.4450 C.3       9 GLL5        0.0000 
     60 CA        -32.6805   25.8173    9.5798 C.3       3 GLC5        0.0000 
     61 CA        -32.1000   24.2360   10.7300 C.3       6 GLP5        0.0000 
     62 CA        -34.1244   27.7732   10.0042 C.3       3 GLC5        0.0000 
     63 CA        -34.8150   28.4390   11.4880 C.3       6 GLP5        0.0000 
     64 CA        -36.6278   31.5365    7.1338 C.3       3 GLC5        0.0000 
     65 CA        -37.6470   32.6590    8.3610 C.3       6 GLP5        0.0000 
     66 CA        -37.5653   30.4905    5.8262 C.3       3 GLC5        0.0000 
     67 CA        -39.5220   30.5670    5.7460 C.3       6 GLP5        0.0000 
@<TRIPOS>BOND
@<TRIPOS>SUBSTRUCTURE
     1 ALC1       13 GROUP        1 X    ALC  0     ROOT ALC X 1
     2 SEC2        8 GROUP        1 X    SEC  0     **** SEC X 2
     3 GLC5        1 GROUP        1 X    GLC  0     **** GLC X 6
     4 ALP1       15 GROUP        1 Y    ALP  0     ROOT ALP Y 8
     5 SEP2       10 GROUP        1 Y    SEP  0     **** SEP Y 9
     6 GLP5        3 GROUP        1 Y    GLP  0     **** GLP Y 13
     7 ALL1       14 GROUP        1 Z    ALL  0     ROOT ALL Z 15
     8 SEL2        9 GROUP        1 Z    SEL  0     **** SEL Z 16
     9 GLL5        2 GROUP        1 Z    GLL  0     **** GLL Z 20
@<TRIPOS>SET

