#    Name: 3pp1_IZG_1_ligand
#    Modification time : Tue Mar 25 08:15:56 2014

@<TRIPOS>MOLECULE
3pp1_IZG_1_ligand
   43    45     1     0     0
SMALL
NO_CHARGES


@<TRIPOS>ATOM
      1 C1        -34.6430   33.0180    2.7360 C.3       1 IZG500      0.0000 
      2 N2        -34.3370   32.0160    3.7490 N.am      1 IZG500      0.0000 
      3 C3        -33.0410   31.5590    3.8870 C.2       1 IZG500      0.0000 
      4 N4        -32.0340   32.0100    3.0980 N.2       1 IZG500      0.0000 
      5 C5        -30.7910   31.5690    3.2250 C.2       1 IZG500      0.0000 
      6 N6        -30.4210   30.6280    4.1530 N.am      1 IZG500      0.0000 
      7 C7        -29.0190   30.1450    4.2030 C.3       1 IZG500      0.0000 
      8 C8        -27.9940   31.0640    4.8800 C.3       1 IZG500      0.0000 
      9 O10       -28.3790   31.3460    6.2320 O.3       1 IZG500      0.0000 
     10 C11       -26.6180   30.3610    4.8420 C.3       1 IZG500      0.0000 
     11 O12       -26.0800   30.0460    6.1430 O.3       1 IZG500      0.0000 
     12 C13       -31.3840   30.1140    4.9990 C.2       1 IZG500      0.0000 
     13 O14       -31.0990   29.2720    5.8420 O.2       1 IZG500      0.0000 
     14 C15       -32.7340   30.5870    4.8740 C.2       1 IZG500      0.0000 
     15 C16       -33.8180   30.0940    5.7250 C.2       1 IZG500      0.0000 
     16 N17       -33.5410   29.1400    6.6910 N.pl3     1 IZG500      0.0000 
     17 C18       -34.2610   27.9800    7.0040 C.ar      1 IZG500      0.0000 
     18 C19       -35.3980   27.5680    6.3060 C.ar      1 IZG500      0.0000 
     19 C20       -36.0700   26.4000    6.6690 C.ar      1 IZG500      0.0000 
     20 C21       -35.6400   25.6190    7.7490 C.ar      1 IZG500      0.0000 
     21 I22       -36.6860   23.8520    8.3040 I         1 IZG500      0.0000 
     22 C23       -34.5020   26.0430    8.4450 C.ar      1 IZG500      0.0000 
     23 C24       -33.8110   27.2070    8.0810 C.ar      1 IZG500      0.0000 
     24 F25       -32.7110   27.5900    8.7780 F         1 IZG500      0.0000 
     25 C26       -35.0930   30.6190    5.5270 C.2       1 IZG500      0.0000 
     26 F27       -36.1240   30.2090    6.2860 F         1 IZG500      0.0000 
     27 C28       -35.3380   31.5740    4.5350 C.2       1 IZG500      0.0000 
     28 O29       -36.4870   31.9930    4.3940 O.2       1 IZG500      0.0000 
     29 H         -30.0298   31.9498    2.5872 H         1 IZG500      0.0000 
     30 H         -28.6554   29.9365    3.1649 H         1 IZG500      0.0000 
     31 H         -28.9808   29.1532    4.7208 H         1 IZG500      0.0000 
     32 H         -27.9148   31.9630    4.2898 H         1 IZG500      0.0000 
     33 H         -25.9294   31.0216    4.2724 H         1 IZG500      0.0000 
     34 H         -26.7363   29.4447    4.2243 H         1 IZG500      0.0000 
     35 H         -32.6468   29.3095    7.2885 H         1 IZG500      0.0000 
     36 H         -35.7439   28.1318    5.5156 H         1 IZG500      0.0000 
     37 H         -36.9028   26.1033    6.1308 H         1 IZG500      0.0000 
     38 H         -34.1618   25.4841    9.2480 H         1 IZG500      0.0000 
     39 H         -34.1293   33.8633    2.8827 H         1 IZG500      0.0000 
     40 H         -34.4206   32.6958    1.8158 H         1 IZG500      0.0000 
     41 H         -35.6130   33.2610    2.7351 H         1 IZG500      0.0000 
     42 H         -27.6145   31.0248    6.7910 H         1 IZG500      0.0000 
     43 H         -25.8941   29.0638    6.1152 H         1 IZG500      0.0000 
@<TRIPOS>BOND
     1    2    1 1    
     2   39    1 1    
     3   40    1 1    
     4   41    1 1    
     5    3    2 1    
     6   27    2 am   
     7    4    3 1    
     8   14    3 2    
     9    5    4 2    
    10    6    5 1    
    11   29    5 1    
    12    7    6 1    
    13   12    6 am   
    14    8    7 1    
    15   30    7 1    
    16   31    7 1    
    17    9    8 1    
    18   10    8 1    
    19   32    8 1    
    20   42    9 1    
    21   11   10 1    
    22   33   10 1    
    23   34   10 1    
    24   43   11 1    
    25   13   12 2    
    26   14   12 1    
    27   15   14 1    
    28   16   15 1    
    29   25   15 2    
    30   17   16 1    
    31   35   16 1    
    32   18   17 ar   
    33   23   17 ar   
    34   19   18 ar   
    35   36   18 1    
    36   20   19 ar   
    37   37   19 1    
    38   21   20 1    
    39   22   20 ar   
    40   23   22 ar   
    41   38   22 1    
    42   24   23 1    
    43   26   25 1    
    44   27   25 1    
    45   28   27 2    
@<TRIPOS>SUBSTRUCTURE
     1 IZG500      1 GROUP   
@<TRIPOS>SET

