#    Name: 1udc_UFM_1_INTS_M
#    Modification time : Tue Mar 25 06:28:05 2014

@<TRIPOS>MOLECULE
1udc_UFM_1_INTS_M
   80     0    12     0     0
SMALL
NO_CHARGES


@<TRIPOS>ATOM
      1 O          16.1470   18.6110   40.7720 O.2       1 ALC1        0.0000 
      2 O          16.4930   17.3210   40.4230 O.2       9 ALL1        0.0000 
      3 O          15.8010   19.9010   41.1210 O.2       5 ALP1        0.0000 
      4 CA         18.5280   14.4525   41.2040 C.3       4 GLC5        0.0000 
      5 CA         18.0230   15.6000   39.8020 C.3      12 GLL5        0.0000 
      6 CA         19.0330   13.3050   42.6060 C.3       8 GLP5        0.0000 
      7 CA         17.7385   16.9450   38.5845 C.3       4 GLC5        0.0000 
      8 CA         17.4540   18.2900   37.3670 C.3       8 GLP5        0.0000 
      9 CA         17.3045   13.7325   41.0845 C.3       4 GLC5        0.0000 
     10 CA         16.9750   14.8180   39.5390 C.3      12 GLL5        0.0000 
     11 CA         17.6340   12.6470   42.6300 C.3       8 GLP5        0.0000 
     12 CA         16.5320   16.4030   38.3870 C.3       4 GLC5        0.0000 
     13 CA         16.0890   17.9880   37.2350 C.3       8 GLP5        0.0000 
     14 N          13.5805   18.0845   39.8045 N.am      2 SEC2        0.0000 
     15 N          14.1910   16.9140   40.3360 N.am     10 SEL2        0.0000 
     16 N          12.9700   19.2550   39.2730 N.am      6 SEP2        0.0000 
     17 CA         15.4830   14.5175   41.4885 C.3       4 GLC5        0.0000 
     18 CA         14.5530   14.3270   39.5240 C.3      12 GLL5        0.0000 
     19 CA         16.4130   14.7080   43.4530 C.3       8 GLP5        0.0000 
     20 CA         13.1035   14.2880   40.7995 C.3       4 GLC5        0.0000 
     21 CA         11.6540   14.2490   42.0750 C.3       8 GLP5        0.0000 
     22 O          13.2455   14.7125   36.0605 O.2       1 ALC1        0.0000 
     23 O          13.4260   14.6980   37.4270 O.2       9 ALL1        0.0000 
     24 O          13.0650   14.7270   34.6940 O.2       5 ALP1        0.0000 
     25 CA         14.8600   12.1500   41.6565 C.3       4 GLC5        0.0000 
     26 CA         14.3150   11.9020   39.5570 C.3      12 GLL5        0.0000 
     27 CA         15.4050   12.3980   43.7560 C.3       8 GLP5        0.0000 
     28 CA         12.9845   13.0755   40.8160 C.3       4 GLC5        0.0000 
     29 CA         16.5705   11.8170   41.0525 C.3       4 GLC5        0.0000 
     30 CA         15.5070   10.9870   39.4750 C.3      12 GLL5        0.0000 
     31 CA         15.0870    9.7840   41.1740 C.3       4 GLC5        0.0000 
     32 CA         14.6670    8.5810   42.8730 C.3       8 GLP5        0.0000 
     33 N          16.2835   12.3790   36.9935 N.am      2 SEC2        0.0000 
     34 N          16.3720   11.7310   38.6010 N.am     10 SEL2        0.0000 
     35 N          16.1950   13.0270   35.3860 N.am      6 SEP2        0.0000 
     36 NZ         18.2390   13.2355   36.5065 N.4       3 LYC4        0.0000 
     37 NZ         18.4970   12.0030   37.2990 N.4      11 LYL4        0.0000 
     38 NZ         16.8110   14.1850   35.1570 N.4       7 LYP4        0.0000 
     39 N          18.2390   13.2355   36.5065 N.am      2 SEC2        0.0000 
     40 N          18.4970   12.0030   37.2990 N.am     10 SEL2        0.0000 
     41 N          17.9810   14.4680   35.7140 N.am      6 SEP2        0.0000 
     42 N          17.3460   12.5150   36.3425 N.am      2 SEC2        0.0000 
     43 N          19.9050   10.1740   38.8555 N.am      2 SEC2        0.0000 
     44 N          18.5930   10.6860   39.3860 N.am     10 SEL2        0.0000 
     45 N          21.2170    9.6620   38.3250 N.am      6 SEP2        0.0000 
     46 N          19.1765   11.6970   40.4280 N.am      2 SEC2        0.0000 
     47 N          19.7600   12.7080   41.4700 N.am      6 SEP2        0.0000 
     48 N          15.6820    7.8625   38.1805 N.am      2 SEC2        0.0000 
     49 N          15.3830    8.5100   36.8630 N.am     10 SEL2        0.0000 
     50 N          15.9810    7.2150   39.4980 N.am      6 SEP2        0.0000 
     51 N          13.9425    8.6195   36.7770 N.am      2 SEC2        0.0000 
     52 N          12.5020    8.7290   36.6910 N.am      6 SEP2        0.0000 
     53 NZ         16.4370   12.3720   35.3660 N.4       3 LYC4        0.0000 
     54 NZ         16.0630   10.5590   35.5750 N.4      11 LYL4        0.0000 
     55 CA         21.4830    6.3470   32.6090 C.3       4 GLC5        0.0000 
     56 CA         20.2760    6.9250   34.2440 C.3      12 GLL5        0.0000 
     57 CA         22.6900    5.7690   30.9740 C.3       8 GLP5        0.0000 
     58 CA         18.3970    5.2260   30.8665 C.3       4 GLC5        0.0000 
     59 CA         19.0280    6.4110   32.1070 C.3      12 GLL5        0.0000 
     60 CA         17.7660    4.0410   29.6260 C.3       8 GLP5        0.0000 
     61 CA         20.8590    6.0900   31.5405 C.3       4 GLC5        0.0000 
     62 O          17.8995    5.5070   37.4260 O.2       1 ALC1        0.0000 
     63 O          19.1370    5.5440   36.5160 O.2       9 ALL1        0.0000 
     64 O          16.6620    5.4700   38.3360 O.2       5 ALP1        0.0000 
     65 N          21.2550    8.4970   37.3670 N.am      2 SEC2        0.0000 
     66 N          21.2930    7.3320   36.4090 N.am     10 SEL2        0.0000 
     67 O          21.8765    6.4520   37.2000 O.2       1 ALC1        0.0000 
     68 O          21.2930    7.3320   36.4090 O.2       9 ALL1        0.0000 
     69 O          22.4600    5.5720   37.9910 O.2       5 ALP1        0.0000 
     70 O          17.6520    5.8920   30.0555 O.2       1 ALC1        0.0000 
     71 O          17.7790    6.6900   31.3890 O.2       9 ALL1        0.0000 
     72 O          17.5250    5.0940   28.7220 O.2       5 ALP1        0.0000 
     73 CA         13.6088    9.9517   39.1555 C.3       4 GLC5        0.0000 
     74 CA         13.6850   12.4020   38.2810 C.3      12 GLL5        0.0000 
     75 CA         12.4640    8.3340   39.1140 C.3       8 GLP5        0.0000 
     76 CA         21.1170    5.4430   35.5023 C.3       4 GLC5        0.0000 
     77 CA         20.1120    7.5930   35.6310 C.3      12 GLL5        0.0000 
     78 CA         22.0400    3.6270   36.0670 C.3       8 GLP5        0.0000 
     79 CA         20.2945    8.2974   32.0323 C.3       4 GLC5        0.0000 
     80 CA         21.2640    9.8800   31.0790 C.3       8 GLP5        0.0000 
@<TRIPOS>BOND
@<TRIPOS>SUBSTRUCTURE
     1 ALC1        1 GROUP        1 X    ALC  0     ROOT ALC X 1
     2 SEC2       14 GROUP        1 X    SEC  0     **** SEC X 2
     3 LYC4       36 GROUP        1 X    LYC  0     **** LYC X 4
     4 GLC5        4 GROUP        1 X    GLC  0     **** GLC X 6
     5 ALP1        3 GROUP        1 Y    ALP  0     ROOT ALP Y 8
     6 SEP2       16 GROUP        1 Y    SEP  0     **** SEP Y 9
     7 LYP4       38 GROUP        1 Y    LYP  0     **** LYP Y 11
     8 GLP5        6 GROUP        1 Y    GLP  0     **** GLP Y 13
     9 ALL1        2 GROUP        1 Z    ALL  0     ROOT ALL Z 15
    10 SEL2       15 GROUP        1 Z    SEL  0     **** SEL Z 16
    11 LYL4       37 GROUP        1 Z    LYL  0     **** LYL Z 18
    12 GLL5        5 GROUP        1 Z    GLL  0     **** GLL Z 20
@<TRIPOS>SET

