#    Name: 1udc_UFM_1_ligand
#    Modification time : Tue Mar 25 06:28:05 2014

@<TRIPOS>MOLECULE
1udc_UFM_1_ligand
   58    60     1     0     0
SMALL
NO_CHARGES


@<TRIPOS>ATOM
      1 N1         15.6730   15.2560   39.7430 N.am      1 UFM341      0.0000 
      2 C2         15.3680   16.5480   40.1850 C.2       1 UFM341      0.0000 
      3 N3         16.4930   17.3210   40.4230 N.am      1 UFM341      0.0000 
      4 C4         17.8180   16.9420   40.2440 C.2       1 UFM341      0.0000 
      5 C5         18.0230   15.6000   39.8020 C.2       1 UFM341      0.0000 
      6 C6         16.9750   14.8180   39.5390 C.2       1 UFM341      0.0000 
      7 O2         14.1910   16.9140   40.3360 O.2       1 UFM341      0.0000 
      8 O4         18.6760   17.7860   40.4490 O.2       1 UFM341      0.0000 
      9 C1D        14.5530   14.3270   39.5240 C.3       1 UFM341      0.0000 
     10 C2D        14.3550   13.8090   38.0790 C.3       1 UFM341      0.0000 
     11 O2D        13.4260   14.6980   37.4270 O.3       1 UFM341      0.0000 
     12 C3D        13.6850   12.4020   38.2810 C.3       1 UFM341      0.0000 
     13 C4D        14.3150   11.9020   39.5570 C.3       1 UFM341      0.0000 
     14 O4D        14.6840   13.1240   40.2820 O.3       1 UFM341      0.0000 
     15 O3D        12.2520   12.4590   38.4910 O.3       1 UFM341      0.0000 
     16 C5D        15.5070   10.9870   39.4750 C.3       1 UFM341      0.0000 
     17 O5D        16.3720   11.7310   38.6010 O.3       1 UFM341      0.0000 
     18 PA         17.7730   11.0730   38.2190 P.3       1 UFM341      0.0000 
     19 O1A        18.4970   12.0030   37.2990 O.co2     1 UFM341      0.0000 
     20 O2A        18.5930   10.6860   39.3860 O.co2     1 UFM341      0.0000 
     21 O3A        17.4760    9.6730   37.4860 O.3       1 UFM341      0.0000 
     22 PB         16.4870    9.3060   36.3040 P.3       1 UFM341      0.0000 
     23 O1B        15.3830    8.5100   36.8630 O.co2     1 UFM341      0.0000 
     24 O2B        16.0630   10.5590   35.5750 O.co2     1 UFM341      0.0000 
     25 O3B        17.3710    8.4860   35.3630 O.3       1 UFM341      0.0000 
     26 C1'        17.6080    7.1080   35.5550 C.3       1 UFM341      0.0000 
     27 C2'        18.9060    6.9510   36.3370 C.3       1 UFM341      0.0000 
     28 C3'        20.1120    7.5930   35.6310 C.3       1 UFM341      0.0000 
     29 C4'        20.2760    6.9250   34.2440 C.3       1 UFM341      0.0000 
     30 C5'        18.9680    7.1120   33.4840 C.3       1 UFM341      0.0000 
     31 C6'        19.0280    6.4110   32.1070 C.3       1 UFM341      0.0000 
     32 O2'        19.1370    5.5440   36.5160 O.3       1 UFM341      0.0000 
     33 O3'        21.2930    7.3320   36.4090 O.3       1 UFM341      0.0000 
     34 O4'        21.3270    7.5510   33.5220 O.3       1 UFM341      0.0000 
     35 O5'        17.8300    6.5300   34.2200 O.3       1 UFM341      0.0000 
     36 O6'        17.7790    6.6900   31.3890 O.3       1 UFM341      0.0000 
     37 H          16.3244   18.3222   40.7853 H         1 UFM341      0.0000 
     38 H          18.9972   15.2749   39.6992 H         1 UFM341      0.0000 
     39 H          17.1123   13.8463   39.1690 H         1 UFM341      0.0000 
     40 H          13.5986   14.8027   39.8014 H         1 UFM341      0.0000 
     41 H          15.2615   13.6984   37.6203 H         1 UFM341      0.0000 
     42 H          13.9783   11.7770   37.4905 H         1 UFM341      0.0000 
     43 H          13.5236   11.4140   40.1520 H         1 UFM341      0.0000 
     44 H          15.2073   10.0611   39.0444 H         1 UFM341      0.0000 
     45 H          15.9263   10.8721   40.4464 H         1 UFM341      0.0000 
     46 H          16.8339    6.6170   36.0532 H         1 UFM341      0.0000 
     47 H          18.7799    7.4317   37.3004 H         1 UFM341      0.0000 
     48 H          19.9303    8.6215   35.4966 H         1 UFM341      0.0000 
     49 H          20.4382    5.8844   34.3933 H         1 UFM341      0.0000 
     50 H          18.7994    8.1586   33.3107 H         1 UFM341      0.0000 
     51 H          19.1548    5.3478   32.2763 H         1 UFM341      0.0000 
     52 H          19.8854    6.7992   31.5693 H         1 UFM341      0.0000 
     53 H          13.5068   14.4874   36.4528 H         1 UFM341      0.0000 
     54 H          11.9129   11.5626   38.2058 H         1 UFM341      0.0000 
     55 H          18.2943    5.1935   36.9247 H         1 UFM341      0.0000 
     56 H          21.0757    6.5150   36.9431 H         1 UFM341      0.0000 
     57 H          22.0714    6.8833   33.5178 H         1 UFM341      0.0000 
     58 H          17.7147    5.9739   30.6940 H         1 UFM341      0.0000 
@<TRIPOS>BOND
     1    2    1 1    
     2    6    1 1    
     3    9    1 1    
     4    3    2 1    
     5    7    2 2    
     6    4    3 1    
     7   37    3 1    
     8    5    4 1    
     9    8    4 2    
    10    6    5 2    
    11   38    5 1    
    12   39    6 1    
    13   10    9 1    
    14   14    9 1    
    15   40    9 1    
    16   11   10 1    
    17   12   10 1    
    18   41   10 1    
    19   53   11 1    
    20   13   12 1    
    21   15   12 1    
    22   42   12 1    
    23   14   13 1    
    24   16   13 1    
    25   43   13 1    
    26   54   15 1    
    27   17   16 1    
    28   44   16 1    
    29   45   16 1    
    30   18   17 1    
    31   19   18 ar   
    32   20   18 ar   
    33   21   18 1    
    34   22   21 1    
    35   23   22 ar   
    36   24   22 ar   
    37   25   22 1    
    38   26   25 1    
    39   27   26 1    
    40   35   26 1    
    41   46   26 1    
    42   28   27 1    
    43   32   27 1    
    44   47   27 1    
    45   29   28 1    
    46   33   28 1    
    47   48   28 1    
    48   30   29 1    
    49   34   29 1    
    50   49   29 1    
    51   31   30 1    
    52   35   30 1    
    53   50   30 1    
    54   36   31 1    
    55   51   31 1    
    56   52   31 1    
    57   55   32 1    
    58   56   33 1    
    59   57   34 1    
    60   58   36 1    
@<TRIPOS>SUBSTRUCTURE
     1 UFM341      1 GROUP   
@<TRIPOS>SET

