#    Name: 1fk8_NAD_1_INTS_M
#    Modification time : Tue Mar 25 01:25:21 2014

@<TRIPOS>MOLECULE
1fk8_NAD_1_INTS_M
   81     0     9     0     0
SMALL
NO_CHARGES


@<TRIPOS>ATOM
      1 CA        -12.1480    8.7825  -32.0410 C.3       3 GLC5        0.0000 
      2 CA        -14.1230    9.6520  -31.8520 C.3       9 GLL5        0.0000 
      3 CA        -10.1730    7.9130  -32.2300 C.3       6 GLP5        0.0000 
      4 N         -12.6550    7.4905  -32.6555 N.am      2 SEC2        0.0000 
      5 N         -13.5280    8.8840  -32.9250 N.am      8 SEL2        0.0000 
      6 N         -11.7820    6.0970  -32.3860 N.am      5 SEP2        0.0000 
      7 N         -15.0495   13.2445  -31.2015 N.am      2 SEC2        0.0000 
      8 N         -14.5010   12.0930  -32.1970 N.am      8 SEL2        0.0000 
      9 N         -15.5980   14.3960  -30.2060 N.am      5 SEP2        0.0000 
     10 N         -15.8875   12.1325  -31.4700 N.am      2 SEC2        0.0000 
     11 N         -17.2740   12.1720  -30.7430 N.am      5 SEP2        0.0000 
     12 O         -13.6420   12.7965  -32.8330 O.2       1 ALC1        0.0000 
     13 O         -14.5010   12.0930  -32.1970 O.2       7 ALL1        0.0000 
     14 O         -12.7830   13.5000  -33.4690 O.2       4 ALP1        0.0000 
     15 O         -14.2625   12.2225  -35.1825 O.2       1 ALC1        0.0000 
     16 O         -15.2680   11.5440  -34.8370 O.2       7 ALL1        0.0000 
     17 O         -13.2570   12.9010  -35.5280 O.2       4 ALP1        0.0000 
     18 CA        -12.2055   10.6790  -32.9945 C.3       3 GLC5        0.0000 
     19 CA        -13.6260    9.7440  -34.0910 C.3       9 GLL5        0.0000 
     20 CA        -10.7850   11.6140  -31.8980 C.3       6 GLP5        0.0000 
     21 CA        -11.8995    8.8285  -33.1605 C.3       3 GLC5        0.0000 
     22 CA        -11.6690    6.6235  -36.5980 C.3       3 GLC5        0.0000 
     23 CA        -12.8960    8.1370  -37.2280 C.3       9 GLL5        0.0000 
     24 CA        -10.4420    5.1100  -35.9680 C.3       6 GLP5        0.0000 
     25 CA        -11.3140    9.0295  -39.9870 C.3       3 GLC5        0.0000 
     26 CA        -12.1290    7.9920  -38.4040 C.3       9 GLL5        0.0000 
     27 CA        -10.4990   10.0670  -41.5700 C.3       6 GLP5        0.0000 
     28 CA        -10.0930    7.7365  -39.3025 C.3       3 GLC5        0.0000 
     29 CA         -8.0570    7.4810  -40.2010 C.3       6 GLP5        0.0000 
     30 CA        -11.6175    6.2160  -38.3475 C.3       3 GLC5        0.0000 
     31 CA        -11.1060    4.4400  -38.2910 C.3       6 GLP5        0.0000 
     32 O         -12.0700    7.3205  -40.6375 O.2       1 ALC1        0.0000 
     33 O         -12.4550    7.0680  -39.3030 O.2       7 ALL1        0.0000 
     34 O         -11.6850    7.5730  -41.9720 O.2       4 ALP1        0.0000 
     35 N         -10.0980    8.6370  -39.4740 N.am      2 SEC2        0.0000 
     36 N         -11.0520    8.8350  -38.5670 N.am      8 SEL2        0.0000 
     37 N          -9.1440    8.4390  -40.3810 N.am      5 SEP2        0.0000 
     38 CA        -12.2570   10.7250  -38.6285 C.3       3 GLC5        0.0000 
     39 CA        -10.7540    9.7680  -37.6250 C.3       9 GLL5        0.0000 
     40 CA        -13.7600   11.6820  -39.6320 C.3       6 GLP5        0.0000 
     41 CA        -10.6265    9.9175  -39.5975 C.3       3 GLC5        0.0000 
     42 CA         -9.0435    9.3125  -37.8800 C.3       3 GLC5        0.0000 
     43 CA         -7.3330    8.8570  -38.1350 C.3       6 GLP5        0.0000 
     44 CA        -10.9905    8.6330  -34.8915 C.3       3 GLC5        0.0000 
     45 CA        -12.5840    9.1010  -36.2680 C.3       9 GLL5        0.0000 
     46 CA         -9.3970    8.1650  -33.5150 C.3       6 GLP5        0.0000 
     47 N         -15.2085    9.7740  -25.8435 N.am      2 SEC2        0.0000 
     48 N         -15.7030    8.5970  -26.5410 N.am      8 SEL2        0.0000 
     49 N         -14.7140   10.9510  -25.1460 N.am      5 SEP2        0.0000 
     50 N         -10.6405    3.0650  -28.9545 N.am      2 SEC2        0.0000 
     51 N         -11.1620    4.4090  -28.8970 N.am      8 SEL2        0.0000 
     52 N         -10.1190    1.7210  -29.0120 N.am      5 SEP2        0.0000 
     53 O         -10.4245    5.0090  -30.3180 O.2       1 ALC1        0.0000 
     54 O         -11.1620    4.4090  -28.8970 O.2       7 ALL1        0.0000 
     55 O          -9.6870    5.6090  -31.7390 O.2       4 ALP1        0.0000 
     56 CA        -12.1285    2.0800  -28.5565 C.3       3 GLC5        0.0000 
     57 CA        -13.4300    3.7600  -28.1460 C.3       9 GLL5        0.0000 
     58 CA        -10.8270    0.4000  -28.9670 C.3       6 GLP5        0.0000 
     59 N         -13.7585    1.3335  -28.0900 N.am      2 SEC2        0.0000 
     60 N         -13.3010    2.5430  -28.8600 N.am      8 SEL2        0.0000 
     61 N         -14.2160    0.1240  -27.3200 N.am      5 SEP2        0.0000 
     62 N         -11.7100    2.1320  -28.9360 N.am      2 SEC2        0.0000 
     63 CA        -11.4965    4.2855  -25.9025 C.3       3 GLC5        0.0000 
     64 CA        -13.0720    3.6960  -26.6670 C.3       9 GLL5        0.0000 
     65 CA         -9.9210    4.8750  -25.1380 C.3       6 GLP5        0.0000 
     66 CA        -12.6723   10.9072  -32.0282 C.3       3 GLC5        0.0000 
     67 CA        -13.1541   10.1324  -38.3370 C.3       3 GLC5        0.0000 
     68 CA        -13.2423    6.8727  -25.4870 C.3       3 GLC5        0.0000 
     69 CA        -13.4660    7.0580  -27.6000 C.3       9 GLL5        0.0000 
     70 CA        -13.4890    7.2810  -23.4720 C.3       6 GLP5        0.0000 
     71 CA        -11.2182    5.1255  -26.5685 C.3       3 GLC5        0.0000 
     72 CA        -12.5250    5.8710  -27.4040 C.3       9 GLL5        0.0000 
     73 CA        -12.5870    4.5158  -30.3315 C.3       3 GLC5        0.0000 
     74 CA        -12.5060    4.8810  -28.5940 C.3       9 GLL5        0.0000 
     75 CA        -12.2060    4.7110  -32.2930 C.3       6 GLP5        0.0000 
     76 CA        -12.9292    0.1907  -24.9277 C.3       3 GLC5        0.0000 
     77 CA        -14.4470    1.2030  -24.1910 C.3       9 GLL5        0.0000 
     78 CA        -11.8460   -1.1730  -25.2400 C.3       6 GLP5        0.0000 
     79 CA        -13.7227    2.4881  -23.0830 C.3       3 GLC5        0.0000 
     80 CA        -13.5780    1.9060  -25.0400 C.3       9 GLL5        0.0000 
     81 CA        -13.0940    3.3240  -21.5810 C.3       6 GLP5        0.0000 
@<TRIPOS>BOND
@<TRIPOS>SUBSTRUCTURE
     1 ALC1       12 GROUP        1 X    ALC  0     ROOT ALC X 1
     2 SEC2        4 GROUP        1 X    SEC  0     **** SEC X 2
     3 GLC5        1 GROUP        1 X    GLC  0     **** GLC X 6
     4 ALP1       14 GROUP        1 Y    ALP  0     ROOT ALP Y 8
     5 SEP2        6 GROUP        1 Y    SEP  0     **** SEP Y 9
     6 GLP5        3 GROUP        1 Y    GLP  0     **** GLP Y 13
     7 ALL1       13 GROUP        1 Z    ALL  0     ROOT ALL Z 15
     8 SEL2        5 GROUP        1 Z    SEL  0     **** SEL Z 16
     9 GLL5        2 GROUP        1 Z    GLL  0     **** GLL Z 20
@<TRIPOS>SET

