#    Name: 1fk8_NAD_1_ligand
#    Modification time : Tue Mar 25 01:25:21 2014

@<TRIPOS>MOLECULE
1fk8_NAD_1_ligand
   70    74     1     0     0
SMALL
NO_CHARGES


@<TRIPOS>ATOM
      1 PA        -16.9880    9.0620  -29.5020 P.3       1 NAD800      0.0000 
      2 O1A       -17.8500    8.8000  -30.6900 O.co2     1 NAD800      0.0000 
      3 O2A       -17.4880   10.0170  -28.5030 O.co2     1 NAD800      0.0000 
      4 O5B       -15.5120    9.4690  -29.9940 O.3       1 NAD800      0.0000 
      5 C5B       -14.8860    8.6940  -31.0130 C.3       1 NAD800      0.0000 
      6 C4B       -14.1230    9.6520  -31.8520 C.3       1 NAD800      0.0000 
      7 O4B       -13.5280    8.8840  -32.9250 O.3       1 NAD800      0.0000 
      8 C3B       -14.9960   10.7490  -32.4650 C.3       1 NAD800      0.0000 
      9 O3B       -14.5010   12.0930  -32.1970 O.3       1 NAD800      0.0000 
     10 C2B       -14.9990   10.4220  -33.9460 C.3       1 NAD800      0.0000 
     11 O2B       -15.2680   11.5440  -34.8370 O.3       1 NAD800      0.0000 
     12 C1B       -13.6260    9.7440  -34.0910 C.3       1 NAD800      0.0000 
     13 N9A       -13.5110    8.9370  -35.3370 N.pl3     1 NAD800      0.0000 
     14 C8A       -14.3290    7.9230  -35.7340 C.2       1 NAD800      0.0000 
     15 N7A       -13.9550    7.4150  -36.9150 N.2       1 NAD800      0.0000 
     16 C5A       -12.8960    8.1370  -37.2280 C.ar      1 NAD800      0.0000 
     17 C6A       -12.1290    7.9920  -38.4040 C.ar      1 NAD800      0.0000 
     18 N6A       -12.4550    7.0680  -39.3030 N.pl3     1 NAD800      0.0000 
     19 N1A       -11.0520    8.8350  -38.5670 N.ar      1 NAD800      0.0000 
     20 C2A       -10.7540    9.7680  -37.6250 C.ar      1 NAD800      0.0000 
     21 N3A       -11.4970    9.9030  -36.5010 N.ar      1 NAD800      0.0000 
     22 C4A       -12.5840    9.1010  -36.2680 C.ar      1 NAD800      0.0000 
     23 O3        -16.6290    7.6940  -28.7400 O.3       1 NAD800      0.0000 
     24 PN        -16.0970    7.3530  -27.2720 P.3       1 NAD800      0.0000 
     25 O1N       -17.0460    6.4240  -26.5960 O.co2     1 NAD800      0.0000 
     26 O2N       -15.7030    8.5970  -26.5410 O.co2     1 NAD800      0.0000 
     27 O5D       -14.7690    6.5080  -27.5310 O.3       1 NAD800      0.0000 
     28 C5D       -13.4660    7.0580  -27.6000 C.3       1 NAD800      0.0000 
     29 C4D       -12.5250    5.8710  -27.4040 C.3       1 NAD800      0.0000 
     30 O4D       -12.9120    5.0780  -26.2420 O.3       1 NAD800      0.0000 
     31 C3D       -12.5060    4.8810  -28.5940 C.3       1 NAD800      0.0000 
     32 O3D       -11.1620    4.4090  -28.8970 O.3       1 NAD800      0.0000 
     33 C2D       -13.4300    3.7600  -28.1460 C.3       1 NAD800      0.0000 
     34 O2D       -13.3010    2.5430  -28.8600 O.3       1 NAD800      0.0000 
     35 C1D       -13.0720    3.6960  -26.6670 C.3       1 NAD800      0.0000 
     36 N1N       -14.0700    3.0130  -25.7810 N.pl3     1 NAD800      0.0000 
     37 C2N       -15.4520    3.4240  -25.6660 C.ar      1 NAD800      0.0000 
     38 C3N       -16.3280    2.6970  -24.7930 C.ar      1 NAD800      0.0000 
     39 C7N       -17.8380    3.0540  -24.5920 C.2       1 NAD800      0.0000 
     40 O7N       -18.6750    2.1560  -24.4100 O.2       1 NAD800      0.0000 
     41 N7N       -18.1920    4.3450  -24.6180 N.am      1 NAD800      0.0000 
     42 C4N       -15.8030    1.5940  -24.0690 C.ar      1 NAD800      0.0000 
     43 C5N       -14.4470    1.2030  -24.1910 C.ar      1 NAD800      0.0000 
     44 C6N       -13.5780    1.9060  -25.0400 C.ar      1 NAD800      0.0000 
     45 H         -15.6182    8.1834  -31.6326 H         1 NAD800      0.0000 
     46 H         -14.1996    7.9633  -30.5937 H         1 NAD800      0.0000 
     47 H         -13.3483   10.1134  -31.2648 H         1 NAD800      0.0000 
     48 H         -15.9999   10.6040  -32.0982 H         1 NAD800      0.0000 
     49 H         -15.7375    9.6117  -34.0698 H         1 NAD800      0.0000 
     50 H         -12.8772   10.5029  -34.0500 H         1 NAD800      0.0000 
     51 H         -15.1017    7.6094  -35.2055 H         1 NAD800      0.0000 
     52 H         -11.9041    7.0522  -40.1374 H         1 NAD800      0.0000 
     53 H         -13.2217    6.4723  -39.0635 H         1 NAD800      0.0000 
     54 H          -9.9272   10.3985  -37.7742 H         1 NAD800      0.0000 
     55 H         -13.2745    7.7687  -26.8112 H         1 NAD800      0.0000 
     56 H         -13.2525    7.4970  -28.5621 H         1 NAD800      0.0000 
     57 H         -11.5122    6.2316  -27.2690 H         1 NAD800      0.0000 
     58 H         -12.9664    5.3783  -29.4255 H         1 NAD800      0.0000 
     59 H         -14.4433    4.1803  -28.1850 H         1 NAD800      0.0000 
     60 H         -12.1051    3.1991  -26.5795 H         1 NAD800      0.0000 
     61 H         -15.7897    4.2107  -26.1940 H         1 NAD800      0.0000 
     62 H         -17.4562    4.9996  -24.7913 H         1 NAD800      0.0000 
     63 H         -19.1605    4.5389  -24.4618 H         1 NAD800      0.0000 
     64 H         -16.4252    1.0658  -23.4395 H         1 NAD800      0.0000 
     65 H         -14.1036    0.4008  -23.6535 H         1 NAD800      0.0000 
     66 H         -12.6028    1.6306  -25.1288 H         1 NAD800      0.0000 
     67 H         -13.8694   12.2903  -32.9468 H         1 NAD800      0.0000 
     68 H         -14.4249   11.6666  -35.3605 H         1 NAD800      0.0000 
     69 H         -10.9233    4.8470  -29.7637 H         1 NAD800      0.0000 
     70 H         -12.3286    2.4760  -29.0834 H         1 NAD800      0.0000 
@<TRIPOS>BOND
     1    2    1 ar   
     2    3    1 ar   
     3    4    1 1    
     4   23    1 1    
     5    5    4 1    
     6    6    5 1    
     7   45    5 1    
     8   46    5 1    
     9    7    6 1    
    10    8    6 1    
    11   47    6 1    
    12   12    7 1    
    13    9    8 1    
    14   10    8 1    
    15   48    8 1    
    16   67    9 1    
    17   11   10 1    
    18   12   10 1    
    19   49   10 1    
    20   68   11 1    
    21   13   12 1    
    22   50   12 1    
    23   14   13 1    
    24   22   13 1    
    25   15   14 2    
    26   51   14 1    
    27   16   15 1    
    28   17   16 ar   
    29   22   16 ar   
    30   18   17 1    
    31   19   17 ar   
    32   52   18 1    
    33   53   18 1    
    34   20   19 ar   
    35   21   20 ar   
    36   54   20 1    
    37   22   21 ar   
    38   24   23 1    
    39   25   24 ar   
    40   26   24 ar   
    41   27   24 1    
    42   28   27 1    
    43   29   28 1    
    44   55   28 1    
    45   56   28 1    
    46   30   29 1    
    47   31   29 1    
    48   57   29 1    
    49   35   30 1    
    50   32   31 1    
    51   33   31 1    
    52   58   31 1    
    53   69   32 1    
    54   34   33 1    
    55   35   33 1    
    56   59   33 1    
    57   70   34 1    
    58   36   35 1    
    59   60   35 1    
    60   37   36 ar   
    61   44   36 ar   
    62   38   37 ar   
    63   61   37 1    
    64   39   38 1    
    65   42   38 ar   
    66   40   39 2    
    67   41   39 am   
    68   62   41 1    
    69   63   41 1    
    70   43   42 ar   
    71   64   42 1    
    72   44   43 ar   
    73   65   43 1    
    74   66   44 1    
@<TRIPOS>SUBSTRUCTURE
     1 NAD800      1 GROUP   
@<TRIPOS>SET

