#    Name: 2Y71_1_CAVITY_N1_ALL.mol2
#    Modification time : Tue Mar 11 02:31:57 2014

@<TRIPOS>MOLECULE
2Y71_1_CAVITY_N1_ALL.mol2
   76     0     5     0     0
SMALL
NO_CHARGES


@<TRIPOS>ATOM
      1 O           6.1132  -36.1139  -51.3246 O.2       2 ALA2        0.0000 
      2 O           4.9674  -35.9837  -52.2839 O.2       2 ALA2        0.0000 
      3 O           5.3719  -35.2760  -50.3254 O.2       2 ALA2        0.0000 
      4 CZ          5.9944  -34.0386  -50.9011 C.ar      3 PHE5        0.0000 
      5 CZ          6.6170  -32.8013  -51.4768 C.ar      3 PHE5        0.0000 
      6 O           4.2261  -35.1458  -51.2847 O.2       2 ALA2        0.0000 
      7 CZ          4.8486  -33.9085  -51.8604 C.ar      3 PHE5        0.0000 
      8 CZ          5.4712  -32.6711  -52.4361 C.ar      3 PHE5        0.0000 
      9 DU          6.0937  -31.4338  -53.0118 H         5 CUB7        0.0000 
     10 O           3.7028  -33.7783  -52.8197 O.2       2 ALA2        0.0000 
     11 DU          4.3254  -32.5410  -53.3954 H         5 CUB7        0.0000 
     12 O           2.5570  -33.6481  -53.7789 O.2       2 ALA2        0.0000 
     13 N           3.1796  -32.4108  -54.3546 N.2       2 ALA2        0.0000 
     14 CZ          8.2665  -29.6189  -50.6698 C.ar      3 PHE5        0.0000 
     15 CZ          6.4982  -30.7261  -51.0533 C.ar      3 PHE5        0.0000 
     16 CA          7.1207  -29.4887  -51.6290 C.3       4 GLY6        0.0000 
     17 CA          7.7433  -28.2514  -52.2047 C.3       4 GLY6        0.0000 
     18 CA          3.4847  -34.3079  -50.2855 C.3       4 GLY6        0.0000 
     19 CZ          4.1073  -33.0706  -50.8612 C.ar      3 PHE5        0.0000 
     20 CZ          4.7298  -31.8332  -51.4369 C.ar      3 PHE5        0.0000 
     21 CZ          5.3524  -30.5959  -52.0126 C.ar      3 PHE5        0.0000 
     22 CA          5.9749  -29.3586  -52.5883 C.3       4 GLY6        0.0000 
     23 N           2.3389  -34.1777  -51.2448 N.2       2 ALA2        0.0000 
     24 O           2.9615  -32.9404  -51.8205 O.2       2 ALA2        0.0000 
     25 N           3.5840  -31.7031  -52.3962 N.2       2 ALA2        0.0000 
     26 N           4.2066  -30.4657  -52.9719 N.2       2 ALA2        0.0000 
     27 O           1.8157  -32.8102  -52.7798 O.2       2 ALA2        0.0000 
     28 O          12.7309  -28.0643  -46.4092 O.2       2 ALA2        0.0000 
     29 O          10.9626  -29.1715  -46.7927 O.2       2 ALA2        0.0000 
     30 O          11.5851  -27.9342  -47.3684 O.2       2 ALA2        0.0000 
     31 CA         12.2077  -26.6968  -47.9441 C.3       4 GLY6        0.0000 
     32 OG          9.8168  -29.0413  -47.7520 O.2       1 SER1        0.0000 
     33 O          10.4393  -27.8040  -48.3277 O.2       2 ALA2        0.0000 
     34 OG          8.6710  -28.9112  -48.7113 O.2       1 SER1        0.0000 
     35 O           9.2935  -27.6738  -49.2870 O.2       2 ALA2        0.0000 
     36 CA          7.5252  -28.7810  -49.6706 C.3       4 GLY6        0.0000 
     37 CZ          5.7568  -29.8882  -50.0541 C.ar      3 PHE5        0.0000 
     38 CA          6.3794  -28.6508  -50.6298 C.3       4 GLY6        0.0000 
     39 CZ          3.9885  -30.9954  -50.4377 C.ar      3 PHE5        0.0000 
     40 N           4.6110  -29.7580  -51.0134 N.2       2 ALA2        0.0000 
     41 CA          2.2201  -32.1025  -50.8213 C.3       4 GLY6        0.0000 
     42 CA          2.8427  -30.8652  -51.3970 C.3       4 GLY6        0.0000 
     43 O           3.4652  -29.6279  -51.9727 O.2       2 ALA2        0.0000 
     44 OG          9.5987  -29.5710  -45.2179 O.2       1 SER1        0.0000 
     45 O          10.2212  -28.3336  -45.7936 O.2       2 ALA2        0.0000 
     46 O          10.8438  -27.0963  -46.3693 O.2       2 ALA2        0.0000 
     47 OG          9.0754  -28.2035  -46.7528 O.2       1 SER1        0.0000 
     48 O           9.6980  -26.9661  -47.3285 O.2       2 ALA2        0.0000 
     49 O          10.3205  -25.7288  -47.9042 O.2       2 ALA2        0.0000 
     50 CZ          7.3071  -29.3106  -47.1364 C.ar      3 PHE5        0.0000 
     51 OG          7.9296  -28.0733  -47.7121 O.2       1 SER1        0.0000 
     52 N           8.5522  -26.8359  -48.2878 N.2       2 ALA2        0.0000 
     53 CZ          6.1613  -29.1805  -48.0957 C.ar      3 PHE5        0.0000 
     54 CA          6.7838  -27.9431  -48.6714 C.3       4 GLY6        0.0000 
     55 CZ          4.3929  -30.2876  -48.4793 C.ar      3 PHE5        0.0000 
     56 CZ          5.0155  -29.0503  -49.0550 C.ar      3 PHE5        0.0000 
     57 N           5.6380  -27.8130  -49.6307 N.2       2 ALA2        0.0000 
     58 N           3.8697  -28.9201  -50.0142 N.2       2 ALA2        0.0000 
     59 CA          9.3806  -30.1006  -42.6837 C.3       4 GLY6        0.0000 
     60 N          10.0031  -28.8632  -43.2594 N.2       2 ALA2        0.0000 
     61 OG          8.2348  -29.9704  -43.6430 O.2       1 SER1        0.0000 
     62 OG          8.8573  -28.7331  -44.2187 O.2       1 SER1        0.0000 
     63 O           9.4799  -27.4957  -44.7944 O.2       2 ALA2        0.0000 
     64 CZ          7.0890  -29.8402  -44.6023 C.ar      3 PHE5        0.0000 
     65 OG          7.7115  -28.6029  -45.1780 O.2       1 SER1        0.0000 
     66 CA          8.3341  -27.3656  -45.7537 C.3       4 GLY6        0.0000 
     67 CZ          6.5657  -28.4727  -46.1372 C.ar      3 PHE5        0.0000 
     68 N           7.1883  -27.2354  -46.7129 N.2       2 ALA2        0.0000 
     69 CZ          4.7974  -29.5799  -46.5208 C.ar      3 PHE5        0.0000 
     70 CA          5.4199  -28.3426  -47.0965 C.3       4 GLY6        0.0000 
     71 CA          6.0425  -27.1052  -47.6722 C.3       4 GLY6        0.0000 
     72 O           7.4934  -29.1325  -42.6438 O.2       2 ALA2        0.0000 
     73 CA          8.1160  -27.8952  -43.2195 C.3       4 GLY6        0.0000 
     74 N           6.3476  -29.0024  -43.6031 N.2       2 ALA2        0.0000 
     75 CA          6.9702  -27.7650  -44.1788 C.3       4 GLY6        0.0000 
     76 CA          5.8244  -27.6349  -45.1381 C.3       4 GLY6        0.0000 
@<TRIPOS>BOND
@<TRIPOS>SUBSTRUCTURE
     1 SER1       32 GROUP   
     2 ALA2        1 GROUP   
     3 PHE5        4 GROUP   
     4 GLY6       16 GROUP   
     5 CUB7        9 GROUP   
@<TRIPOS>SET

