#    Name: 2y71_CB6_1_INTS_M
#    Modification time : Tue Mar 25 07:45:50 2014

@<TRIPOS>MOLECULE
2y71_CB6_1_INTS_M
   56     0     9     0     0
SMALL
NO_CHARGES


@<TRIPOS>ATOM
      1 CA          4.3625  -28.0445  -47.9495 C.3       3 GLC5        0.0000 
      2 CA          5.6510  -29.0870  -49.4140 C.3       9 GLL5        0.0000 
      3 CA          3.0740  -27.0020  -46.4850 C.3       6 GLP5        0.0000 
      4 CA          4.3465  -29.1895  -54.2065 C.3       3 GLC5        0.0000 
      5 CA          4.7770  -30.8840  -54.0840 C.3       9 GLL5        0.0000 
      6 CA          3.9160  -27.4950  -54.3290 C.3       6 GLP5        0.0000 
      7 CA          4.9080  -27.6435  -46.9120 C.3       3 GLC5        0.0000 
      8 CA          6.7420  -28.2850  -47.3390 C.3       9 GLL5        0.0000 
      9 CA          7.0300  -30.1555  -47.1750 C.3       3 GLC5        0.0000 
     10 CA          7.3180  -32.0260  -47.0110 C.3       6 GLP5        0.0000 
     11 CA          6.5430  -29.5200  -41.2445 C.3       3 GLC5        0.0000 
     12 CA          7.2310  -29.0660  -43.2800 C.3       9 GLL5        0.0000 
     13 CA          5.8550  -29.9740  -39.2090 C.3       6 GLP5        0.0000 
     14 N           5.3525  -32.2545  -42.2535 N.am      2 SEC2        0.0000 
     15 N           6.2270  -31.2030  -42.6100 N.am      8 SEL2        0.0000 
     16 N           4.4780  -33.3060  -41.8970 N.am      5 SEP2        0.0000 
     17 N           6.8345  -32.3990  -42.5880 N.am      2 SEC2        0.0000 
     18 N           7.4420  -33.5950  -42.5660 N.am      5 SEP2        0.0000 
     19 N           4.1245  -28.2700  -42.8310 N.am      2 SEC2        0.0000 
     20 N           4.9450  -29.4430  -42.9650 N.am      8 SEL2        0.0000 
     21 N           3.3040  -27.0970  -42.6970 N.am      5 SEP2        0.0000 
     22 N           4.1280  -30.1590  -42.0820 N.am      2 SEC2        0.0000 
     23 N           3.3110  -30.8750  -41.1990 N.am      5 SEP2        0.0000 
     24 N           7.0825  -27.8630  -41.0875 N.am      2 SEC2        0.0000 
     25 N           7.1080  -27.8790  -42.4100 N.am      8 SEL2        0.0000 
     26 N           7.0570  -27.8470  -39.7650 N.am      5 SEP2        0.0000 
     27 O           6.1445  -26.9100  -42.2975 O.2       1 ALC1        0.0000 
     28 O           7.1080  -27.8790  -42.4100 O.2       7 ALL1        0.0000 
     29 O           5.1810  -25.9410  -42.1850 O.2       4 ALP1        0.0000 
     30 CA         11.5995  -28.0450  -42.6375 C.3       3 GLC5        0.0000 
     31 CA          9.7320  -28.8760  -43.4530 C.3       9 GLL5        0.0000 
     32 CA         13.4670  -27.2140  -41.8220 C.3       6 GLP5        0.0000 
     33 N          11.7265  -28.7870  -42.2180 N.am      2 SEC2        0.0000 
     34 N          10.9570  -29.5260  -43.0940 N.am      8 SEL2        0.0000 
     35 N          12.4960  -28.0480  -41.3420 N.am      5 SEP2        0.0000 
     36 N          11.7835  -30.0520  -44.1685 N.am      2 SEC2        0.0000 
     37 N          12.6100  -30.5780  -45.2430 N.am      5 SEP2        0.0000 
     38 CA          6.6580  -27.5770  -50.5128 C.3       3 GLC5        0.0000 
     39 CA          7.5210  -25.8360  -50.9930 C.3       6 GLP5        0.0000 
     40 CA          5.0615  -28.9054  -53.5110 C.3       3 GLC5        0.0000 
     41 CA          5.1090  -29.9770  -51.6870 C.3       9 GLL5        0.0000 
     42 CA          7.5523  -27.8220  -51.2395 C.3       3 GLC5        0.0000 
     43 CA          7.8550  -30.0220  -52.0780 C.3       9 GLL5        0.0000 
     44 CA          7.2970  -27.2191  -49.6064 C.3       3 GLC5        0.0000 
     45 CA          8.0990  -29.0760  -49.5360 C.3       9 GLL5        0.0000 
     46 CA          8.1237  -30.3130  -46.1000 C.3       3 GLC5        0.0000 
     47 CA          8.2250  -28.3980  -45.4140 C.3       9 GLL5        0.0000 
     48 CA          7.8277  -26.8322  -44.2474 C.3       3 GLC5        0.0000 
     49 CA          8.2060  -24.8830  -44.3510 C.3       6 GLP5        0.0000 
     50 CA          7.1278  -30.6840  -44.7336 C.3       3 GLC5        0.0000 
     51 CA          7.1110  -28.5960  -44.6010 C.3       9 GLL5        0.0000 
     52 CA          6.3800  -32.0780  -46.0140 C.3       6 GLP5        0.0000 
     53 CA          9.3625  -30.4997  -41.5763 C.3       3 GLC5        0.0000 
     54 CA          8.5800  -29.7490  -42.9660 C.3       9 GLL5        0.0000 
     55 CA          9.5690  -31.6870  -39.9430 C.3       6 GLP5        0.0000 
     56 CA          8.9445  -26.8610  -44.2797 C.3       3 GLC5        0.0000 
@<TRIPOS>BOND
@<TRIPOS>SUBSTRUCTURE
     1 ALC1       27 GROUP        1 X    ALC  0     ROOT ALC X 1
     2 SEC2       14 GROUP        1 X    SEC  0     **** SEC X 2
     3 GLC5        1 GROUP        1 X    GLC  0     **** GLC X 6
     4 ALP1       29 GROUP        1 Y    ALP  0     ROOT ALP Y 8
     5 SEP2       16 GROUP        1 Y    SEP  0     **** SEP Y 9
     6 GLP5        3 GROUP        1 Y    GLP  0     **** GLP Y 13
     7 ALL1       28 GROUP        1 Z    ALL  0     ROOT ALL Z 15
     8 SEL2       15 GROUP        1 Z    SEL  0     **** SEL Z 16
     9 GLL5        2 GROUP        1 Z    GLL  0     **** GLL Z 20
@<TRIPOS>SET

