#    Name: 2y71_CB6_1_ligand
#    Modification time : Tue Mar 25 07:45:51 2014

@<TRIPOS>MOLECULE
2y71_CB6_1_ligand
   41    43     1     0     0
SMALL
NO_CHARGES


@<TRIPOS>ATOM
      1 CAK         5.6510  -29.0870  -49.4140 C.2       1 CB61144     0.0000 
      2 CAT         5.9390  -29.5490  -50.6510 C.ar      1 CB61144     0.0000 
      3 CAI         5.1090  -29.9770  -51.6870 C.ar      1 CB61144     0.0000 
      4 CAH         5.6510  -30.4120  -52.9030 C.ar      1 CB61144     0.0000 
      5 CAA         4.7770  -30.8840  -54.0840 C.3       1 CB61144     0.0000 
      6 CAR         7.0340  -30.4370  -53.0910 C.ar      1 CB61144     0.0000 
      7 CAJ         7.8550  -30.0220  -52.0780 C.ar      1 CB61144     0.0000 
      8 CAU         7.3120  -29.5940  -50.8940 C.ar      1 CB61144     0.0000 
      9 SAO         8.0990  -29.0760  -49.5360 S.3       1 CB61144     0.0000 
     10 CAS         6.7090  -28.7630  -48.6650 C.2       1 CB61144     0.0000 
     11 CAL         6.7420  -28.2850  -47.3390 C.3       1 CB61144     0.0000 
     12 OAN         8.0960  -27.9670  -46.6890 O.3       1 CB61144     0.0000 
     13 CAQ         8.2250  -28.3980  -45.4140 C.2       1 CB61144     0.0000 
     14 CAG         7.1110  -28.5960  -44.6010 C.2       1 CB61144     0.0000 
     15 CAX         7.2310  -29.0660  -43.2800 C.3       1 CB61144     0.0000 
     16 CAP         6.0570  -29.9960  -42.9330 C.2       1 CB61144     0.0000 
     17 OAC         6.2270  -31.2030  -42.6100 O.co2     1 CB61144     0.0000 
     18 OAB         4.9450  -29.4430  -42.9650 O.co2     1 CB61144     0.0000 
     19 OAF         7.1080  -27.8790  -42.4100 O.3       1 CB61144     0.0000 
     20 CAM         8.5800  -29.7490  -42.9660 C.3       1 CB61144     0.0000 
     21 CAV         9.7320  -28.8760  -43.4530 C.3       1 CB61144     0.0000 
     22 OAD        10.9570  -29.5260  -43.0940 O.3       1 CB61144     0.0000 
     23 CAW         9.6340  -28.8020  -44.9640 C.3       1 CB61144     0.0000 
     24 OAE        10.5890  -27.8680  -45.5530 O.3       1 CB61144     0.0000 
     25 H           4.6979  -28.9957  -49.0852 H         1 CB61144     0.0000 
     26 H           4.0864  -29.9741  -51.5590 H         1 CB61144     0.0000 
     27 H           7.4186  -30.7653  -53.9840 H         1 CB61144     0.0000 
     28 H           8.8808  -30.0307  -52.2037 H         1 CB61144     0.0000 
     29 H           6.2148  -29.0076  -46.6330 H         1 CB61144     0.0000 
     30 H           6.1107  -27.3426  -47.2306 H         1 CB61144     0.0000 
     31 H           6.1641  -28.3930  -44.9743 H         1 CB61144     0.0000 
     32 H           8.6126  -30.7091  -43.4675 H         1 CB61144     0.0000 
     33 H           8.6595  -29.8936  -41.8950 H         1 CB61144     0.0000 
     34 H           9.6394  -27.9158  -43.0398 H         1 CB61144     0.0000 
     35 H           9.8154  -29.8067  -45.3702 H         1 CB61144     0.0000 
     36 H           5.3312  -31.1574  -54.8702 H         1 CB61144     0.0000 
     37 H           4.2114  -31.6706  -53.8363 H         1 CB61144     0.0000 
     38 H           4.1573  -30.1647  -54.3982 H         1 CB61144     0.0000 
     39 H           6.2475  -27.4477  -42.6810 H         1 CB61144     0.0000 
     40 H          10.6958  -30.2152  -42.4181 H         1 CB61144     0.0000 
     41 H          10.0440  -27.2886  -46.1591 H         1 CB61144     0.0000 
@<TRIPOS>BOND
     1    2    1 1    
     2   10    1 2    
     3   25    1 1    
     4    3    2 ar   
     5    8    2 ar   
     6    4    3 ar   
     7   26    3 1    
     8    5    4 1    
     9    6    4 ar   
    10   36    5 1    
    11   37    5 1    
    12   38    5 1    
    13    7    6 ar   
    14   27    6 1    
    15    8    7 ar   
    16   28    7 1    
    17    9    8 1    
    18   10    9 1    
    19   11   10 1    
    20   12   11 1    
    21   29   11 1    
    22   30   11 1    
    23   13   12 1    
    24   14   13 2    
    25   23   13 1    
    26   15   14 1    
    27   31   14 1    
    28   16   15 1    
    29   19   15 1    
    30   20   15 1    
    31   17   16 ar   
    32   18   16 ar   
    33   39   19 1    
    34   21   20 1    
    35   32   20 1    
    36   33   20 1    
    37   22   21 1    
    38   23   21 1    
    39   34   21 1    
    40   40   22 1    
    41   24   23 1    
    42   35   23 1    
    43   41   24 1    
@<TRIPOS>SUBSTRUCTURE
     1 CB61144     1 GROUP   
@<TRIPOS>SET

