#    Name: 3w0j_T08_1_INTS_M
#    Modification time : Tue Mar 25 01:56:06 2014

@<TRIPOS>MOLECULE
3w0j_T08_1_INTS_M
  106     0     9     0     0
SMALL
NO_CHARGES


@<TRIPOS>ATOM
      1 N          10.9540   -0.5320   29.5375 N.am      2 SEC2        0.0000 
      2 N          10.3750   -0.7850   28.3280 N.am      8 SEL2        0.0000 
      3 N          11.5330   -0.2790   30.7470 N.am      5 SEP2        0.0000 
      4 N          11.4580   -1.5545   27.9680 N.am      2 SEC2        0.0000 
      5 N          12.5410   -2.3240   27.6080 N.am      5 SEP2        0.0000 
      6 CA          7.7305   -2.8415   28.2515 C.3       3 GLC5        0.0000 
      7 CA          7.3720   -0.8000   28.4400 C.3       9 GLL5        0.0000 
      8 CA          8.0890   -4.8830   28.0630 C.3       6 GLP5        0.0000 
      9 CA          6.4215   -1.4765   29.8850 C.3       3 GLC5        0.0000 
     10 CA          5.4710   -2.1530   31.3300 C.3       6 GLP5        0.0000 
     11 CA          5.4800   -0.9705   27.8055 C.3       3 GLC5        0.0000 
     12 CA          3.5880   -1.1410   27.1710 C.3       6 GLP5        0.0000 
     13 CA          9.1585   -0.3210   24.2635 C.3       3 GLC5        0.0000 
     14 CA          8.3880   -0.6700   26.1890 C.3       9 GLL5        0.0000 
     15 CA          9.9290    0.0280   22.3380 C.3       6 GLP5        0.0000 
     16 CA          7.1840   -1.9585   24.9330 C.3       3 GLC5        0.0000 
     17 CA          5.9800   -3.2470   23.6770 C.3       6 GLP5        0.0000 
     18 CA          9.4270   -1.9420   24.8975 C.3       3 GLC5        0.0000 
     19 CA         10.4660   -3.2140   23.6060 C.3       6 GLP5        0.0000 
     20 CA          7.7370    3.5085   27.0575 C.3       3 GLC5        0.0000 
     21 CA          7.4700    1.3680   27.2430 C.3       9 GLL5        0.0000 
     22 CA          8.0040    5.6490   26.8720 C.3       6 GLP5        0.0000 
     23 CA          6.4340    1.9560   25.8290 C.3       3 GLC5        0.0000 
     24 CA          5.3980    2.5440   24.4150 C.3       6 GLP5        0.0000 
     25 CA         10.3810    1.7525   25.4635 C.3       3 GLC5        0.0000 
     26 CA         10.3370    1.3510   27.3000 C.3       9 GLL5        0.0000 
     27 CA         10.4250    2.1540   23.6270 C.3       6 GLP5        0.0000 
     28 CA         11.9585    1.8460   29.4810 C.3       3 GLC5        0.0000 
     29 CA         12.2420    2.8100   27.4970 C.3       9 GLL5        0.0000 
     30 CA         11.6750    0.8820   31.4650 C.3       6 GLP5        0.0000 
     31 CA          9.8940    4.7895   26.8410 C.3       3 GLC5        0.0000 
     32 CA         11.7840    3.9300   26.8100 C.3       9 GLL5        0.0000 
     33 CA         11.0370    6.2535   26.2245 C.3       3 GLC5        0.0000 
     34 CA         12.6920    4.8000   26.2220 C.3       9 GLL5        0.0000 
     35 CA          9.3820    7.7070   26.2270 C.3       6 GLP5        0.0000 
     36 CA         16.0580    0.4205   27.7895 C.3       3 GLC5        0.0000 
     37 CA         14.1200    1.3690   28.3590 C.3       9 GLL5        0.0000 
     38 CA         17.9960   -0.5280   27.2200 C.3       6 GLP5        0.0000 
     39 CA         12.8975    1.1255   29.9120 C.3       3 GLC5        0.0000 
     40 CA         14.8575    0.2770   29.9470 C.3       3 GLC5        0.0000 
     41 CA         15.5950   -0.8150   31.5350 C.3       6 GLP5        0.0000 
     42 CA         13.8970   -0.4615   28.3745 C.3       3 GLC5        0.0000 
     43 CA         13.6740   -2.2920   28.3900 C.3       6 GLP5        0.0000 
     44 CA         16.3465    3.6430   28.1920 C.3       3 GLC5        0.0000 
     45 CA         14.5160    3.4490   27.0320 C.3       9 GLL5        0.0000 
     46 CA         18.1770    3.8370   29.3520 C.3       6 GLP5        0.0000 
     47 CA         16.8975    6.8035   25.9780 C.3       3 GLC5        0.0000 
     48 CA         15.0750    5.5070   25.7460 C.3       9 GLL5        0.0000 
     49 CA         18.7200    8.1000   26.2100 C.3       6 GLP5        0.0000 
     50 CA         17.3295    5.5565   23.8635 C.3       3 GLC5        0.0000 
     51 CA         16.4380    4.8060   25.7340 C.3       9 GLL5        0.0000 
     52 CA         18.2210    6.3070   21.9930 C.3       6 GLP5        0.0000 
     53 CA         17.7585    6.0085   26.4795 C.3       3 GLC5        0.0000 
     54 CA         19.0790    7.2110   27.2250 C.3       6 GLP5        0.0000 
     55 CA         17.3075    4.3215   27.5430 C.3       3 GLC5        0.0000 
     56 CA         16.2310    8.0670   27.1895 C.3       3 GLC5        0.0000 
     57 CA         15.1400    6.7400   26.6620 C.3       9 GLL5        0.0000 
     58 CA         17.3220    9.3940   27.7170 C.3       6 GLP5        0.0000 
     59 CA         14.5780    6.8160   28.4855 C.3       3 GLC5        0.0000 
     60 CA         14.0160    6.8920   30.3090 C.3       6 GLP5        0.0000 
     61 CA         15.9450    9.1815   24.4320 C.3       3 GLC5        0.0000 
     62 CA         15.0170    7.2390   23.9330 C.3       9 GLL5        0.0000 
     63 CA         16.8730   11.1240   24.9310 C.3       6 GLP5        0.0000 
     64 CA         15.9445   10.0935   23.5700 C.3       3 GLC5        0.0000 
     65 CA         15.0160    9.0630   22.2090 C.3       9 GLL5        0.0000 
     66 CA         14.6925   10.6260   21.5510 C.3       3 GLC5        0.0000 
     67 CA         14.3690   12.1890   20.8930 C.3       6 GLP5        0.0000 
     68 CA         13.8090   10.2685   23.5505 C.3       3 GLC5        0.0000 
     69 CA         12.6020   11.4740   24.8920 C.3       6 GLP5        0.0000 
     70 CA         16.7185    6.5830   20.7450 C.3       3 GLC5        0.0000 
     71 CA         15.2160    6.8590   19.4970 C.3       9 GLL5        0.0000 
     72 N          14.7325    5.1455   16.5555 N.am      2 SEC2        0.0000 
     73 N          14.2810    5.2960   17.8320 N.am      8 SEL2        0.0000 
     74 N          15.1840    4.9950   15.2790 N.am      5 SEP2        0.0000 
     75 O          13.3105    4.8035   18.2675 O.2       1 ALC1        0.0000 
     76 O          14.2810    5.2960   17.8320 O.2       7 ALL1        0.0000 
     77 O          12.3400    4.3110   18.7030 O.2       4 ALP1        0.0000 
     78 CA         12.7310    9.1590   18.1315 C.3       3 GLC5        0.0000 
     79 CA         13.9220    7.6670   17.5370 C.3       9 GLL5        0.0000 
     80 CA         11.5400   10.6510   18.7260 C.3       6 GLP5        0.0000 
     81 CA         12.2785    7.6000   18.9400 C.3       3 GLC5        0.0000 
     82 CA         10.6350    7.5330   20.3430 C.3       6 GLP5        0.0000 
     83 CA         12.1185    7.3520   16.2400 C.3       3 GLC5        0.0000 
     84 CA         10.3150    7.0370   14.9430 C.3       6 GLP5        0.0000 
     85 CA         10.8123    0.8738   29.5960 C.3       3 GLC5        0.0000 
     86 CA          6.0924    1.0045   28.5165 C.3       3 GLC5        0.0000 
     87 CA          4.5540    1.5090   29.4260 C.3       6 GLP5        0.0000 
     88 CA         11.3888    3.1195   25.1574 C.3       3 GLC5        0.0000 
     89 CA         13.8816    3.6481   29.3598 C.3       3 GLC5        0.0000 
     90 CA         13.7440    4.5570   31.2250 C.3       6 GLP5        0.0000 
     91 CA         16.5602    6.4428   23.0610 C.3       3 GLC5        0.0000 
     92 CA         14.7820    5.9180   24.3250 C.3       9 GLL5        0.0000 
     93 CA         12.9023    8.0374   22.7865 C.3       3 GLC5        0.0000 
     94 CA         10.8490    7.8250   22.8290 C.3       6 GLP5        0.0000 
     95 CA         14.6113    3.6345   21.9803 C.3       3 GLC5        0.0000 
     96 CA         14.0740    5.3220   22.0700 C.3       9 GLL5        0.0000 
     97 CA         15.0210    2.1210   21.2280 C.3       6 GLP5        0.0000 
     98 CA         16.2112    5.7275   22.3627 C.3       3 GLC5        0.0000 
     99 CA         12.5122    6.8993   22.3428 C.3       3 GLC5        0.0000 
    100 CA         16.4034    6.8969   22.0115 C.3       3 GLC5        0.0000 
    101 CA         14.2770    6.6250   21.6430 C.3       9 GLL5        0.0000 
    102 CA         16.3820    5.3725   18.1773 C.3       3 GLC5        0.0000 
    103 CA         17.7210    4.0190   17.5900 C.3       6 GLP5        0.0000 
    104 CA         16.1000    7.8610   16.7172 C.3       3 GLC5        0.0000 
    105 CA         14.8700    6.5930   18.0320 C.3       9 GLL5        0.0000 
    106 CA         17.8040    8.5920   15.6500 C.3       6 GLP5        0.0000 
@<TRIPOS>BOND
@<TRIPOS>SUBSTRUCTURE
     1 ALC1       75 GROUP        1 X    ALC  0     ROOT ALC X 1
     2 SEC2        1 GROUP        1 X    SEC  0     **** SEC X 2
     3 GLC5        6 GROUP        1 X    GLC  0     **** GLC X 6
     4 ALP1       77 GROUP        1 Y    ALP  0     ROOT ALP Y 8
     5 SEP2        3 GROUP        1 Y    SEP  0     **** SEP Y 9
     6 GLP5        8 GROUP        1 Y    GLP  0     **** GLP Y 13
     7 ALL1       76 GROUP        1 Z    ALL  0     ROOT ALL Z 15
     8 SEL2        2 GROUP        1 Z    SEL  0     **** SEL Z 16
     9 GLL5        7 GROUP        1 Z    GLL  0     **** GLL Z 20
@<TRIPOS>SET

