#    Name: 3w0j_T08_1_ligand
#    Modification time : Tue Mar 25 01:56:06 2014

@<TRIPOS>MOLECULE
3w0j_T08_1_ligand
   69    70     1     0     0
SMALL
NO_CHARGES


@<TRIPOS>ATOM
      1 O05        10.3750   -0.7850   28.3280 O.3       1 T08501      0.0000 
      2 C20         9.5620    0.3800   28.1540 C.3       1 T08501      0.0000 
      3 C21         8.2110    0.0640   27.5020 C.3       1 T08501      0.0000 
      4 C24         7.3720   -0.8000   28.4400 C.3       1 T08501      0.0000 
      5 C23         8.3880   -0.6700   26.1890 C.3       1 T08501      0.0000 
      6 C22         7.4700    1.3680   27.2430 C.3       1 T08501      0.0000 
      7 C19        10.3370    1.3510   27.3000 C.3       1 T08501      0.0000 
      8 O04        11.3470    1.9520   28.0770 O.3       1 T08501      0.0000 
      9 C16        12.2420    2.8100   27.4970 C.ar      1 T08501      0.0000 
     10 C17        11.7840    3.9300   26.8100 C.ar      1 T08501      0.0000 
     11 C18        12.6920    4.8000   26.2220 C.ar      1 T08501      0.0000 
     12 C15        13.6080    2.5700   27.6130 C.ar      1 T08501      0.0000 
     13 C25        14.1200    1.3690   28.3590 C.3       1 T08501      0.0000 
     14 C14        14.5160    3.4490   27.0320 C.ar      1 T08501      0.0000 
     15 C13        14.0640    4.5670   26.3330 C.ar      1 T08501      0.0000 
     16 C10        15.0750    5.5070   25.7460 C.3       1 T08501      0.0000 
     17 C11        16.4380    4.8060   25.7340 C.3       1 T08501      0.0000 
     18 C12        15.1400    6.7400   26.6620 C.3       1 T08501      0.0000 
     19 C7         14.7820    5.9180   24.3250 C.ar      1 T08501      0.0000 
     20 C6         15.0170    7.2390   23.9330 C.ar      1 T08501      0.0000 
     21 C5         14.7730    7.6340   22.6250 C.ar      1 T08501      0.0000 
     22 C5A        15.0160    9.0630   22.2090 C.3       1 T08501      0.0000 
     23 C8         14.3290    4.9740   23.3950 C.ar      1 T08501      0.0000 
     24 C9         14.0740    5.3220   22.0700 C.ar      1 T08501      0.0000 
     25 C4         14.2770    6.6250   21.6430 C.ar      1 T08501      0.0000 
     26 O03        14.0600    6.9620   20.3330 O.3       1 T08501      0.0000 
     27 C3         15.2160    6.8590   19.4970 C.3       1 T08501      0.0000 
     28 C2         14.8700    6.5930   18.0320 C.3       1 T08501      0.0000 
     29 O02        14.2810    5.2960   17.8320 O.3       1 T08501      0.0000 
     30 C1         13.9220    7.6670   17.5370 C.3       1 T08501      0.0000 
     31 O01        14.7210    8.8420   17.4370 O.3       1 T08501      0.0000 
     32 H           9.3722    0.8613   29.1092 H         1 T08501      0.0000 
     33 H           9.6297    2.0914   26.9013 H         1 T08501      0.0000 
     34 H          10.7504    0.7966   26.4461 H         1 T08501      0.0000 
     35 H          10.7749    4.1116   26.7388 H         1 T08501      0.0000 
     36 H          12.3555    5.6220   25.7008 H         1 T08501      0.0000 
     37 H          15.5272    3.2741   27.1179 H         1 T08501      0.0000 
     38 H          15.3723    7.9180   24.6201 H         1 T08501      0.0000 
     39 H          14.1810    3.9950   23.7022 H         1 T08501      0.0000 
     40 H          13.7348    4.6087   21.4105 H         1 T08501      0.0000 
     41 H          15.8861    6.0417   19.8338 H         1 T08501      0.0000 
     42 H          15.8232    7.7866   19.5318 H         1 T08501      0.0000 
     43 H          15.7936    6.6862   17.4540 H         1 T08501      0.0000 
     44 H          13.1256    7.7764   18.2558 H         1 T08501      0.0000 
     45 H          13.5283    7.3600   16.5812 H         1 T08501      0.0000 
     46 H           7.8247   -1.6662   28.6515 H         1 T08501      0.0000 
     47 H           7.1967   -0.3406   29.3108 H         1 T08501      0.0000 
     48 H           6.4822   -1.0238   28.0424 H         1 T08501      0.0000 
     49 H           8.9134   -0.1314   25.5303 H         1 T08501      0.0000 
     50 H           8.8712   -1.5370   26.3104 H         1 T08501      0.0000 
     51 H           7.5096   -0.8815   25.7604 H         1 T08501      0.0000 
     52 H           7.3054    1.8759   28.0885 H         1 T08501      0.0000 
     53 H           7.9833    1.9721   26.6334 H         1 T08501      0.0000 
     54 H           6.5789    1.2106   26.8175 H         1 T08501      0.0000 
     55 H          15.1193    1.3307   28.3601 H         1 T08501      0.0000 
     56 H          13.8258    1.3722   29.3147 H         1 T08501      0.0000 
     57 H          13.7943    0.5142   27.9550 H         1 T08501      0.0000 
     58 H          17.1524    5.3895   25.3478 H         1 T08501      0.0000 
     59 H          16.7331    4.5520   26.6551 H         1 T08501      0.0000 
     60 H          16.4193    3.9669   25.1904 H         1 T08501      0.0000 
     61 H          15.4121    6.4970   27.5931 H         1 T08501      0.0000 
     62 H          15.7996    7.4146   26.3305 H         1 T08501      0.0000 
     63 H          14.2554    7.2020   26.7262 H         1 T08501      0.0000 
     64 H          15.9699    9.3316   22.3426 H         1 T08501      0.0000 
     65 H          14.8026    9.2101   21.2432 H         1 T08501      0.0000 
     66 H          14.4550    9.7031   22.7339 H         1 T08501      0.0000 
     67 H           9.7559   -1.4803   28.6931 H         1 T08501      0.0000 
     68 H          13.4540    5.2980   18.3941 H         1 T08501      0.0000 
     69 H          15.4925    8.6834   18.0531 H         1 T08501      0.0000 
@<TRIPOS>BOND
     1    2    1 1    
     2   67    1 1    
     3    3    2 1    
     4    7    2 1    
     5   32    2 1    
     6    4    3 1    
     7    5    3 1    
     8    6    3 1    
     9   46    4 1    
    10   47    4 1    
    11   48    4 1    
    12   49    5 1    
    13   50    5 1    
    14   51    5 1    
    15   52    6 1    
    16   53    6 1    
    17   54    6 1    
    18    8    7 1    
    19   33    7 1    
    20   34    7 1    
    21    9    8 1    
    22   10    9 ar   
    23   12    9 ar   
    24   11   10 ar   
    25   35   10 1    
    26   15   11 ar   
    27   36   11 1    
    28   13   12 1    
    29   14   12 ar   
    30   55   13 1    
    31   56   13 1    
    32   57   13 1    
    33   15   14 ar   
    34   37   14 1    
    35   16   15 1    
    36   17   16 1    
    37   18   16 1    
    38   19   16 1    
    39   58   17 1    
    40   59   17 1    
    41   60   17 1    
    42   61   18 1    
    43   62   18 1    
    44   63   18 1    
    45   20   19 ar   
    46   23   19 ar   
    47   21   20 ar   
    48   38   20 1    
    49   22   21 1    
    50   25   21 ar   
    51   64   22 1    
    52   65   22 1    
    53   66   22 1    
    54   24   23 ar   
    55   39   23 1    
    56   25   24 ar   
    57   40   24 1    
    58   26   25 1    
    59   27   26 1    
    60   28   27 1    
    61   41   27 1    
    62   42   27 1    
    63   29   28 1    
    64   30   28 1    
    65   43   28 1    
    66   68   29 1    
    67   31   30 1    
    68   44   30 1    
    69   45   30 1    
    70   69   31 1    
@<TRIPOS>SUBSTRUCTURE
     1 T08501      1 GROUP   
@<TRIPOS>SET

