#    Name: 2am2_2LG_1_INTS_M
#    Modification time : Mon Mar 24 19:23:42 2014

@<TRIPOS>MOLECULE
2am2_2LG_1_INTS_M
   63     0     9     0     0
SMALL
NO_CHARGES


@<TRIPOS>ATOM
      1 CA         13.3490   48.1265   55.7345 C.3       3 GLC5        0.0000 
      2 CA         11.9860   46.5450   55.9120 C.3       9 GLL5        0.0000 
      3 CA         14.7120   49.7080   55.5570 C.3       6 GLP5        0.0000 
      4 CA         11.8590   48.3835   52.7965 C.3       3 GLC5        0.0000 
      5 CA         11.4760   46.4450   53.6050 C.3       9 GLL5        0.0000 
      6 CA         12.2420   50.3220   51.9880 C.3       6 GLP5        0.0000 
      7 CA         15.9850   46.6410   58.0165 C.3       3 GLC5        0.0000 
      8 CA         14.8400   45.2570   56.9680 C.3       9 GLL5        0.0000 
      9 CA         17.1300   48.0250   59.0650 C.3       6 GLP5        0.0000 
     10 CA         15.3765   47.3135   56.6585 C.3       3 GLC5        0.0000 
     11 CA         15.9130   49.3700   56.3490 C.3       6 GLP5        0.0000 
     12 CA         21.3835   39.8070   53.5260 C.3       3 GLC5        0.0000 
     13 CA         20.8880   41.8250   54.1980 C.3       9 GLL5        0.0000 
     14 CA         21.8790   37.7890   52.8540 C.3       6 GLP5        0.0000 
     15 CA         21.4340   40.0900   49.4155 C.3       3 GLC5        0.0000 
     16 CA         22.3220   41.3530   50.7970 C.3       9 GLL5        0.0000 
     17 CA         20.5460   38.8270   48.0340 C.3       6 GLP5        0.0000 
     18 CA         22.1005   39.5710   51.8255 C.3       3 GLC5        0.0000 
     19 CA         20.7030   40.8620   48.5205 C.3       3 GLC5        0.0000 
     20 CA         21.5470   41.8520   49.5700 C.3       9 GLL5        0.0000 
     21 CA         19.8590   39.8720   47.4710 C.3       6 GLP5        0.0000 
     22 CA         14.6385   47.0970   53.6545 C.3       3 GLC5        0.0000 
     23 CA         14.1810   44.9820   53.1210 C.3       9 GLL5        0.0000 
     24 CA         15.0960   49.2120   54.1880 C.3       6 GLP5        0.0000 
     25 O          17.4210   44.6615   55.8530 O.2       1 ALC1        0.0000 
     26 O          16.3430   44.1090   54.7050 O.2       7 ALL1        0.0000 
     27 O          18.4990   45.2140   57.0010 O.2       4 ALP1        0.0000 
     28 N          15.5550   45.6265   59.5400 N.am      2 SEC2        0.0000 
     29 N          15.2050   45.2590   58.0750 N.am      8 SEL2        0.0000 
     30 N          15.9050   45.9940   61.0050 N.am      5 SEP2        0.0000 
     31 CA         19.5600   39.1950   55.4185 C.3       3 GLC5        0.0000 
     32 CA         19.8520   41.2730   55.0120 C.3       9 GLL5        0.0000 
     33 CA         19.2680   37.1170   55.8250 C.3       6 GLP5        0.0000 
     34 CA         17.0100   40.1420   54.2415 C.3       3 GLC5        0.0000 
     35 CA         17.2650   41.0630   55.9150 C.3       9 GLL5        0.0000 
     36 CA         16.7550   39.2210   52.5680 C.3       6 GLP5        0.0000 
     37 CA         17.9460   39.4595   57.0145 C.3       3 GLC5        0.0000 
     38 CA         18.6270   37.8560   58.1140 C.3       6 GLP5        0.0000 
     39 CA         17.9360   42.2420   57.6210 C.3       3 GLC5        0.0000 
     40 CA         18.6070   43.4210   59.3270 C.3       6 GLP5        0.0000 
     41 CA         25.0380   41.0440   48.3725 C.3       3 GLC5        0.0000 
     42 CA         25.1080   42.3720   50.1430 C.3       9 GLL5        0.0000 
     43 CA         24.9680   39.7160   46.6020 C.3       6 GLP5        0.0000 
     44 CA         26.6425   41.1770   50.9350 C.3       3 GLC5        0.0000 
     45 CA         28.1770   39.9820   51.7270 C.3       6 GLP5        0.0000 
     46 CA         10.4468   45.2295   56.7600 C.3       3 GLC5        0.0000 
     47 CA          9.5100   43.9580   58.0810 C.3       6 GLP5        0.0000 
     48 CA         10.8894   48.1070   55.2910 C.3       3 GLC5        0.0000 
     49 CA         10.3490   49.7410   56.0600 C.3       6 GLP5        0.0000 
     50 CA         15.5523   46.2525   52.7062 C.3       3 GLC5        0.0000 
     51 CA         16.4530   47.6510   51.5560 C.3       6 GLP5        0.0000 
     52 CA         19.0983   44.3680   54.7897 C.3       3 GLC5        0.0000 
     53 CA         18.2250   42.7950   53.9370 C.3       9 GLL5        0.0000 
     54 CA         19.4540   45.6790   56.0360 C.3       6 GLP5        0.0000 
     55 CA         20.7517   43.6575   55.0040 C.3       3 GLC5        0.0000 
     56 CA         20.5750   42.8510   53.2700 C.3       9 GLL5        0.0000 
     57 CA         20.7720   44.9770   56.2740 C.3       6 GLP5        0.0000 
     58 CA         20.1493   40.4588   50.5048 C.3       3 GLC5        0.0000 
     59 CA         18.3640   39.3150   50.8260 C.3       6 GLP5        0.0000 
     60 CA         14.3849   47.3799   54.6200 C.3       3 GLC5        0.0000 
     61 CA         12.8120   45.8030   53.8720 C.3       9 GLL5        0.0000 
     62 CA         19.9760   43.2445   55.6138 C.3       3 GLC5        0.0000 
     63 CA         18.5080   41.7510   54.8950 C.3       9 GLL5        0.0000 
@<TRIPOS>BOND
@<TRIPOS>SUBSTRUCTURE
     1 ALC1       25 GROUP        1 X    ALC  0     ROOT ALC X 1
     2 SEC2       28 GROUP        1 X    SEC  0     **** SEC X 2
     3 GLC5        1 GROUP        1 X    GLC  0     **** GLC X 6
     4 ALP1       27 GROUP        1 Y    ALP  0     ROOT ALP Y 8
     5 SEP2       30 GROUP        1 Y    SEP  0     **** SEP Y 9
     6 GLP5        3 GROUP        1 Y    GLP  0     **** GLP Y 13
     7 ALL1       26 GROUP        1 Z    ALL  0     ROOT ALL Z 15
     8 SEL2       29 GROUP        1 Z    SEL  0     **** SEL Z 16
     9 GLL5        2 GROUP        1 Z    GLL  0     **** GLL Z 20
@<TRIPOS>SET

