#    Name: 2am2_2LG_1_ligand
#    Modification time : Mon Mar 24 19:23:42 2014

@<TRIPOS>MOLECULE
2am2_2LG_1_ligand
   48    50     1     0     0
SMALL
NO_CHARGES


@<TRIPOS>ATOM
      1 C4         11.9860   46.5450   55.9120 C.3       1 2LG1000     0.0000 
      2 C6         11.4760   46.4450   53.6050 C.3       1 2LG1000     0.0000 
      3 C7         15.1220   44.7260   54.5920 C.2       1 2LG1000     0.0000 
      4 C8         14.8400   45.2570   56.9680 C.1       1 2LG1000     0.0000 
      5 C13        18.2250   42.7950   53.9370 C.ar      1 2LG1000     0.0000 
      6 C15        19.2600   43.3190   53.1500 C.ar      1 2LG1000     0.0000 
      7 C17        20.5750   42.8510   53.2700 C.ar      1 2LG1000     0.0000 
      8 C21        20.8880   41.8250   54.1980 C.ar      1 2LG1000     0.0000 
      9 C26        22.3220   41.3530   50.7970 C.3       1 2LG1000     0.0000 
     10 C28        21.5470   41.8520   49.5700 C.3       1 2LG1000     0.0000 
     11 C1         13.1010   45.8600   55.1740 C.2       1 2LG1000     0.0000 
     12 C2         12.8120   45.8030   53.8720 C.2       1 2LG1000     0.0000 
     13 C3         14.3910   45.2640   55.5810 C.2       1 2LG1000     0.0000 
     14 S5         14.1810   44.9820   53.1210 S.3       1 2LG1000     0.0000 
     15 C9         10.7810   46.4570   54.9660 C.3       1 2LG1000     0.0000 
     16 N10        16.3430   44.1090   54.7050 N.am      1 2LG1000     0.0000 
     17 N11        15.2050   45.2590   58.0750 N.1       1 2LG1000     0.0000 
     18 C12        16.8900   43.3680   53.7300 C.2       1 2LG1000     0.0000 
     19 O14        16.3290   43.1970   52.6520 O.2       1 2LG1000     0.0000 
     20 C16        18.5080   41.7510   54.8950 C.ar      1 2LG1000     0.0000 
     21 C18        19.8520   41.2730   55.0120 C.ar      1 2LG1000     0.0000 
     22 CL19       17.2650   41.0630   55.9150 Cl        1 2LG1000     0.0000 
     23 S20        21.8400   43.6260   52.2040 S.o2      1 2LG1000     0.0000 
     24 N22        23.0150   42.4590   51.6020 N.pl3     1 2LG1000     0.0000 
     25 O23        22.5550   44.5900   52.9760 O.2       1 2LG1000     0.0000 
     26 O24        21.1950   44.3070   51.1160 O.2       1 2LG1000     0.0000 
     27 C25        23.9890   43.2380   50.7450 C.3       1 2LG1000     0.0000 
     28 C27        25.1080   42.3720   50.1430 C.3       1 2LG1000     0.0000 
     29 H          12.2246   47.5701   56.0812 H         1 2LG1000     0.0000 
     30 H          11.7612   46.0252   56.8151 H         1 2LG1000     0.0000 
     31 H          10.9105   45.8531   52.9236 H         1 2LG1000     0.0000 
     32 H          11.6076   47.4459   53.2655 H         1 2LG1000     0.0000 
     33 H          19.0482   44.0661   52.4671 H         1 2LG1000     0.0000 
     34 H          21.8381   41.4830   54.2863 H         1 2LG1000     0.0000 
     35 H          23.0811   40.6245   50.4658 H         1 2LG1000     0.0000 
     36 H          21.6267   40.8117   51.4606 H         1 2LG1000     0.0000 
     37 H          10.1914   47.3198   55.0609 H         1 2LG1000     0.0000 
     38 H          10.2749   45.5507   55.1191 H         1 2LG1000     0.0000 
     39 H          16.8728   44.2329   55.6186 H         1 2LG1000     0.0000 
     40 H          20.0695   40.5358   55.6791 H         1 2LG1000     0.0000 
     41 H          24.4506   44.0361   51.3472 H         1 2LG1000     0.0000 
     42 H          23.4442   43.7265   49.9220 H         1 2LG1000     0.0000 
     43 H          22.1431   42.3254   48.9215 H         1 2LG1000     0.0000 
     44 H          21.1128   41.1001   49.0739 H         1 2LG1000     0.0000 
     45 H          20.8224   42.4928   49.8237 H         1 2LG1000     0.0000 
     46 H          25.7378   42.9135   49.5862 H         1 2LG1000     0.0000 
     47 H          25.6537   41.9249   50.8518 H         1 2LG1000     0.0000 
     48 H          24.7433   41.6501   49.5549 H         1 2LG1000     0.0000 
@<TRIPOS>BOND
     1   11    1 1    
     2   15    1 1    
     3   29    1 1    
     4   30    1 1    
     5   12    2 1    
     6   15    2 1    
     7   31    2 1    
     8   32    2 1    
     9   13    3 2    
    10   14    3 1    
    11   16    3 1    
    12   13    4 1    
    13   17    4 3    
    14    6    5 ar   
    15   18    5 1    
    16   20    5 ar   
    17    7    6 ar   
    18   33    6 1    
    19    8    7 ar   
    20   23    7 1    
    21   21    8 ar   
    22   34    8 1    
    23   10    9 1    
    24   24    9 1    
    25   35    9 1    
    26   36    9 1    
    27   43   10 1    
    28   44   10 1    
    29   45   10 1    
    30   12   11 2    
    31   13   11 1    
    32   14   12 1    
    33   37   15 1    
    34   38   15 1    
    35   18   16 am   
    36   39   16 1    
    37   19   18 2    
    38   21   20 ar   
    39   22   20 1    
    40   40   21 1    
    41   24   23 1    
    42   25   23 2    
    43   26   23 2    
    44   27   24 1    
    45   28   27 1    
    46   41   27 1    
    47   42   27 1    
    48   46   28 1    
    49   47   28 1    
    50   48   28 1    
@<TRIPOS>SUBSTRUCTURE
     1 2LG1000     1 GROUP   
@<TRIPOS>SET

