#    Name: 4msg_2C6_2_INTS_M
#    Modification time : Tue Mar 25 12:21:51 2014

@<TRIPOS>MOLECULE
4msg_2C6_2_INTS_M
   89     0     9     0     0
SMALL
NO_CHARGES


@<TRIPOS>ATOM
      1 O          24.8405   43.9695   -2.3465 O.2       1 ALC1        0.0000 
      2 O          24.1920   44.3780   -1.2270 O.2       7 ALL1        0.0000 
      3 O          25.4890   43.5610   -3.4660 O.2       4 ALP1        0.0000 
      4 N          22.9595   42.3470   -2.6825 N.am      2 SEC2        0.0000 
      5 N          22.2530   43.2060   -1.7260 N.am      8 SEL2        0.0000 
      6 N          23.6660   41.4880   -3.6390 N.am      5 SEP2        0.0000 
      7 N          21.0450   42.7650   -2.3540 N.am      2 SEC2        0.0000 
      8 N          19.8370   42.3240   -2.9820 N.am      5 SEP2        0.0000 
      9 CA         20.6130   42.9530    1.0460 C.3       3 GLC5        0.0000 
     10 CA         20.6360   44.7170    0.0200 C.3       9 GLL5        0.0000 
     11 CA         20.5900   41.1890    2.0720 C.3       6 GLP5        0.0000 
     12 CA         19.2210   46.0680    3.0015 C.3       3 GLC5        0.0000 
     13 CA         19.9430   45.6060    0.9490 C.3       9 GLL5        0.0000 
     14 CA         18.4990   46.5300    5.0540 C.3       6 GLP5        0.0000 
     15 CA         19.3630   47.2785    3.0020 C.3       3 GLC5        0.0000 
     16 CA         20.6460   46.7120    1.6290 C.3       9 GLL5        0.0000 
     17 CA         18.0800   47.8450    4.3750 C.3       6 GLP5        0.0000 
     18 CA         27.5005   44.3140   -2.0115 C.3       3 GLC5        0.0000 
     19 CA         26.5940   45.7020   -0.8120 C.3       9 GLL5        0.0000 
     20 CA         28.4070   42.9260   -3.2110 C.3       6 GLP5        0.0000 
     21 N          32.2705   37.0545    2.7480 N.am      2 SEC2        0.0000 
     22 N          32.2190   37.9540    1.5350 N.am      8 SEL2        0.0000 
     23 N          32.3220   36.1550    3.9610 N.am      5 SEP2        0.0000 
     24 CA         35.9340   33.7000   -0.1335 C.3       3 GLC5        0.0000 
     25 CA         35.8160   35.4770    0.1600 C.3       9 GLL5        0.0000 
     26 CA         36.0520   31.9230   -0.4270 C.3       6 GLP5        0.0000 
     27 CA         37.5655   34.5200   -0.9215 C.3       3 GLC5        0.0000 
     28 CA         36.9090   36.1740   -0.5160 C.3       9 GLL5        0.0000 
     29 CA         38.2220   32.8660   -1.3270 C.3       6 GLP5        0.0000 
     30 CA         37.2875   39.2685    0.3400 C.3       3 GLC5        0.0000 
     31 CA         36.8510   37.6240   -0.7250 C.3       9 GLL5        0.0000 
     32 CA         37.7240   40.9130    1.4050 C.3       6 GLP5        0.0000 
     33 CA         28.0175   42.4835    3.4820 C.3       3 GLC5        0.0000 
     34 CA         29.2290   43.3790    1.9000 C.3       9 GLL5        0.0000 
     35 CA         26.8060   41.5880    5.0640 C.3       6 GLP5        0.0000 
     36 CA         31.7380   43.5960    4.2605 C.3       3 GLC5        0.0000 
     37 CA         30.5400   43.3470    2.6890 C.3       9 GLL5        0.0000 
     38 CA         32.9360   43.8450    5.8320 C.3       6 GLP5        0.0000 
     39 CA         31.5190   42.5635    4.5405 C.3       3 GLC5        0.0000 
     40 CA         31.2700   42.0070    2.5950 C.3       9 GLL5        0.0000 
     41 CA         31.7680   43.1200    6.4860 C.3       6 GLP5        0.0000 
     42 CA         29.9390   40.9425    3.8995 C.3       3 GLC5        0.0000 
     43 CA         28.6080   39.8780    5.2040 C.3       6 GLP5        0.0000 
     44 CA         29.9850   39.7315   -0.7360 C.3       3 GLC5        0.0000 
     45 CA         30.1840   41.6120    0.3040 C.3       9 GLL5        0.0000 
     46 CA         29.7860   37.8510   -1.7760 C.3       6 GLP5        0.0000 
     47 CA         26.0110   48.4745    1.1900 C.3       3 GLC5        0.0000 
     48 CA         27.0620   46.8070    0.5380 C.3       9 GLL5        0.0000 
     49 CA         24.9600   50.1420    1.8420 C.3       6 GLP5        0.0000 
     50 CA         26.1180   47.7530    3.0190 C.3       3 GLC5        0.0000 
     51 CA         26.8750   46.2580    1.9990 C.3       9 GLL5        0.0000 
     52 CA         25.3610   49.2480    4.0390 C.3       6 GLP5        0.0000 
     53 CA         26.0145   45.8240    3.5200 C.3       3 GLC5        0.0000 
     54 CA         25.1540   45.3900    5.0410 C.3       6 GLP5        0.0000 
     55 N          25.7585   43.2475    3.0605 N.am      2 SEC2        0.0000 
     56 N          26.5890   43.8860    2.1720 N.am      8 SEL2        0.0000 
     57 N          24.9280   42.6090    3.9490 N.am      5 SEP2        0.0000 
     58 CA         22.4230   44.6445    1.6235 C.3       3 GLC5        0.0000 
     59 CA         22.0580   44.9170   -0.2200 C.3       9 GLL5        0.0000 
     60 CA         23.4990   44.4720    3.3470 C.3       6 GLP5        0.0000 
     61 CA         18.8078   44.2913    0.1287 C.3       3 GLC5        0.0000 
     62 CA         17.3260   43.4210   -0.2270 C.3       6 GLP5        0.0000 
     63 CA         21.8967   45.3155    2.3180 C.3       3 GLC5        0.0000 
     64 CA         19.1334   46.4094   -0.2421 C.3       3 GLC5        0.0000 
     65 CA         17.7990   46.8820   -1.5410 C.3       6 GLP5        0.0000 
     66 CA         22.9728   45.4793    2.1372 C.3       3 GLC5        0.0000 
     67 CA         22.0820   46.9250    1.3910 C.3       9 GLL5        0.0000 
     68 CA         25.8155   47.3813   -1.3100 C.3       3 GLC5        0.0000 
     69 CA         24.8030   48.5080   -2.4830 C.3       6 GLP5        0.0000 
     70 CA         27.3825   48.0242   -0.4880 C.3       3 GLC5        0.0000 
     71 CA         27.9370   49.7940   -0.8390 C.3       6 GLP5        0.0000 
     72 CA         35.0230   36.8107   -1.6043 C.3       3 GLC5        0.0000 
     73 CA         34.5530   37.6850    0.4400 C.3       9 GLL5        0.0000 
     74 CA         35.4430   36.6620   -3.7440 C.3       6 GLP5        0.0000 
     75 CA         32.7335   36.8723   -0.5802 C.3       3 GLC5        0.0000 
     76 CA         30.8640   36.7850   -1.6960 C.3       6 GLP5        0.0000 
     77 CA         35.9642   39.2620    1.2100 C.3       3 GLC5        0.0000 
     78 CA         36.8180   40.4920    2.3220 C.3       6 GLP5        0.0000 
     79 CA         35.9027   36.2437   -1.9610 C.3       3 GLC5        0.0000 
     80 CA         34.9617   36.1251    2.3129 C.3       3 GLC5        0.0000 
     81 CA         34.7140   36.0320    4.2780 C.3       6 GLP5        0.0000 
     82 CA         35.8512   37.3317   -2.1143 C.3       3 GLC5        0.0000 
     83 CA         35.6680   38.3790   -0.2440 C.3       9 GLL5        0.0000 
     84 CA         29.1095   42.6048   -1.4187 C.3       3 GLC5        0.0000 
     85 CA         33.4657   41.4560    2.3502 C.3       3 GLC5        0.0000 
     86 CA         31.4650   41.5370    1.1460 C.3       9 GLL5        0.0000 
     87 CA         35.5640   41.1400    2.8300 C.3       6 GLP5        0.0000 
     88 CA         31.4352   42.3176   -0.6426 C.3       3 GLC5        0.0000 
     89 CA         32.2320   42.7250   -2.0450 C.3       6 GLP5        0.0000 
@<TRIPOS>BOND
@<TRIPOS>SUBSTRUCTURE
     1 ALC1        1 GROUP        1 X    ALC  0     ROOT ALC X 1
     2 SEC2        4 GROUP        1 X    SEC  0     **** SEC X 2
     3 GLC5        9 GROUP        1 X    GLC  0     **** GLC X 6
     4 ALP1        3 GROUP        1 Y    ALP  0     ROOT ALP Y 8
     5 SEP2        6 GROUP        1 Y    SEP  0     **** SEP Y 9
     6 GLP5       11 GROUP        1 Y    GLP  0     **** GLP Y 13
     7 ALL1        2 GROUP        1 Z    ALL  0     ROOT ALL Z 15
     8 SEL2        5 GROUP        1 Z    SEL  0     **** SEL Z 16
     9 GLL5       10 GROUP        1 Z    GLL  0     **** GLL Z 20
@<TRIPOS>SET

