#    Name: 4msg_2C6_2_ligand
#    Modification time : Tue Mar 25 12:21:51 2014

@<TRIPOS>MOLECULE
4msg_2C6_2_ligand
   59    63     1     0     0
SMALL
NO_CHARGES


@<TRIPOS>ATOM
      1 N1         24.1920   44.3780   -1.2270 N.am      1 2C61402     0.0000 
      2 C9         22.8350   44.1040   -1.1060 C.2       1 2C61402     0.0000 
      3 O1         22.2530   43.2060   -1.7260 O.2       1 2C61402     0.0000 
      4 C10        22.0580   44.9170   -0.2200 C.ar      1 2C61402     0.0000 
      5 C11        20.6360   44.7170    0.0200 C.ar      1 2C61402     0.0000 
      6 C15        19.9430   45.6060    0.9490 C.ar      1 2C61402     0.0000 
      7 C16        20.6460   46.7120    1.6290 C.ar      1 2C61402     0.0000 
      8 C17        22.0820   46.9250    1.3910 C.ar      1 2C61402     0.0000 
      9 C7         22.8110   46.0480    0.4640 C.ar      1 2C61402     0.0000 
     10 N2         24.1610   46.2020    0.2500 N.2       1 2C61402     0.0000 
     11 C8         24.8560   45.4040   -0.5830 C.2       1 2C61402     0.0000 
     12 S1         26.5940   45.7020   -0.8120 S.3       1 2C61402     0.0000 
     13 C18        31.9870   40.1630    1.1770 C.2       1 2C61402     0.0000 
     14 N4         31.4370   39.0600    1.6810 N.2       1 2C61402     0.0000 
     15 N5         32.2190   37.9540    1.5350 N.2       1 2C61402     0.0000 
     16 C19        33.3380   38.4500    0.8830 C.2       1 2C61402     0.0000 
     17 C20        34.5530   37.6850    0.4400 C.ar      1 2C61402     0.0000 
     18 O2         33.1850   39.8100    0.6690 O.3       1 2C61402     0.0000 
     19 C21        34.6530   36.2340    0.6310 C.ar      1 2C61402     0.0000 
     20 C22        35.8160   35.4770    0.1600 C.ar      1 2C61402     0.0000 
     21 C23        36.9090   36.1740   -0.5160 C.ar      1 2C61402     0.0000 
     22 C24        36.8510   37.6240   -0.7250 C.ar      1 2C61402     0.0000 
     23 C25        35.6680   38.3790   -0.2440 C.ar      1 2C61402     0.0000 
     24 C1         29.4400   42.9550    0.4430 C.3       1 2C61402     0.0000 
     25 C2         29.2290   43.3790    1.9000 C.3       1 2C61402     0.0000 
     26 C3         30.5400   43.3470    2.6890 C.3       1 2C61402     0.0000 
     27 C4         31.2700   42.0070    2.5950 C.3       1 2C61402     0.0000 
     28 C5         31.4650   41.5370    1.1460 C.3       1 2C61402     0.0000 
     29 C6         30.1840   41.6120    0.3040 C.3       1 2C61402     0.0000 
     30 C12        27.0620   46.8070    0.5380 C.3       1 2C61402     0.0000 
     31 C13        26.8750   46.2580    1.9990 C.3       1 2C61402     0.0000 
     32 C14        27.3800   44.8260    2.0700 C.2       1 2C61402     0.0000 
     33 O3         26.5890   43.8860    2.1720 O.2       1 2C61402     0.0000 
     34 N3         28.7180   44.7350    2.0090 N.am      1 2C61402     0.0000 
     35 H          24.7624   43.7450   -1.8677 H         1 2C61402     0.0000 
     36 H          20.1402   43.9841   -0.4422 H         1 2C61402     0.0000 
     37 H          18.9566   45.4659    1.1356 H         1 2C61402     0.0000 
     38 H          20.1446   47.3142    2.2501 H         1 2C61402     0.0000 
     39 H          22.5623   47.6678    1.8609 H         1 2C61402     0.0000 
     40 H          33.8989   35.7436    1.1003 H         1 2C61402     0.0000 
     41 H          35.8605   34.4862    0.3013 H         1 2C61402     0.0000 
     42 H          37.7092   35.6554   -0.8415 H         1 2C61402     0.0000 
     43 H          37.5924   38.1032   -1.1832 H         1 2C61402     0.0000 
     44 H          35.6240   39.3717   -0.3844 H         1 2C61402     0.0000 
     45 H          30.0134   43.7315   -0.0780 H         1 2C61402     0.0000 
     46 H          28.4647   42.8708   -0.0518 H         1 2C61402     0.0000 
     47 H          28.5474   42.6858    2.3734 H         1 2C61402     0.0000 
     48 H          30.3266   43.5652    3.7448 H         1 2C61402     0.0000 
     49 H          31.2009   44.1418    2.3155 H         1 2C61402     0.0000 
     50 H          30.6989   41.2471    3.1407 H         1 2C61402     0.0000 
     51 H          32.2518   42.0978    3.0737 H         1 2C61402     0.0000 
     52 H          32.2139   42.1872    0.6875 H         1 2C61402     0.0000 
     53 H          30.4398   41.4574   -0.7518 H         1 2C61402     0.0000 
     54 H          29.5090   40.8012    0.6058 H         1 2C61402     0.0000 
     55 H          26.4545   47.6878    0.3537 H         1 2C61402     0.0000 
     56 H          28.1009   47.0334    0.3186 H         1 2C61402     0.0000 
     57 H          25.8242   46.2965    2.2416 H         1 2C61402     0.0000 
     58 H          27.4389   46.8872    2.6703 H         1 2C61402     0.0000 
     59 H          29.3523   45.4948    2.0322 H         1 2C61402     0.0000 
@<TRIPOS>BOND
     1    2    1 am   
     2   11    1 1    
     3   35    1 1    
     4    3    2 2    
     5    4    2 1    
     6    5    4 ar   
     7    9    4 ar   
     8    6    5 ar   
     9   36    5 1    
    10    7    6 ar   
    11   37    6 1    
    12    8    7 ar   
    13   38    7 1    
    14    9    8 ar   
    15   39    8 1    
    16   10    9 1    
    17   11   10 2    
    18   12   11 1    
    19   30   12 1    
    20   14   13 2    
    21   18   13 1    
    22   28   13 1    
    23   15   14 1    
    24   16   15 2    
    25   17   16 1    
    26   18   16 1    
    27   19   17 ar   
    28   23   17 ar   
    29   20   19 ar   
    30   40   19 1    
    31   21   20 ar   
    32   41   20 1    
    33   22   21 ar   
    34   42   21 1    
    35   23   22 ar   
    36   43   22 1    
    37   44   23 1    
    38   25   24 1    
    39   29   24 1    
    40   45   24 1    
    41   46   24 1    
    42   26   25 1    
    43   34   25 1    
    44   47   25 1    
    45   27   26 1    
    46   48   26 1    
    47   49   26 1    
    48   28   27 1    
    49   50   27 1    
    50   51   27 1    
    51   29   28 1    
    52   52   28 1    
    53   53   29 1    
    54   54   29 1    
    55   31   30 1    
    56   55   30 1    
    57   56   30 1    
    58   32   31 1    
    59   57   31 1    
    60   58   31 1    
    61   33   32 2    
    62   34   32 am   
    63   59   34 1    
@<TRIPOS>SUBSTRUCTURE
     1 2C61402     1 GROUP   
@<TRIPOS>SET

