#    Name: 4hgt_15G_2_INTS_M
#    Modification time : Tue Mar 25 01:03:01 2014

@<TRIPOS>MOLECULE
4hgt_15G_2_INTS_M
   71     0     6     0     0
SMALL
NO_CHARGES


@<TRIPOS>ATOM
      1 CA          6.0240    0.3460    0.9405 C.3       2 GLC5        0.0000 
      2 CA          5.1110    1.9140    0.6180 C.3       6 GLL5        0.0000 
      3 CA          6.9370   -1.2220    1.2630 C.3       4 GLP5        0.0000 
      4 CA         -4.6670    0.0550   -6.3685 C.3       2 GLC5        0.0000 
      5 CA         -3.9820    1.3070   -5.2470 C.3       6 GLL5        0.0000 
      6 CA         -5.3520   -1.1970   -7.4900 C.3       4 GLP5        0.0000 
      7 CA         -5.5245    1.7355   -4.3595 C.3       2 GLC5        0.0000 
      8 CA         -7.0670    2.1640   -3.4720 C.3       4 GLP5        0.0000 
      9 CA         -2.6390   -0.2970   -5.3475 C.3       2 GLC5        0.0000 
     10 CA         -1.2960   -1.9010   -5.4480 C.3       4 GLP5        0.0000 
     11 CA         -2.6600    1.0420   -6.7130 C.3       2 GLC5        0.0000 
     12 CA         -1.3380    0.7770   -8.1790 C.3       4 GLP5        0.0000 
     13 CA         -3.7480    4.9375   -4.9195 C.3       2 GLC5        0.0000 
     14 CA         -1.9830    5.1030   -5.8610 C.3       6 GLL5        0.0000 
     15 CA         -5.5130    4.7720   -3.9780 C.3       4 GLP5        0.0000 
     16 CA          0.3540    6.4410   -3.9935 C.3       2 GLC5        0.0000 
     17 CA         -0.0820    6.2980   -6.1310 C.3       6 GLL5        0.0000 
     18 CA          0.7900    6.5840   -1.8560 C.3       4 GLP5        0.0000 
     19 CA         -1.9530    2.8460   -1.5375 C.3       2 GLC5        0.0000 
     20 CA         -0.0090    2.1340   -2.2320 C.3       6 GLL5        0.0000 
     21 CA         -3.8970    3.5580   -0.8430 C.3       4 GLP5        0.0000 
     22 CA         -0.0665    0.0400   -2.7365 C.3       2 GLC5        0.0000 
     23 CA         -0.1240   -2.0540   -3.2410 C.3       4 GLP5        0.0000 
     24 CA          0.2685    3.1085    0.2125 C.3       2 GLC5        0.0000 
     25 CA          1.1150    1.8820   -1.2540 C.3       6 GLL5        0.0000 
     26 CA         -0.5780    4.3350    1.6790 C.3       4 GLP5        0.0000 
     27 CA          0.4720   -0.2020   -1.4900 C.3       2 GLC5        0.0000 
     28 CA         -0.1710   -2.2860   -1.7260 C.3       4 GLP5        0.0000 
     29 N          -3.9275    7.9080   -8.4795 N.am      1 SEC2        0.0000 
     30 N          -3.1600    6.8990   -7.8450 N.am      5 SEL2        0.0000 
     31 N          -4.6950    8.9170   -9.1140 N.am      3 SEP2        0.0000 
     32 CA         -3.8070    3.5760   -3.9880 C.3       2 GLC5        0.0000 
     33 CA         -2.1010    2.3800   -3.9980 C.3       6 GLL5        0.0000 
     34 CA         -2.5685    0.2320   -1.4030 C.3       2 GLC5        0.0000 
     35 CA         -2.0720    1.2630   -3.0630 C.3       6 GLL5        0.0000 
     36 CA         -3.0650   -0.7990    0.2570 C.3       4 GLP5        0.0000 
     37 CA         -1.7625   -0.5035   -3.5210 C.3       2 GLC5        0.0000 
     38 CA         -1.4530   -2.2700   -3.9790 C.3       4 GLP5        0.0000 
     39 N          -1.0820   -0.0940   -1.6630 N.am      1 SEC2        0.0000 
     40 N          -1.0240    1.1950   -2.2230 N.am      5 SEL2        0.0000 
     41 N          -1.1400   -1.3830   -1.1030 N.am      3 SEP2        0.0000 
     42 CA          2.4813    3.2100    1.3922 C.3       2 GLC5        0.0000 
     43 CA          3.7650    1.8410    0.1060 C.3       6 GLL5        0.0000 
     44 CA          1.4790    4.0160    3.0600 C.3       4 GLP5        0.0000 
     45 CA         -0.5377    4.4005   -7.1143 C.3       2 GLC5        0.0000 
     46 CA         -1.3900    6.1710   -6.5600 C.3       6 GLL5        0.0000 
     47 CA          0.6110    3.1640   -8.0180 C.3       4 GLP5        0.0000 
     48 CA         -0.4735    8.9080   -6.5617 C.3       2 GLC5        0.0000 
     49 CA          0.8970    7.3370   -6.6370 C.3       6 GLL5        0.0000 
     50 CA         -1.5720   10.1780   -5.8350 C.3       4 GLP5        0.0000 
     51 CA          0.5092    4.9908   -7.2010 C.3       2 GLC5        0.0000 
     52 CA         -1.5641    6.7836   -4.3864 C.3       2 GLC5        0.0000 
     53 CA         -0.9760    4.6090   -5.0130 C.3       6 GLL5        0.0000 
     54 CA         -2.1980    8.2790   -3.1810 C.3       4 GLP5        0.0000 
     55 CA         -0.2027    3.5870   -6.2750 C.3       2 GLC5        0.0000 
     56 CA          0.5653    2.0505   -4.4110 C.3       2 GLC5        0.0000 
     57 CA         -1.0570    3.4110   -4.0510 C.3       6 GLL5        0.0000 
     58 CA          1.6440    0.7640   -5.2410 C.3       4 GLP5        0.0000 
     59 CA          0.1484    5.1102   -2.8388 C.3       2 GLC5        0.0000 
     60 CA          0.0300    3.2630   -3.1110 C.3       6 GLL5        0.0000 
     61 CA         -0.1530    1.4895   -0.0715 C.3       2 GLC5        0.0000 
     62 CA         -0.8590    0.9710    1.6000 C.3       4 GLP5        0.0000 
     63 CA          1.0985    1.3860   -3.4920 C.3       2 GLC5        0.0000 
     64 CA         -0.2213    1.2928   -4.3857 C.3       2 GLC5        0.0000 
     65 CA         -2.8612    2.8186   -2.1934 C.3       2 GLC5        0.0000 
     66 CA          7.0104    2.5743    2.1685 C.3       2 GLC5        0.0000 
     67 CA          5.7960    3.1420    0.3160 C.3       6 GLL5        0.0000 
     68 CA          7.7620    2.1740    3.7510 C.3       4 GLP5        0.0000 
     69 CA          4.0920    6.0685    0.1106 C.3       2 GLC5        0.0000 
     70 CA          5.9690    5.2530   -0.5800 C.3       6 GLL5        0.0000 
     71 CA          2.9150    7.4160    0.8510 C.3       4 GLP5        0.0000 
@<TRIPOS>BOND
@<TRIPOS>SUBSTRUCTURE
     1 SEC2       29 GROUP        1 X    SEC  0     ROOT SEC X 2
     2 GLC5        1 GROUP        1 X    GLC  0     **** GLC X 6
     3 SEP2       31 GROUP        1 Y    SEP  0     ROOT SEP Y 9
     4 GLP5        3 GROUP        1 Y    GLP  0     **** GLP Y 13
     5 SEL2       30 GROUP        1 Z    SEL  0     ROOT SEL Z 16
     6 GLL5        2 GROUP        1 Z    GLL  0     **** GLL Z 20
@<TRIPOS>SET

