#    Name: 4hgt_15G_2_ligand
#    Modification time : Tue Mar 25 01:03:01 2014

@<TRIPOS>MOLECULE
4hgt_15G_2_ligand
   45    48     1     0     0
SMALL
NO_CHARGES


@<TRIPOS>ATOM
      1 C1          5.7960    3.1420    0.3160 C.ar      1 15G301      0.0000 
      2 C2          5.1110    1.9140    0.6180 C.ar      1 15G301      0.0000 
      3 C3          3.7650    1.8410    0.1060 C.ar      1 15G301      0.0000 
      4 C7         -3.9820    1.3070   -5.2470 C.3       1 15G301      0.0000 
      5 C8         -1.9830    5.1030   -5.8610 C.2       1 15G301      0.0000 
      6 C9         -1.3900    6.1710   -6.5600 C.2       1 15G301      0.0000 
      7 C10        -1.9680    6.9920   -7.5320 C.2       1 15G301      0.0000 
      8 C11         0.3530    7.9390   -7.9400 C.3       1 15G301      0.0000 
      9 C12         0.8970    7.3370   -6.6370 C.3       1 15G301      0.0000 
     10 C13        -0.0820    6.2980   -6.1310 C.2       1 15G301      0.0000 
     11 C14        -0.9760    4.6090   -5.0130 C.2       1 15G301      0.0000 
     12 C15        -1.0570    3.4110   -4.0510 C.ar      1 15G301      0.0000 
     13 C16         0.0300    3.2630   -3.1110 C.ar      1 15G301      0.0000 
     14 C19        -0.0090    2.1340   -2.2320 C.ar      1 15G301      0.0000 
     15 C20         1.1150    1.8820   -1.2540 C.3       1 15G301      0.0000 
     16 O1         -3.1600    6.8990   -7.8450 O.2       1 15G301      0.0000 
     17 N2         -1.1290    7.9040   -8.1130 N.am      1 15G301      0.0000 
     18 N3          0.1640    5.3600   -5.2030 N.pl3     1 15G301      0.0000 
     19 C17        -2.1010    2.3800   -3.9980 C.ar      1 15G301      0.0000 
     20 C18        -2.0720    1.2630   -3.0630 C.ar      1 15G301      0.0000 
     21 N1         -1.0240    1.1950   -2.2230 N.ar      1 15G301      0.0000 
     22 O2         -3.1800    2.4730   -4.9080 O.3       1 15G301      0.0000 
     23 O3          1.9310    3.0530   -1.1950 O.3       1 15G301      0.0000 
     24 C4          3.2020    2.9670   -0.6570 C.ar      1 15G301      0.0000 
     25 C5          3.9200    4.1740   -0.9390 C.ar      1 15G301      0.0000 
     26 C6          5.2180    4.2040   -0.4200 C.ar      1 15G301      0.0000 
     27 F1          7.0640    3.4210    0.7050 F         1 15G301      0.0000 
     28 F2          5.9690    5.2530   -0.5800 F         1 15G301      0.0000 
     29 H           5.5196    1.1924    1.1248 H         1 15G301      0.0000 
     30 H           3.1980    1.0234    0.2637 H         1 15G301      0.0000 
     31 H          -2.8487    4.7934   -5.9425 H         1 15G301      0.0000 
     32 H           0.8410    7.4098   -8.7921 H         1 15G301      0.0000 
     33 H           0.7119    8.9930   -8.0067 H         1 15G301      0.0000 
     34 H           1.0093    8.1241   -5.9042 H         1 15G301      0.0000 
     35 H           1.8544    6.8748   -6.8342 H         1 15G301      0.0000 
     36 H           0.7727    3.9224   -3.0807 H         1 15G301      0.0000 
     37 H           1.6807    1.0135   -1.5979 H         1 15G301      0.0000 
     38 H           0.6773    1.6464   -0.2816 H         1 15G301      0.0000 
     39 H          -1.5122    8.6595   -8.7395 H         1 15G301      0.0000 
     40 H           0.9952    5.2178   -4.7339 H         1 15G301      0.0000 
     41 H          -2.8279    0.6002   -3.0868 H         1 15G301      0.0000 
     42 H           3.5205    4.9059   -1.4531 H         1 15G301      0.0000 
     43 H          -3.4291    0.5832   -5.6598 H         1 15G301      0.0000 
     44 H          -4.4251    0.9140   -4.4413 H         1 15G301      0.0000 
     45 H          -4.7059    1.5311   -5.8995 H         1 15G301      0.0000 
@<TRIPOS>BOND
     1    2    1 ar   
     2   26    1 ar   
     3   27    1 1    
     4    3    2 ar   
     5   29    2 1    
     6   24    3 ar   
     7   30    3 1    
     8   22    4 1    
     9   43    4 1    
    10   44    4 1    
    11   45    4 1    
    12    6    5 1    
    13   11    5 2    
    14   31    5 1    
    15    7    6 1    
    16   10    6 2    
    17   16    7 2    
    18   17    7 am   
    19    9    8 1    
    20   17    8 1    
    21   32    8 1    
    22   33    8 1    
    23   10    9 1    
    24   34    9 1    
    25   35    9 1    
    26   18   10 1    
    27   12   11 1    
    28   18   11 1    
    29   13   12 ar   
    30   19   12 ar   
    31   14   13 ar   
    32   36   13 1    
    33   15   14 1    
    34   21   14 ar   
    35   23   15 1    
    36   37   15 1    
    37   38   15 1    
    38   39   17 1    
    39   40   18 1    
    40   20   19 ar   
    41   22   19 1    
    42   21   20 ar   
    43   41   20 1    
    44   24   23 1    
    45   25   24 ar   
    46   26   25 ar   
    47   42   25 1    
    48   28   26 1    
@<TRIPOS>SUBSTRUCTURE
     1 15G301      1 GROUP   
@<TRIPOS>SET

