#    Name: 2vuf_FUA_1_INTS_M
#    Modification time : Tue Mar 25 02:56:38 2014

@<TRIPOS>MOLECULE
2vuf_FUA_1_INTS_M
   87     0    12     0     0
SMALL
NO_CHARGES


@<TRIPOS>ATOM
      1 CA         -0.5760   11.6890   13.8010 C.3       4 GLC5        0.0000 
      2 CA         -0.8670   13.4250   12.6920 C.3      12 GLL5        0.0000 
      3 CA         -0.2850    9.9530   14.9100 C.3       8 GLP5        0.0000 
      4 CA         -1.0835   11.4680   10.8655 C.3       4 GLC5        0.0000 
      5 CA         -0.4030   13.4520   11.2230 C.3      12 GLL5        0.0000 
      6 CA         -1.7640    9.4840   10.5080 C.3       8 GLP5        0.0000 
      7 CA         -3.9345   16.3760   12.6505 C.3       4 GLC5        0.0000 
      8 CA         -3.2560   15.6960   14.0850 C.3      12 GLL5        0.0000 
      9 CA         -4.6130   17.0560   11.2160 C.3       8 GLP5        0.0000 
     10 CA         -4.7315   14.2625   13.6270 C.3       4 GLC5        0.0000 
     11 CA         -6.2070   12.8290   13.1690 C.3       8 GLP5        0.0000 
     12 CA          1.6440   13.8240   15.2385 C.3       4 GLC5        0.0000 
     13 CA          1.4500   15.3590   13.9060 C.3      12 GLL5        0.0000 
     14 CA          1.8380   12.2890   16.5710 C.3       8 GLP5        0.0000 
     15 CA          3.5245   15.7320   13.4615 C.3       4 GLC5        0.0000 
     16 CA          5.5990   16.1050   13.0170 C.3       8 GLP5        0.0000 
     17 CA         -2.3195   16.5260    9.7085 C.3       4 GLC5        0.0000 
     18 CA         -0.4710   16.5400   10.6460 C.3      12 GLL5        0.0000 
     19 CA         -4.1680   16.5120    8.7710 C.3       8 GLP5        0.0000 
     20 CA          0.5770   18.2210   11.4140 C.3       4 GLC5        0.0000 
     21 CA          1.6250   19.9020   12.1820 C.3       8 GLP5        0.0000 
     22 CA          3.1660   12.8300    7.7240 C.3       4 GLC5        0.0000 
     23 CA          1.5000   13.9390    8.4340 C.3      12 GLL5        0.0000 
     24 CA          4.8320   11.7210    7.0140 C.3       8 GLP5        0.0000 
     25 CA         -0.8870    7.1030    8.9520 C.3       4 GLC5        0.0000 
     26 CA          0.6870    7.6390    8.1550 C.3      12 GLL5        0.0000 
     27 CA         -2.4610    6.5670    9.7490 C.3       8 GLP5        0.0000 
     28 CA          0.0700    5.6960    8.2185 C.3       4 GLC5        0.0000 
     29 CA         -0.5470    3.7530    8.2820 C.3       8 GLP5        0.0000 
     30 CA          2.2180    6.4335    7.7155 C.3       4 GLC5        0.0000 
     31 CA          3.7490    5.2280    7.2760 C.3       8 GLP5        0.0000 
     32 CA         -1.9450    8.1380    5.9655 C.3       4 GLC5        0.0000 
     33 CA          0.1480    8.9290    6.0940 C.3      12 GLL5        0.0000 
     34 CA         -4.0380    7.3470    5.8370 C.3       8 GLP5        0.0000 
     35 CA          3.3720   19.3610    9.3265 C.3       4 GLC5        0.0000 
     36 CA          2.8640   18.6540    7.4830 C.3      12 GLL5        0.0000 
     37 CA          3.8800   20.0680   11.1700 C.3       8 GLP5        0.0000 
     38 O           0.6290   13.0900   14.9090 O.2       1 ALC1        0.0000 
     39 O           0.0720   12.6980   13.4300 O.2       9 ALL1        0.0000 
     40 O           1.1860   13.4820   16.3880 O.2       5 ALP1        0.0000 
     41 N           5.0020   18.8205    9.0895 N.am      2 SEC2        0.0000 
     42 N           4.2010   17.8100    9.0560 N.am     10 SEL2        0.0000 
     43 N           5.8030   19.8310    9.1230 N.am      6 SEP2        0.0000 
     44 NZ          4.4990   14.3200    6.6130 N.4       3 LYC4        0.0000 
     45 NZ          3.6250   14.4650    7.4160 N.4      11 LYL4        0.0000 
     46 NZ          6.4400   14.9380    5.6050 N.4       7 LYP4        0.0000 
     47 N           4.4990   14.3200    6.6130 N.am      2 SEC2        0.0000 
     48 N           3.6250   14.4650    7.4160 N.am     10 SEL2        0.0000 
     49 N           5.3730   14.1750    5.8100 N.am      6 SEP2        0.0000 
     50 N          -0.0465   14.0130   17.3305 N.am      2 SEC2        0.0000 
     51 N          -1.2790   14.5440   18.2730 N.am     10 SEL2        0.0000 
     52 N           1.1860   13.4820   16.3880 N.am      6 SEP2        0.0000 
     53 CA         -2.9105   12.0652   16.1790 C.3       4 GLC5        0.0000 
     54 CA         -2.2580   13.8250   15.4040 C.3      12 GLL5        0.0000 
     55 CA         -3.1630   10.2190   16.2850 C.3       8 GLP5        0.0000 
     56 CA         -4.2495   13.7390   17.9075 C.3       4 GLC5        0.0000 
     57 CA         -3.0580   13.9980   16.7420 C.3      12 GLL5        0.0000 
     58 CA         -5.7300   12.9440   18.6210 C.3       8 GLP5        0.0000 
     59 CA          0.8275   17.5068   15.4065 C.3       4 GLC5        0.0000 
     60 CA         -1.2780   16.1030   15.6760 C.3      12 GLL5        0.0000 
     61 CA          2.6090   18.2680   15.4480 C.3       8 GLP5        0.0000 
     62 CA          0.6070   18.6110   13.2398 C.3       4 GLC5        0.0000 
     63 CA         -0.6300   17.3880   15.0540 C.3      12 GLL5        0.0000 
     64 CA         -0.6355   19.3465   14.5267 C.3       4 GLC5        0.0000 
     65 CA         -0.1920   17.2520   13.5410 C.3      12 GLL5        0.0000 
     66 CA         -0.8600   21.3730   14.7560 C.3       8 GLP5        0.0000 
     67 CA         -2.5714   14.2531   11.2660 C.3       4 GLC5        0.0000 
     68 CA         -1.0580   14.9120   13.2940 C.3      12 GLL5        0.0000 
     69 CA         -4.4600   14.6960   10.4240 C.3       8 GLP5        0.0000 
     70 CA          1.4106   18.0165   11.9709 C.3       4 GLC5        0.0000 
     71 CA          0.2600   15.7970   13.1260 C.3      12 GLL5        0.0000 
     72 CA          3.8920   16.1255   11.7757 C.3       4 GLC5        0.0000 
     73 CA          1.9480   16.4530   11.1940 C.3      12 GLL5        0.0000 
     74 CA         -1.0161   16.4481   19.1382 C.3       4 GLC5        0.0000 
     75 CA         -1.5430   17.4110   17.8860 C.3      12 GLL5        0.0000 
     76 CA         -0.1170   16.3060   20.6970 C.3       8 GLP5        0.0000 
     77 CA          1.6755   17.1049   14.5339 C.3       4 GLC5        0.0000 
     78 CA          2.6303   12.0395    6.7390 C.3       4 GLC5        0.0000 
     79 CA          0.6600   12.6650    8.0950 C.3      12 GLL5        0.0000 
     80 CA          4.1960   12.0080    5.6640 C.3       8 GLP5        0.0000 
     81 CA         -0.3520    9.5390    9.1492 C.3       4 GLC5        0.0000 
     82 CA          1.3040   10.1090    8.0390 C.3      12 GLL5        0.0000 
     83 CA          3.0140    9.9130    7.5627 C.3       4 GLC5        0.0000 
     84 CA          0.8160    9.0790    7.5420 C.3      12 GLL5        0.0000 
     85 CA          4.9680   10.2320    7.3350 C.3       8 GLP5        0.0000 
     86 CA          1.3215    8.8270    5.0505 C.3       4 GLC5        0.0000 
     87 CA          2.1610    8.6500    3.2830 C.3       8 GLP5        0.0000 
@<TRIPOS>BOND
@<TRIPOS>SUBSTRUCTURE
     1 ALC1       38 GROUP        1 X    ALC  0     ROOT ALC X 1
     2 SEC2       41 GROUP        1 X    SEC  0     **** SEC X 2
     3 LYC4       44 GROUP        1 X    LYC  0     **** LYC X 4
     4 GLC5        1 GROUP        1 X    GLC  0     **** GLC X 6
     5 ALP1       40 GROUP        1 Y    ALP  0     ROOT ALP Y 8
     6 SEP2       43 GROUP        1 Y    SEP  0     **** SEP Y 9
     7 LYP4       46 GROUP        1 Y    LYP  0     **** LYP Y 11
     8 GLP5        3 GROUP        1 Y    GLP  0     **** GLP Y 13
     9 ALL1       39 GROUP        1 Z    ALL  0     ROOT ALL Z 15
    10 SEL2       42 GROUP        1 Z    SEL  0     **** SEL Z 16
    11 LYL4       45 GROUP        1 Z    LYL  0     **** LYL Z 18
    12 GLL5        2 GROUP        1 Z    GLL  0     **** GLL Z 20
@<TRIPOS>SET

