#    Name: 2vuf_FUA_1_ligand
#    Modification time : Tue Mar 25 02:56:38 2014

@<TRIPOS>MOLECULE
2vuf_FUA_1_ligand
   84    87     1     0     0
SMALL
NO_CHARGES


@<TRIPOS>ATOM
      1 C1         -2.2580   13.8250   15.4040 C.3       1 FUA2001     0.0000 
      2 C2         -3.0580   13.9980   16.7420 C.3       1 FUA2001     0.0000 
      3 C3         -2.4800   15.0700   17.6460 C.3       1 FUA2001     0.0000 
      4 C4         -2.0950   16.4690   16.9000 C.3       1 FUA2001     0.0000 
      5 C5         -1.2780   16.1030   15.6760 C.3       1 FUA2001     0.0000 
      6 C6         -0.6300   17.3880   15.0540 C.3       1 FUA2001     0.0000 
      7 C7         -0.1920   17.2520   13.5410 C.3       1 FUA2001     0.0000 
      8 C8          0.2600   15.7970   13.1260 C.3       1 FUA2001     0.0000 
      9 C9         -1.0580   14.9120   13.2940 C.3       1 FUA2001     0.0000 
     10 C10        -1.9010   15.1180   14.6650 C.3       1 FUA2001     0.0000 
     11 C11        -0.8670   13.4250   12.6920 C.3       1 FUA2001     0.0000 
     12 C12        -0.4030   13.4520   11.2230 C.3       1 FUA2001     0.0000 
     13 C13         0.8380   14.3750   10.9690 C.3       1 FUA2001     0.0000 
     14 C14         0.6290   15.8210   11.5250 C.3       1 FUA2001     0.0000 
     15 C15         1.9480   16.4530   11.1940 C.3       1 FUA2001     0.0000 
     16 C16         2.4220   15.8390    9.8750 C.3       1 FUA2001     0.0000 
     17 C17         1.5240   14.5730    9.6410 C.2       1 FUA2001     0.0000 
     18 C18        -1.5430   17.4110   17.8860 C.3       1 FUA2001     0.0000 
     19 C19        -3.2560   15.6960   14.0850 C.3       1 FUA2001     0.0000 
     20 C20         1.4500   15.3590   13.9060 C.3       1 FUA2001     0.0000 
     21 C21        -0.4710   16.5400   10.6460 C.3       1 FUA2001     0.0000 
     22 C22         1.5000   13.9390    8.4340 C.2       1 FUA2001     0.0000 
     23 C23         0.6600   12.6650    8.0950 C.3       1 FUA2001     0.0000 
     24 C24         1.4690   11.4770    7.5330 C.3       1 FUA2001     0.0000 
     25 C25         1.3040   10.1090    8.0390 C.2       1 FUA2001     0.0000 
     26 C26         0.8160    9.0790    7.5420 C.2       1 FUA2001     0.0000 
     27 C27         0.6870    7.6390    8.1550 C.3       1 FUA2001     0.0000 
     28 C28         0.1480    8.9290    6.0940 C.3       1 FUA2001     0.0000 
     29 C29         2.3490   14.3740    7.2820 C.2       1 FUA2001     0.0000 
     30 C31         3.1990   17.7610    8.5150 C.2       1 FUA2001     0.0000 
     31 C32         2.8640   18.6540    7.4830 C.3       1 FUA2001     0.0000 
     32 O1          0.0720   12.6980   13.4300 O.3       1 FUA2001     0.0000 
     33 O2          2.2300   16.8420    8.8130 O.3       1 FUA2001     0.0000 
     34 O3          4.2010   17.8100    9.0560 O.2       1 FUA2001     0.0000 
     35 O4          1.8440   14.6750    6.1870 O.co2     1 FUA2001     0.0000 
     36 O5          3.6250   14.4650    7.4160 O.co2     1 FUA2001     0.0000 
     37 O6         -1.2790   14.5440   18.2730 O.3       1 FUA2001     0.0000 
     38 H          -2.8538   13.1752   14.7351 H         1 FUA2001     0.0000 
     39 H          -1.3297   13.2683   15.6343 H         1 FUA2001     0.0000 
     40 H          -3.0593   13.0330   17.2605 H         1 FUA2001     0.0000 
     41 H          -4.0940   14.2447   16.4852 H         1 FUA2001     0.0000 
     42 H          -3.2048   15.3295   18.4112 H         1 FUA2001     0.0000 
     43 H          -3.0914   16.8284   16.5483 H         1 FUA2001     0.0000 
     44 H          -0.3488   15.5390   16.1103 H         1 FUA2001     0.0000 
     45 H           0.2551   17.6572   15.6443 H         1 FUA2001     0.0000 
     46 H          -1.3461   18.2160   15.1305 H         1 FUA2001     0.0000 
     47 H           0.6370   17.9392   13.3574 H         1 FUA2001     0.0000 
     48 H          -1.0323   17.5484   12.9092 H         1 FUA2001     0.0000 
     49 H          -1.7782   15.4110   12.4704 H         1 FUA2001     0.0000 
     50 H          -1.8490   12.9604   12.7178 H         1 FUA2001     0.0000 
     51 H          -1.2262   13.8024   10.5899 H         1 FUA2001     0.0000 
     52 H          -0.1444   12.4351   10.9065 H         1 FUA2001     0.0000 
     53 H           1.6712   13.9849   11.6867 H         1 FUA2001     0.0000 
     54 H           2.6697   16.2365   11.9624 H         1 FUA2001     0.0000 
     55 H           1.8321   17.5152   11.0662 H         1 FUA2001     0.0000 
     56 H           3.4204   15.5356    9.9737 H         1 FUA2001     0.0000 
     57 H          -0.1157   12.9480    7.3650 H         1 FUA2001     0.0000 
     58 H           0.1384   12.3425    9.0108 H         1 FUA2001     0.0000 
     59 H           2.5731   11.7752    7.6031 H         1 FUA2001     0.0000 
     60 H           1.3066   11.4825    6.3988 H         1 FUA2001     0.0000 
     61 H           1.7248   10.0559    9.0898 H         1 FUA2001     0.0000 
     62 H          -0.7189   17.0506   18.3231 H         1 FUA2001     0.0000 
     63 H          -1.2945   18.2842   17.4668 H         1 FUA2001     0.0000 
     64 H          -2.1975   17.6116   18.6149 H         1 FUA2001     0.0000 
     65 H          -3.1112   16.5480   13.5819 H         1 FUA2001     0.0000 
     66 H          -3.6940   15.0545   13.4552 H         1 FUA2001     0.0000 
     67 H          -3.9165   15.8922   14.8098 H         1 FUA2001     0.0000 
     68 H           2.2313   15.9669   13.7643 H         1 FUA2001     0.0000 
     69 H           1.2649   15.3437   14.8886 H         1 FUA2001     0.0000 
     70 H           1.7444   14.4386   13.6488 H         1 FUA2001     0.0000 
     71 H          -0.6034   17.4919   10.9224 H         1 FUA2001     0.0000 
     72 H          -0.2252   16.5477    9.6767 H         1 FUA2001     0.0000 
     73 H          -1.3595   16.0871   10.7195 H         1 FUA2001     0.0000 
     74 H           1.5796    7.2536    8.3889 H         1 FUA2001     0.0000 
     75 H           0.1395    7.6393    8.9918 H         1 FUA2001     0.0000 
     76 H           0.2503    7.0025    7.5193 H         1 FUA2001     0.0000 
     77 H           0.7912    9.1564    5.3629 H         1 FUA2001     0.0000 
     78 H          -0.1686    7.9954    5.9259 H         1 FUA2001     0.0000 
     79 H          -0.6433    9.5308    5.9859 H         1 FUA2001     0.0000 
     80 H           3.6022   19.3032    7.2994 H         1 FUA2001     0.0000 
     81 H           2.6740   18.1761    6.6254 H         1 FUA2001     0.0000 
     82 H           2.0503   19.1908    7.7059 H         1 FUA2001     0.0000 
     83 H           0.2040   13.2239   14.2703 H         1 FUA2001     0.0000 
     84 H          -0.6862   15.3387   18.4039 H         1 FUA2001     0.0000 
@<TRIPOS>BOND
     1    2    1 1    
     2   10    1 1    
     3   38    1 1    
     4   39    1 1    
     5    3    2 1    
     6   40    2 1    
     7   41    2 1    
     8    4    3 1    
     9   37    3 1    
    10   42    3 1    
    11    5    4 1    
    12   18    4 1    
    13   43    4 1    
    14    6    5 1    
    15   10    5 1    
    16   44    5 1    
    17    7    6 1    
    18   45    6 1    
    19   46    6 1    
    20    8    7 1    
    21   47    7 1    
    22   48    7 1    
    23    9    8 1    
    24   14    8 1    
    25   20    8 1    
    26   10    9 1    
    27   11    9 1    
    28   49    9 1    
    29   19   10 1    
    30   12   11 1    
    31   32   11 1    
    32   50   11 1    
    33   13   12 1    
    34   51   12 1    
    35   52   12 1    
    36   14   13 1    
    37   17   13 1    
    38   53   13 1    
    39   15   14 1    
    40   21   14 1    
    41   16   15 1    
    42   54   15 1    
    43   55   15 1    
    44   17   16 1    
    45   33   16 1    
    46   56   16 1    
    47   22   17 2    
    48   62   18 1    
    49   63   18 1    
    50   64   18 1    
    51   65   19 1    
    52   66   19 1    
    53   67   19 1    
    54   68   20 1    
    55   69   20 1    
    56   70   20 1    
    57   71   21 1    
    58   72   21 1    
    59   73   21 1    
    60   23   22 1    
    61   29   22 1    
    62   24   23 1    
    63   57   23 1    
    64   58   23 1    
    65   25   24 1    
    66   59   24 1    
    67   60   24 1    
    68   26   25 2    
    69   61   25 1    
    70   27   26 1    
    71   28   26 1    
    72   74   27 1    
    73   75   27 1    
    74   76   27 1    
    75   77   28 1    
    76   78   28 1    
    77   79   28 1    
    78   35   29 ar   
    79   36   29 ar   
    80   31   30 1    
    81   33   30 1    
    82   34   30 2    
    83   80   31 1    
    84   81   31 1    
    85   82   31 1    
    86   83   32 1    
    87   84   37 1    
@<TRIPOS>SUBSTRUCTURE
     1 FUA2001     1 GROUP   
@<TRIPOS>SET

