#    Name: 3cps_NAD_1_INTS_M
#    Modification time : Mon Mar 24 22:10:08 2014

@<TRIPOS>MOLECULE
3cps_NAD_1_INTS_M
   81     0     9     0     0
SMALL
NO_CHARGES


@<TRIPOS>ATOM
      1 N          24.2605   92.4695   10.9815 N.am      2 SEC2        0.0000 
      2 N          23.8030   92.5010    9.5620 N.am      8 SEL2        0.0000 
      3 N          24.7180   92.4380   12.4010 N.am      5 SEP2        0.0000 
      4 CA         18.3485   92.8860   12.4715 C.3       3 GLC5        0.0000 
      5 CA         19.3320   92.5930   10.7230 C.3       9 GLL5        0.0000 
      6 CA         17.3650   93.1790   14.2200 C.3       6 GLP5        0.0000 
      7 O          18.7165   89.9705   12.0160 O.2       1 ALC1        0.0000 
      8 O          19.6720   90.2740   11.0580 O.2       7 ALL1        0.0000 
      9 O          17.7610   89.6670   12.9740 O.2       4 ALP1        0.0000 
     10 CA         16.1530   89.9305    8.8790 C.3       3 GLC5        0.0000 
     11 CA         17.9370   91.0160    9.5360 C.3       9 GLL5        0.0000 
     12 CA         14.3690   88.8450    8.2220 C.3       6 GLP5        0.0000 
     13 O          16.8545   89.1360   10.7490 O.2       1 ALC1        0.0000 
     14 O          17.5840   89.6140    9.6030 O.2       7 ALL1        0.0000 
     15 O          16.1250   88.6580   11.8950 O.2       4 ALP1        0.0000 
     16 O          17.6725   89.6405   11.2885 O.2       1 ALC1        0.0000 
     17 CA         17.2390   92.5125   12.3750 C.3       3 GLC5        0.0000 
     18 CA         17.1130   91.8460   10.5300 C.3       9 GLL5        0.0000 
     19 CA         17.0825   94.0040   10.8175 C.3       3 GLC5        0.0000 
     20 CA         17.0520   96.1620   11.1050 C.3       6 GLP5        0.0000 
     21 CA         11.9110   91.2985   11.0155 C.3       3 GLC5        0.0000 
     22 CA         12.3660   93.0780   10.6110 C.3       9 GLL5        0.0000 
     23 CA         11.4560   89.5190   11.4200 C.3       6 GLP5        0.0000 
     24 O           9.8555   93.5075   10.2925 O.2       1 ALC1        0.0000 
     25 O          11.3140   93.4250    9.8530 O.2       7 ALL1        0.0000 
     26 O           8.3970   93.5900   10.7320 O.2       4 ALP1        0.0000 
     27 CA         15.3235   92.8975   13.4635 C.3       3 GLC5        0.0000 
     28 CA         13.2820   92.6160   12.7070 C.3       9 GLL5        0.0000 
     29 CA         13.9100   90.7835   13.5185 C.3       3 GLC5        0.0000 
     30 CA         14.5380   88.9510   14.3300 C.3       6 GLP5        0.0000 
     31 CA         12.9925   91.0965   12.4710 C.3       3 GLC5        0.0000 
     32 CA         12.7030   89.5770   12.2350 C.3       6 GLP5        0.0000 
     33 CA         14.0615   94.0855   12.4450 C.3       3 GLC5        0.0000 
     34 CA         14.8410   95.5550   12.1830 C.3       6 GLP5        0.0000 
     35 CA         16.0200   92.8095   12.5345 C.3       3 GLC5        0.0000 
     36 CA         14.6750   92.4400   10.8490 C.3       9 GLL5        0.0000 
     37 N          24.4930   94.9115   12.6320 N.am      2 SEC2        0.0000 
     38 N          23.8280   95.0050   11.3810 N.am      8 SEL2        0.0000 
     39 N          25.1580   94.8180   13.8830 N.am      5 SEP2        0.0000 
     40 CA         23.2370   97.2665   12.5030 C.3       3 GLC5        0.0000 
     41 CA         21.9900   97.3570   10.6590 C.3       9 GLL5        0.0000 
     42 CA         24.4840   97.1760   14.3470 C.3       6 GLP5        0.0000 
     43 CA         20.3365   98.3450   12.3790 C.3       3 GLC5        0.0000 
     44 CA         21.7270   98.8590   10.7960 C.3       9 GLL5        0.0000 
     45 CA         18.9460   97.8310   13.9620 C.3       6 GLP5        0.0000 
     46 N          21.9295   99.8940   12.5855 N.am      2 SEC2        0.0000 
     47 N          22.8770   99.5360   11.4300 N.am      8 SEL2        0.0000 
     48 N          20.9820  100.2520   13.7410 N.am      5 SEP2        0.0000 
     49 CA         21.0690  101.6310    9.8910 C.3       3 GLC5        0.0000 
     50 CA         21.5780   99.5160    9.4240 C.3       9 GLL5        0.0000 
     51 CA         20.5600  103.7460   10.3580 C.3       6 GLP5        0.0000 
     52 CA         24.4885   99.1100   11.9230 C.3       3 GLC5        0.0000 
     53 CA         23.4730  100.4070   10.4600 C.3       9 GLL5        0.0000 
     54 CA         25.5040   97.8130   13.3860 C.3       6 GLP5        0.0000 
     55 CA         22.0165  102.0765   10.4090 C.3       3 GLC5        0.0000 
     56 N          30.6865   98.5015    9.7705 N.am      2 SEC2        0.0000 
     57 N          29.3890   98.7240    9.7970 N.am      8 SEL2        0.0000 
     58 N          31.9840   98.2790    9.7440 N.am      5 SEP2        0.0000 
     59 CA         28.7080  101.8200   10.5830 C.3       3 GLC5        0.0000 
     60 CA         27.6260  100.5610   11.3020 C.3       9 GLL5        0.0000 
     61 CA         29.7900  103.0790    9.8640 C.3       6 GLP5        0.0000 
     62 CA         28.4095  102.4650   11.6905 C.3       3 GLC5        0.0000 
     63 CA         26.7850  101.5850   11.7210 C.3       9 GLL5        0.0000 
     64 CA         30.0340  103.3450   11.6600 C.3       6 GLP5        0.0000 
     65 CA         27.8535  101.8335   13.5800 C.3       3 GLC5        0.0000 
     66 CA         28.9220  102.0820   15.4390 C.3       6 GLP5        0.0000 
     67 CA         25.4685   99.6615   12.4125 C.3       3 GLC5        0.0000 
     68 CA         25.4330  101.5100   11.4390 C.3       9 GLL5        0.0000 
     69 CA         18.4082   94.6180   10.7100 C.3       3 GLC5        0.0000 
     70 CA         21.0354   91.8183   11.4447 C.3       3 GLC5        0.0000 
     71 CA         20.1970   93.5550    9.9070 C.3       9 GLL5        0.0000 
     72 CA         22.5050   91.4880   12.7090 C.3       6 GLP5        0.0000 
     73 CA         13.4217   91.1010   11.3375 C.3       3 GLC5        0.0000 
     74 CA         14.3357   94.1235   11.3840 C.3       3 GLC5        0.0000 
     75 CA         13.6060   92.8100   10.0310 C.3       9 GLL5        0.0000 
     76 CA         19.8893   99.0433    9.4015 C.3       3 GLC5        0.0000 
     77 CA         18.1260   98.8990    8.6930 C.3       6 GLP5        0.0000 
     78 CA         25.9778   98.6137   11.9185 C.3       3 GLC5        0.0000 
     79 CA         25.7700   99.3700   10.3000 C.3       9 GLL5        0.0000 
     80 CA         27.0667   99.5420   12.7423 C.3       3 GLC5        0.0000 
     81 CA         26.9280   98.0110   13.9730 C.3       6 GLP5        0.0000 
@<TRIPOS>BOND
@<TRIPOS>SUBSTRUCTURE
     1 ALC1        7 GROUP        1 X    ALC  0     ROOT ALC X 1
     2 SEC2        1 GROUP        1 X    SEC  0     **** SEC X 2
     3 GLC5        4 GROUP        1 X    GLC  0     **** GLC X 6
     4 ALP1        9 GROUP        1 Y    ALP  0     ROOT ALP Y 8
     5 SEP2        3 GROUP        1 Y    SEP  0     **** SEP Y 9
     6 GLP5        6 GROUP        1 Y    GLP  0     **** GLP Y 13
     7 ALL1        8 GROUP        1 Z    ALL  0     ROOT ALL Z 15
     8 SEL2        2 GROUP        1 Z    SEL  0     **** SEL Z 16
     9 GLL5        5 GROUP        1 Z    GLL  0     **** GLL Z 20
@<TRIPOS>SET

