#    Name: 3cps_NAD_1_ligand
#    Modification time : Mon Mar 24 22:10:08 2014

@<TRIPOS>MOLECULE
3cps_NAD_1_ligand
   70    74     1     0     0
SMALL
NO_CHARGES


@<TRIPOS>ATOM
      1 PA         22.6870   93.3070    9.0320 P.3       1 NAD401      0.0000 
      2 O1A        22.0830   92.9530    7.6890 O.co2     1 NAD401      0.0000 
      3 O2A        23.8030   92.5010    9.5620 O.co2     1 NAD401      0.0000 
      4 O5B        21.5670   93.2680   10.1670 O.3       1 NAD401      0.0000 
      5 C5B        20.1970   93.5550    9.9070 C.3       1 NAD401      0.0000 
      6 C4B        19.3320   92.5930   10.7230 C.3       1 NAD401      0.0000 
      7 O4B        17.9390   93.0220   10.7710 O.3       1 NAD401      0.0000 
      8 C3B        19.3670   91.2230   10.0460 C.3       1 NAD401      0.0000 
      9 O3B        19.6720   90.2740   11.0580 O.3       1 NAD401      0.0000 
     10 C2B        17.9370   91.0160    9.5360 C.3       1 NAD401      0.0000 
     11 O2B        17.5840   89.6140    9.6030 O.3       1 NAD401      0.0000 
     12 C1B        17.1130   91.8460   10.5300 C.3       1 NAD401      0.0000 
     13 N9A        15.7380   92.2570   10.0690 N.pl3     1 NAD401      0.0000 
     14 C8A        15.3470   92.4910    8.8130 C.2       1 NAD401      0.0000 
     15 N7A        14.0520   92.8350    8.7810 N.2       1 NAD401      0.0000 
     16 C5A        13.6060   92.8100   10.0310 C.ar      1 NAD401      0.0000 
     17 C6A        12.3660   93.0780   10.6110 C.ar      1 NAD401      0.0000 
     18 N6A        11.3140   93.4250    9.8530 N.pl3     1 NAD401      0.0000 
     19 N1A        12.2420   92.9610   11.9450 N.ar      1 NAD401      0.0000 
     20 C2A        13.2820   92.6160   12.7070 C.ar      1 NAD401      0.0000 
     21 N3A        14.4770   92.3500   12.1840 N.ar      1 NAD401      0.0000 
     22 C4A        14.6750   92.4400   10.8490 C.ar      1 NAD401      0.0000 
     23 O3         23.0190   94.9190    9.0110 O.3       1 NAD401      0.0000 
     24 PN         23.9850   95.6520   10.0550 P.3       1 NAD401      0.0000 
     25 O1N        25.3270   95.8500    9.4660 O.co2     1 NAD401      0.0000 
     26 O2N        23.8280   95.0050   11.3810 O.co2     1 NAD401      0.0000 
     27 O5D        23.3050   97.1270   10.1130 O.3       1 NAD401      0.0000 
     28 C5D        21.9900   97.3570   10.6590 C.3       1 NAD401      0.0000 
     29 C4D        21.7270   98.8590   10.7960 C.3       1 NAD401      0.0000 
     30 O4D        22.8770   99.5360   11.4300 O.3       1 NAD401      0.0000 
     31 C3D        21.5780   99.5160    9.4240 C.3       1 NAD401      0.0000 
     32 O3D        20.7780  100.6860    9.6090 O.3       1 NAD401      0.0000 
     33 C2D        23.0190   99.8890    9.0920 C.3       1 NAD401      0.0000 
     34 O2D        23.0640  100.9500    8.1490 O.3       1 NAD401      0.0000 
     35 C1D        23.4730  100.4070   10.4600 C.3       1 NAD401      0.0000 
     36 N1N        24.9240  100.4080   10.7340 N.pl3     1 NAD401      0.0000 
     37 C2N        25.7700   99.3700   10.3000 C.ar      1 NAD401      0.0000 
     38 C3N        27.1330   99.4590   10.6020 C.ar      1 NAD401      0.0000 
     39 C7N        28.1200   98.3830   10.1670 C.2       1 NAD401      0.0000 
     40 O7N        29.3890   98.7240    9.7970 O.2       1 NAD401      0.0000 
     41 N7N        27.6900   97.1180   10.1580 N.am      1 NAD401      0.0000 
     42 C4N        27.6260  100.5610   11.3020 C.ar      1 NAD401      0.0000 
     43 C5N        26.7850  101.5850   11.7210 C.ar      1 NAD401      0.0000 
     44 C6N        25.4330  101.5100   11.4390 C.ar      1 NAD401      0.0000 
     45 H          19.9427   93.4194    8.8536 H         1 NAD401      0.0000 
     46 H          19.9290   94.5727   10.1988 H         1 NAD401      0.0000 
     47 H          19.7433   92.4914   11.7015 H         1 NAD401      0.0000 
     48 H          20.0301   91.2479    9.2532 H         1 NAD401      0.0000 
     49 H          17.8532   91.4400    8.5852 H         1 NAD401      0.0000 
     50 H          17.0457   91.2798   11.4524 H         1 NAD401      0.0000 
     51 H          15.9262   92.4213    8.0215 H         1 NAD401      0.0000 
     52 H          11.4763   93.4653    8.8671 H         1 NAD401      0.0000 
     53 H          10.4620   93.6122   10.3420 H         1 NAD401      0.0000 
     54 H          13.1515   92.5525   13.7566 H         1 NAD401      0.0000 
     55 H          21.8842   96.9053   11.6523 H         1 NAD401      0.0000 
     56 H          21.2095   96.9365   10.0141 H         1 NAD401      0.0000 
     57 H          20.8424   99.0286   11.3556 H         1 NAD401      0.0000 
     58 H          21.2172   98.8291    8.7529 H         1 NAD401      0.0000 
     59 H          23.5527   99.0406    8.8592 H         1 NAD401      0.0000 
     60 H          23.0660  101.4040   10.5976 H         1 NAD401      0.0000 
     61 H          25.3988   98.5834    9.7844 H         1 NAD401      0.0000 
     62 H          28.3552   96.4292    9.8699 H         1 NAD401      0.0000 
     63 H          26.7415   96.9736   10.4401 H         1 NAD401      0.0000 
     64 H          28.6397  100.6145   11.5123 H         1 NAD401      0.0000 
     65 H          27.1658  102.3867   12.2338 H         1 NAD401      0.0000 
     66 H          24.7943  102.2554   11.7412 H         1 NAD401      0.0000 
     67 H          18.8632   90.2536   11.6457 H         1 NAD401      0.0000 
     68 H          17.2441   89.4770   10.5335 H         1 NAD401      0.0000 
     69 H          21.3019  101.4268    9.1886 H         1 NAD401      0.0000 
     70 H          23.9474  101.3935    8.3006 H         1 NAD401      0.0000 
@<TRIPOS>BOND
     1    2    1 ar   
     2    3    1 ar   
     3    4    1 1    
     4   23    1 1    
     5    5    4 1    
     6    6    5 1    
     7   45    5 1    
     8   46    5 1    
     9    7    6 1    
    10    8    6 1    
    11   47    6 1    
    12   12    7 1    
    13    9    8 1    
    14   10    8 1    
    15   48    8 1    
    16   67    9 1    
    17   11   10 1    
    18   12   10 1    
    19   49   10 1    
    20   68   11 1    
    21   13   12 1    
    22   50   12 1    
    23   14   13 1    
    24   22   13 1    
    25   15   14 2    
    26   51   14 1    
    27   16   15 1    
    28   17   16 ar   
    29   22   16 ar   
    30   18   17 1    
    31   19   17 ar   
    32   52   18 1    
    33   53   18 1    
    34   20   19 ar   
    35   21   20 ar   
    36   54   20 1    
    37   22   21 ar   
    38   24   23 1    
    39   25   24 ar   
    40   26   24 ar   
    41   27   24 1    
    42   28   27 1    
    43   29   28 1    
    44   55   28 1    
    45   56   28 1    
    46   30   29 1    
    47   31   29 1    
    48   57   29 1    
    49   35   30 1    
    50   32   31 1    
    51   33   31 1    
    52   58   31 1    
    53   69   32 1    
    54   34   33 1    
    55   35   33 1    
    56   59   33 1    
    57   70   34 1    
    58   36   35 1    
    59   60   35 1    
    60   37   36 ar   
    61   44   36 ar   
    62   38   37 ar   
    63   61   37 1    
    64   39   38 1    
    65   42   38 ar   
    66   40   39 2    
    67   41   39 am   
    68   62   41 1    
    69   63   41 1    
    70   43   42 ar   
    71   64   42 1    
    72   44   43 ar   
    73   65   43 1    
    74   66   44 1    
@<TRIPOS>SUBSTRUCTURE
     1 NAD401      1 GROUP   
@<TRIPOS>SET

