#    Name: 1kol_NAD_2_INTS_M
#    Modification time : Mon Apr  7 13:39:05 2014

@<TRIPOS>MOLECULE
1kol_NAD_2_INTS_M
  104     0    12     0     0
SMALL
NO_CHARGES


@<TRIPOS>ATOM
      1 NZ          4.7315   39.5660   74.3575 N.4       3 LYC4        0.0000 
      2 NZ          4.8430   38.6700   75.5360 N.4      11 LYL4        0.0000 
      3 NZ          4.9140   40.0880   71.9350 N.4       7 LYP4        0.0000 
      4 N           4.7315   39.5660   74.3575 N.am      2 SEC2        0.0000 
      5 N           4.8430   38.6700   75.5360 N.am     10 SEL2        0.0000 
      6 N           4.6200   40.4620   73.1790 N.am      6 SEP2        0.0000 
      7 CA          3.0495   42.7510   79.3595 C.3       4 GLC5        0.0000 
      8 CA          3.8450   41.8900   77.4440 C.3      12 GLL5        0.0000 
      9 CA          2.2540   43.6120   81.2750 C.3       8 GLP5        0.0000 
     10 CA          1.5970   43.8210   76.7015 C.3       4 GLC5        0.0000 
     11 CA          3.5500   43.0520   76.5050 C.3      12 GLL5        0.0000 
     12 CA         -0.3560   44.5900   76.8980 C.3       8 GLP5        0.0000 
     13 N           4.3595   41.8070   73.6640 N.am      2 SEC2        0.0000 
     14 N           4.0990   43.1520   74.1490 N.am     10 SEL2        0.0000 
     15 O           3.0950   44.0395   73.8860 O.2       1 ALC1        0.0000 
     16 O           4.0990   43.1520   74.1490 O.2       9 ALL1        0.0000 
     17 O           2.0910   44.9270   73.6230 O.2       5 ALP1        0.0000 
     18 O           4.5120   46.0510   73.9690 O.2       1 ALC1        0.0000 
     19 O           5.5390   45.5280   74.6300 O.2       9 ALL1        0.0000 
     20 O           3.4850   46.5740   73.3080 O.2       5 ALP1        0.0000 
     21 CA          1.8020   44.9495   76.6865 C.3       4 GLC5        0.0000 
     22 CA          3.9600   45.3090   76.4750 C.3      12 GLL5        0.0000 
     23 CA          2.7470   45.4755   78.2370 C.3       4 GLC5        0.0000 
     24 CA          1.5340   45.6420   79.9990 C.3       8 GLP5        0.0000 
     25 N           6.1695   48.7125   79.3735 N.am      2 SEC2        0.0000 
     26 N           5.0730   48.0810   78.5750 N.am     10 SEL2        0.0000 
     27 N           7.2660   49.3440   80.1720 N.am      6 SEP2        0.0000 
     28 CA          3.8185   46.9415   79.6060 C.3       4 GLC5        0.0000 
     29 CA          3.7500   48.3830   78.3360 C.3      12 GLL5        0.0000 
     30 CA          3.8870   45.5000   80.8760 C.3       8 GLP5        0.0000 
     31 CA          2.2335   47.5455   79.3680 C.3       4 GLC5        0.0000 
     32 CA          2.9330   49.4490   78.7370 C.3      12 GLL5        0.0000 
     33 CA          2.8265   51.6200   78.7415 C.3       4 GLC5        0.0000 
     34 CA          2.7200   53.7910   78.7460 C.3       8 GLP5        0.0000 
     35 O           4.6015   51.0625   79.8650 O.2       1 ALC1        0.0000 
     36 O           3.3120   50.4770   79.4880 O.2       9 ALL1        0.0000 
     37 O           5.8910   51.6480   80.2420 O.2       5 ALP1        0.0000 
     38 O           2.5020   51.8255   79.4565 O.2       1 ALC1        0.0000 
     39 O           1.6920   53.1740   79.4250 O.2       5 ALP1        0.0000 
     40 CA         -0.3530   47.9820   78.8480 C.3       4 GLC5        0.0000 
     41 CA          1.2350   48.3870   77.5160 C.3      12 GLL5        0.0000 
     42 CA         -1.9410   47.5770   80.1800 C.3       8 GLP5        0.0000 
     43 CA          0.4395   46.4885   77.2070 C.3       4 GLC5        0.0000 
     44 CA          1.1320   48.3400   75.5745 C.3       4 GLC5        0.0000 
     45 CA          1.0290   48.2930   73.6330 C.3       8 GLP5        0.0000 
     46 CA          0.6470   49.8980   76.5835 C.3       4 GLC5        0.0000 
     47 CA          0.0590   51.4090   75.6510 C.3       8 GLP5        0.0000 
     48 CA          1.3845   47.0145   78.7575 C.3       4 GLC5        0.0000 
     49 CA          2.3570   46.5360   78.7635 C.3       4 GLC5        0.0000 
     50 CA          3.1800   47.4300   77.5280 C.3      12 GLL5        0.0000 
     51 N           4.1370   35.3400   77.9860 N.am      2 SEC2        0.0000 
     52 N           3.0010   36.2270   77.6100 N.am     10 SEL2        0.0000 
     53 N           5.2730   34.4530   78.3620 N.am      6 SEP2        0.0000 
     54 N           0.3490   37.6305   76.8610 N.am      2 SEC2        0.0000 
     55 N           1.6500   38.2440   77.1490 N.am     10 SEL2        0.0000 
     56 N          -0.9520   37.0170   76.5730 N.am      6 SEP2        0.0000 
     57 CA          0.4810   38.0935   79.5475 C.3       4 GLC5        0.0000 
     58 CA          2.0400   39.0120   80.0480 C.3      12 GLL5        0.0000 
     59 CA         -1.0780   37.1750   79.0470 C.3       8 GLP5        0.0000 
     60 CA          1.5860   39.8715   83.1715 C.3       4 GLC5        0.0000 
     61 CA          2.3210   39.0460   81.5430 C.3      12 GLL5        0.0000 
     62 CA          0.8510   40.6970   84.8000 C.3       8 GLP5        0.0000 
     63 N           3.4925   39.6475   84.4215 N.am      2 SEC2        0.0000 
     64 N           4.1650   39.5730   83.0140 N.am     10 SEL2        0.0000 
     65 N           2.8200   39.7220   85.8290 N.am      6 SEP2        0.0000 
     66 O           5.5805   39.3985   82.9855 O.2       1 ALC1        0.0000 
     67 O           4.1650   39.5730   83.0140 O.2       9 ALL1        0.0000 
     68 O           6.9960   39.2240   82.9570 O.2       5 ALP1        0.0000 
     69 CA          5.2530   35.8290   82.3180 C.3       4 GLC5        0.0000 
     70 CA          3.6840   37.2720   82.3500 C.3      12 GLL5        0.0000 
     71 CA          6.8220   34.3860   82.2860 C.3       8 GLP5        0.0000 
     72 N           4.7610   35.5265   83.4030 N.am      2 SEC2        0.0000 
     73 N           4.7360   36.9160   83.2630 N.am     10 SEL2        0.0000 
     74 N           4.7860   34.1370   83.5430 N.am      6 SEP2        0.0000 
     75 CA          1.5995   39.0145   83.9635 C.3       4 GLC5        0.0000 
     76 CA          2.3480   37.3320   83.1270 C.3      12 GLL5        0.0000 
     77 N          -1.9900   33.2170   87.2415 N.am      2 SEC2        0.0000 
     78 N          -1.1530   33.5020   86.1630 N.am     10 SEL2        0.0000 
     79 N          -2.8270   32.9320   88.3200 N.am      6 SEP2        0.0000 
     80 O          -0.5815   37.0120   86.2200 O.2       1 ALC1        0.0000 
     81 O          -0.9550   35.7000   86.6530 O.2       9 ALL1        0.0000 
     82 O          -0.2080   38.3240   85.7870 O.2       5 ALP1        0.0000 
     83 O          -1.6095   35.9010   88.0625 O.2       1 ALC1        0.0000 
     84 O          -2.2640   36.1020   89.4720 O.2       5 ALP1        0.0000 
     85 CA          2.5377   48.8450   80.3452 C.3       4 GLC5        0.0000 
     86 CA          1.7340   48.7740   82.1540 C.3       8 GLP5        0.0000 
     87 CA          4.4109   48.8185   76.6501 C.3       4 GLC5        0.0000 
     88 CA          5.5610   49.4640   75.2680 C.3       8 GLP5        0.0000 
     89 CA          5.6860   38.0312   82.7220 C.3       4 GLC5        0.0000 
     90 CA          3.7740   38.7350   81.9320 C.3      12 GLL5        0.0000 
     91 CA          7.6430   38.0590   83.3030 C.3       8 GLP5        0.0000 
     92 CA          3.8635   37.8080   84.5528 C.3       4 GLC5        0.0000 
     93 CA          4.7110   38.3140   86.3670 C.3       8 GLP5        0.0000 
     94 CA         -1.2218   35.2670   83.7450 C.3       4 GLC5        0.0000 
     95 CA          0.9290   35.9520   84.4490 C.3      12 GLL5        0.0000 
     96 CA         -2.9960   35.1430   82.9390 C.3       8 GLP5        0.0000 
     97 CA         -1.2803   34.5168   83.0385 C.3       4 GLC5        0.0000 
     98 CA          0.0590   33.7680   83.7220 C.3      12 GLL5        0.0000 
     99 CA          2.3715   33.5602   81.3700 C.3       4 GLC5        0.0000 
    100 CA          0.8120   34.0130   82.5540 C.3      12 GLL5        0.0000 
    101 CA          3.5330   32.5790   80.3140 C.3       8 GLP5        0.0000 
    102 CA          0.4180   35.1868   80.8370 C.3       4 GLC5        0.0000 
    103 CA          1.6080   35.0700   82.2980 C.3      12 GLL5        0.0000 
    104 CA         -0.3740   35.8320   79.2480 C.3       8 GLP5        0.0000 
@<TRIPOS>BOND
@<TRIPOS>SUBSTRUCTURE
     1 ALC1       15 GROUP        1 X    ALC  0     ROOT ALC X 1
     2 SEC2        4 GROUP        1 X    SEC  0     **** SEC X 2
     3 LYC4        1 GROUP        1 X    LYC  0     **** LYC X 4
     4 GLC5        7 GROUP        1 X    GLC  0     **** GLC X 6
     5 ALP1       17 GROUP        1 Y    ALP  0     ROOT ALP Y 8
     6 SEP2        6 GROUP        1 Y    SEP  0     **** SEP Y 9
     7 LYP4        3 GROUP        1 Y    LYP  0     **** LYP Y 11
     8 GLP5        9 GROUP        1 Y    GLP  0     **** GLP Y 13
     9 ALL1       16 GROUP        1 Z    ALL  0     ROOT ALL Z 15
    10 SEL2        5 GROUP        1 Z    SEL  0     **** SEL Z 16
    11 LYL4        2 GROUP        1 Z    LYL  0     **** LYL Z 18
    12 GLL5        8 GROUP        1 Z    GLL  0     **** GLL Z 20
@<TRIPOS>SET

