#    Name: 1kol_NAD_2_ligand
#    Modification time : Mon Apr  7 13:39:05 2014

@<TRIPOS>MOLECULE
1kol_NAD_2_ligand
   70    74     1     0     0
SMALL
NO_CHARGES


@<TRIPOS>ATOM
      1 PA          4.7530   39.4290   76.7840 P.3       1 NAD2403     0.0000 
      2 O1A         4.8430   38.6700   75.5360 O.co2     1 NAD2403     0.0000 
      3 O2A         6.0410   39.8740   77.3610 O.co2     1 NAD2403     0.0000 
      4 O5B         3.7910   40.6800   76.6460 O.3       1 NAD2403     0.0000 
      5 C5B         3.8450   41.8900   77.4440 C.3       1 NAD2403     0.0000 
      6 C4B         3.5500   43.0520   76.5050 C.3       1 NAD2403     0.0000 
      7 O4B         3.5220   44.2430   77.3180 O.3       1 NAD2403     0.0000 
      8 C3B         4.6530   43.3260   75.4410 C.3       1 NAD2403     0.0000 
      9 O3B         4.0990   43.1520   74.1490 O.3       1 NAD2403     0.0000 
     10 C2B         5.1520   44.7170   75.7350 C.3       1 NAD2403     0.0000 
     11 O2B         5.5390   45.5280   74.6300 O.3       1 NAD2403     0.0000 
     12 C1B         3.9600   45.3090   76.4750 C.3       1 NAD2403     0.0000 
     13 N9A         4.1680   46.5020   77.2680 N.pl3     1 NAD2403     0.0000 
     14 C8A         5.2750   46.9540   77.9200 C.2       1 NAD2403     0.0000 
     15 N7A         5.0730   48.0810   78.5750 N.2       1 NAD2403     0.0000 
     16 C5A         3.7500   48.3830   78.3360 C.ar      1 NAD2403     0.0000 
     17 C6A         2.9330   49.4490   78.7370 C.ar      1 NAD2403     0.0000 
     18 N6A         3.3120   50.4770   79.4880 N.pl3     1 NAD2403     0.0000 
     19 N1A         1.6420   49.4200   78.3050 N.ar      1 NAD2403     0.0000 
     20 C2A         1.2350   48.3870   77.5160 C.ar      1 NAD2403     0.0000 
     21 N3A         1.9000   47.3700   77.0710 N.ar      1 NAD2403     0.0000 
     22 C4A         3.1800   47.4300   77.5280 C.ar      1 NAD2403     0.0000 
     23 O3          4.0110   38.5270   77.9010 O.3       1 NAD2403     0.0000 
     24 PN          2.7230   37.6130   77.9570 P.3       1 NAD2403     0.0000 
     25 O1N         3.0010   36.2270   77.6100 O.co2     1 NAD2403     0.0000 
     26 O2N         1.6500   38.2440   77.1490 O.co2     1 NAD2403     0.0000 
     27 O5D         2.4230   37.7220   79.5560 O.3       1 NAD2403     0.0000 
     28 C5D         2.0400   39.0120   80.0480 C.3       1 NAD2403     0.0000 
     29 C4D         2.3210   39.0460   81.5430 C.3       1 NAD2403     0.0000 
     30 O4D         1.4950   38.0160   82.1760 O.3       1 NAD2403     0.0000 
     31 C3D         3.7740   38.7350   81.9320 C.3       1 NAD2403     0.0000 
     32 O3D         4.1650   39.5730   83.0140 O.3       1 NAD2403     0.0000 
     33 C2D         3.6840   37.2720   82.3500 C.3       1 NAD2403     0.0000 
     34 O2D         4.7360   36.9160   83.2630 O.3       1 NAD2403     0.0000 
     35 C1D         2.3480   37.3320   83.1270 C.3       1 NAD2403     0.0000 
     36 N1N         1.6670   36.0540   83.3110 N.pl3     1 NAD2403     0.0000 
     37 C2N         0.9290   35.9520   84.4490 C.ar      1 NAD2403     0.0000 
     38 C3N         0.1760   34.8300   84.6530 C.ar      1 NAD2403     0.0000 
     39 C7N        -0.7110   34.6170   85.9170 C.2       1 NAD2403     0.0000 
     40 O7N        -1.1530   33.5020   86.1630 O.2       1 NAD2403     0.0000 
     41 N7N        -0.9550   35.7000   86.6530 N.am      1 NAD2403     0.0000 
     42 C4N         0.0590   33.7680   83.7220 C.ar      1 NAD2403     0.0000 
     43 C5N         0.8120   34.0130   82.5540 C.ar      1 NAD2403     0.0000 
     44 C6N         1.6080   35.0700   82.2980 C.ar      1 NAD2403     0.0000 
     45 H           4.8270   42.0369   77.8742 H         1 NAD2403     0.0000 
     46 H           3.0972   41.8820   78.2260 H         1 NAD2403     0.0000 
     47 H           2.6238   42.9142   76.0161 H         1 NAD2403     0.0000 
     48 H           5.4455   42.6223   75.6545 H         1 NAD2403     0.0000 
     49 H           5.9394   44.6234   76.4884 H         1 NAD2403     0.0000 
     50 H           3.1723   45.4761   75.7220 H         1 NAD2403     0.0000 
     51 H           6.1467   46.4624   77.8911 H         1 NAD2403     0.0000 
     52 H           2.6208   51.1809   79.6516 H         1 NAD2403     0.0000 
     53 H           4.2543   50.4542   79.8220 H         1 NAD2403     0.0000 
     54 H           0.1591   48.4490   77.2208 H         1 NAD2403     0.0000 
     55 H           0.9785   39.2025   79.8979 H         1 NAD2403     0.0000 
     56 H           2.6120   39.8098   79.5770 H         1 NAD2403     0.0000 
     57 H           2.0533   40.0064   81.9402 H         1 NAD2403     0.0000 
     58 H           4.3665   38.8123   81.0729 H         1 NAD2403     0.0000 
     59 H           3.5620   36.6749   81.5294 H         1 NAD2403     0.0000 
     60 H           2.4501   37.8883   83.9864 H         1 NAD2403     0.0000 
     61 H           0.9356   36.7084   85.1492 H         1 NAD2403     0.0000 
     62 H          -1.4843   35.5539   87.4888 H         1 NAD2403     0.0000 
     63 H          -0.5869   36.5616   86.3035 H         1 NAD2403     0.0000 
     64 H          -0.4700   32.9778   83.8711 H         1 NAD2403     0.0000 
     65 H           0.7243   33.2491   81.7881 H         1 NAD2403     0.0000 
     66 H           2.1374   35.1813   81.4536 H         1 NAD2403     0.0000 
     67 H           3.3706   43.8342   74.0858 H         1 NAD2403     0.0000 
     68 H           4.6797   45.8209   74.2106 H         1 NAD2403     0.0000 
     69 H           5.1532   39.6854   82.9102 H         1 NAD2403     0.0000 
     70 H           4.8331   37.7072   83.8669 H         1 NAD2403     0.0000 
@<TRIPOS>BOND
     1    2    1 ar   
     2    3    1 ar   
     3    4    1 1    
     4   23    1 1    
     5    5    4 1    
     6    6    5 1    
     7   45    5 1    
     8   46    5 1    
     9    7    6 1    
    10    8    6 1    
    11   47    6 1    
    12   12    7 1    
    13    9    8 1    
    14   10    8 1    
    15   48    8 1    
    16   67    9 1    
    17   11   10 1    
    18   12   10 1    
    19   49   10 1    
    20   68   11 1    
    21   13   12 1    
    22   50   12 1    
    23   14   13 1    
    24   22   13 1    
    25   15   14 2    
    26   51   14 1    
    27   16   15 1    
    28   17   16 ar   
    29   22   16 ar   
    30   18   17 1    
    31   19   17 ar   
    32   52   18 1    
    33   53   18 1    
    34   20   19 ar   
    35   21   20 ar   
    36   54   20 1    
    37   22   21 ar   
    38   24   23 1    
    39   25   24 ar   
    40   26   24 ar   
    41   27   24 1    
    42   28   27 1    
    43   29   28 1    
    44   55   28 1    
    45   56   28 1    
    46   30   29 1    
    47   31   29 1    
    48   57   29 1    
    49   35   30 1    
    50   32   31 1    
    51   33   31 1    
    52   58   31 1    
    53   69   32 1    
    54   34   33 1    
    55   35   33 1    
    56   59   33 1    
    57   70   34 1    
    58   36   35 1    
    59   60   35 1    
    60   37   36 ar   
    61   44   36 ar   
    62   38   37 ar   
    63   61   37 1    
    64   39   38 1    
    65   42   38 ar   
    66   40   39 2    
    67   41   39 am   
    68   62   41 1    
    69   63   41 1    
    70   43   42 ar   
    71   64   42 1    
    72   44   43 ar   
    73   65   43 1    
    74   66   44 1    
@<TRIPOS>SUBSTRUCTURE
     1 NAD2403     1 GROUP   
@<TRIPOS>SET

