#    Name: 4b7h_NDP_1_INTS_M
#    Modification time : Tue Mar 25 06:55:18 2014

@<TRIPOS>MOLECULE
4b7h_NDP_1_INTS_M
   62     0     9     0     0
SMALL
NO_CHARGES


@<TRIPOS>ATOM
      1 CA        -61.2370   10.6065   45.5755 C.3       3 GLC5        0.0000 
      2 CA        -61.6710   12.1560   44.4070 C.3       9 GLL5        0.0000 
      3 CA        -60.8030    9.0570   46.7440 C.3       6 GLP5        0.0000 
      4 N         -61.8680   14.5980   41.9695 N.am      2 SEC2        0.0000 
      5 N         -63.1110   13.6330   41.4330 N.am      8 SEL2        0.0000 
      6 N         -60.6250   15.5630   42.5060 N.am      5 SEP2        0.0000 
      7 N         -65.5855   11.1420   40.4035 N.am      2 SEC2        0.0000 
      8 N         -65.4480   12.1290   41.6690 N.am      8 SEL2        0.0000 
      9 N         -65.7230   10.1550   39.1380 N.am      5 SEP2        0.0000 
     10 CA        -63.1745    9.5725   43.6600 C.3       3 GLC5        0.0000 
     11 CA        -63.4630   10.6890   41.8540 C.3       9 GLL5        0.0000 
     12 CA        -62.8860    8.4560   45.4660 C.3       6 GLP5        0.0000 
     13 CA        -64.5255    6.8290   38.7230 C.3       3 GLC5        0.0000 
     14 CA        -64.4570    6.0400   40.6730 C.3       9 GLL5        0.0000 
     15 CA        -64.5940    7.6180   36.7730 C.3       6 GLP5        0.0000 
     16 O         -66.6125    5.0920   41.5655 O.2       1 ALC1        0.0000 
     17 O         -65.4640    5.1680   40.6170 O.2       7 ALL1        0.0000 
     18 O         -67.7610    5.0160   42.5140 O.2       4 ALP1        0.0000 
     19 CA        -63.5530    7.2660   38.1805 C.3       3 GLC5        0.0000 
     20 CA        -62.5120    6.9140   39.5880 C.3       9 GLL5        0.0000 
     21 CA        -61.5280    6.7080   41.3805 C.3       3 GLC5        0.0000 
     22 CA        -60.5440    6.5020   43.1730 C.3       6 GLP5        0.0000 
     23 CA        -64.1615    7.9580   38.9250 C.3       3 GLC5        0.0000 
     24 CA        -63.7290    8.2980   41.0770 C.3       9 GLL5        0.0000 
     25 CA        -62.1365    7.4000   42.1250 C.3       3 GLC5        0.0000 
     26 CA        -63.3075    8.3770   43.2715 C.3       3 GLC5        0.0000 
     27 N         -57.9230   16.0820   44.6475 N.am      2 SEC2        0.0000 
     28 N         -58.5000   14.7710   44.5020 N.am      8 SEL2        0.0000 
     29 N         -57.3460   17.3930   44.7930 N.am      5 SEP2        0.0000 
     30 N         -59.5625   15.1670   43.5040 N.am      2 SEC2        0.0000 
     31 N         -56.4710   15.0060   46.8560 N.am      2 SEC2        0.0000 
     32 N         -57.0790   13.9130   46.4810 N.am      8 SEL2        0.0000 
     33 N         -55.8630   16.0990   47.2310 N.am      5 SEP2        0.0000 
     34 CA        -56.9565    9.9000   46.7575 C.3       3 GLC5        0.0000 
     35 CA        -57.9510   11.1040   45.3420 C.3       9 GLL5        0.0000 
     36 CA        -55.9620    8.6960   48.1730 C.3       6 GLP5        0.0000 
     37 CA        -58.1875    7.9510   44.8955 C.3       3 GLC5        0.0000 
     38 CA        -57.9260   10.0030   44.3020 C.3       9 GLL5        0.0000 
     39 CA        -58.4490    5.8990   45.4890 C.3       6 GLP5        0.0000 
     40 N         -55.9140    8.0520   41.1775 N.am      2 SEC2        0.0000 
     41 N         -56.9980    8.2420   41.9560 N.am      8 SEL2        0.0000 
     42 N         -54.8300    7.8620   40.3990 N.am      5 SEP2        0.0000 
     43 CA        -59.6255    8.1825   42.6375 C.3       3 GLC5        0.0000 
     44 CA        -58.7070    9.8630   42.1020 C.3       9 GLL5        0.0000 
     45 N         -56.5355   15.8115   39.2020 N.am      2 SEC2        0.0000 
     46 N         -57.7300   15.3120   39.5270 N.am      8 SEL2        0.0000 
     47 N         -55.3410   16.3110   38.8770 N.am      5 SEP2        0.0000 
     48 O         -56.2875   15.7485   42.0285 O.2       1 ALC1        0.0000 
     49 O         -57.2790   14.7460   41.7930 O.2       7 ALL1        0.0000 
     50 O         -55.2960   16.7510   42.2640 O.2       4 ALP1        0.0000 
     51 CA        -64.0068    5.4350   42.2620 C.3       3 GLC5        0.0000 
     52 CA        -64.6260    7.2640   41.3170 C.3       9 GLL5        0.0000 
     53 CA        -63.4720    4.2180   43.5290 C.3       6 GLP5        0.0000 
     54 CA        -59.3708    9.8053   45.7830 C.3       3 GLC5        0.0000 
     55 CA        -58.2717   12.1475   38.9313 C.3       3 GLC5        0.0000 
     56 CA        -58.4060   12.1530   41.2890 C.3       9 GLL5        0.0000 
     57 CA        -57.9810   11.5940   36.9680 C.3       6 GLP5        0.0000 
     58 CA        -56.7147   12.5110   39.9193 C.3       3 GLC5        0.0000 
     59 CA        -58.7190   13.2490   40.5000 C.3       9 GLL5        0.0000 
     60 CA        -54.8670   12.3210   38.9440 C.3       6 GLP5        0.0000 
     61 CA        -59.0824   11.6516   38.4481 C.3       3 GLC5        0.0000 
     62 CA        -59.8610   13.2270   39.5060 C.3       9 GLL5        0.0000 
@<TRIPOS>BOND
@<TRIPOS>SUBSTRUCTURE
     1 ALC1       16 GROUP        1 X    ALC  0     ROOT ALC X 1
     2 SEC2        4 GROUP        1 X    SEC  0     **** SEC X 2
     3 GLC5        1 GROUP        1 X    GLC  0     **** GLC X 6
     4 ALP1       18 GROUP        1 Y    ALP  0     ROOT ALP Y 8
     5 SEP2        6 GROUP        1 Y    SEP  0     **** SEP Y 9
     6 GLP5        3 GROUP        1 Y    GLP  0     **** GLP Y 13
     7 ALL1       17 GROUP        1 Z    ALL  0     ROOT ALL Z 15
     8 SEL2        5 GROUP        1 Z    SEL  0     **** SEL Z 16
     9 GLL5        2 GROUP        1 Z    GLL  0     **** GLL Z 20
@<TRIPOS>SET

