#    Name: 4b7h_NDP_1_ligand
#    Modification time : Tue Mar 25 06:55:18 2014

@<TRIPOS>MOLECULE
4b7h_NDP_1_ligand
   74    78     1     0     0
SMALL
NO_CHARGES


@<TRIPOS>ATOM
      1 PA        -60.9570   13.9480   46.1690 P.3       1 NDP1520     0.0000 
      2 O1A       -61.8670   13.3040   47.1490 O.co2     1 NDP1520     0.0000 
      3 O2A       -60.9490   15.4340   46.2770 O.co2     1 NDP1520     0.0000 
      4 O5B       -61.4170   13.5090   44.6990 O.3       1 NDP1520     0.0000 
      5 C5B       -61.6710   12.1560   44.4070 C.3       1 NDP1520     0.0000 
      6 C4B       -62.0190   12.0900   42.9290 C.3       1 NDP1520     0.0000 
      7 O4B       -62.2510   10.7360   42.5670 O.3       1 NDP1520     0.0000 
      8 C3B       -63.2880   12.8870   42.6230 C.3       1 NDP1520     0.0000 
      9 O3B       -63.1110   13.6330   41.4330 O.3       1 NDP1520     0.0000 
     10 C2B       -64.3230   11.7900   42.4570 C.3       1 NDP1520     0.0000 
     11 O2B       -65.4480   12.1290   41.6690 O.3       1 NDP1520     0.0000 
     12 C1B       -63.4630   10.6890   41.8540 C.3       1 NDP1520     0.0000 
     13 N9A       -64.1280    9.3710   41.8350 N.pl3     1 NDP1520     0.0000 
     14 C8A       -65.2550    8.9930   42.5210 C.2       1 NDP1520     0.0000 
     15 N7A       -65.5490    7.7120   42.2040 N.2       1 NDP1520     0.0000 
     16 C5A       -64.6260    7.2640   41.3170 C.ar      1 NDP1520     0.0000 
     17 C6A       -64.4570    6.0400   40.6730 C.ar      1 NDP1520     0.0000 
     18 N6A       -65.4640    5.1680   40.6170 N.pl3     1 NDP1520     0.0000 
     19 N1A       -63.3930    5.8760   39.8160 N.ar      1 NDP1520     0.0000 
     20 C2A       -62.5120    6.9140   39.5880 C.ar      1 NDP1520     0.0000 
     21 N3A       -62.6870    8.1260   40.2260 N.ar      1 NDP1520     0.0000 
     22 C4A       -63.7290    8.2980   41.0770 C.ar      1 NDP1520     0.0000 
     23 O3        -59.4800   13.3110   46.3610 O.3       1 NDP1520     0.0000 
     24 PN        -58.1730   13.7140   45.5000 P.3       1 NDP1520     0.0000 
     25 O1N       -58.5000   14.7710   44.5020 O.co2     1 NDP1520     0.0000 
     26 O2N       -57.0790   13.9130   46.4810 O.co2     1 NDP1520     0.0000 
     27 O5D       -57.8360   12.3590   44.6980 O.3       1 NDP1520     0.0000 
     28 C5D       -57.9510   11.1040   45.3420 C.3       1 NDP1520     0.0000 
     29 C4D       -57.9260   10.0030   44.3020 C.3       1 NDP1520     0.0000 
     30 O4D       -59.0450   10.1560   43.4520 O.3       1 NDP1520     0.0000 
     31 C3D       -56.6910   10.1000   43.4200 C.3       1 NDP1520     0.0000 
     32 O3D       -55.6260    9.3110   43.9300 O.3       1 NDP1520     0.0000 
     33 C2D       -57.2010    9.6230   42.0710 C.3       1 NDP1520     0.0000 
     34 O2D       -56.9980    8.2420   41.9560 O.3       1 NDP1520     0.0000 
     35 C1D       -58.7070    9.8630   42.1020 C.3       1 NDP1520     0.0000 
     36 N1N       -59.1040   10.9820   41.2200 N.pl3     1 NDP1520     0.0000 
     37 C2N       -58.4060   12.1530   41.2890 C.2       1 NDP1520     0.0000 
     38 C3N       -58.7190   13.2490   40.5000 C.2       1 NDP1520     0.0000 
     39 C7N       -57.8810   14.4780   40.6390 C.2       1 NDP1520     0.0000 
     40 O7N       -57.7300   15.3120   39.5270 O.2       1 NDP1520     0.0000 
     41 N7N       -57.2790   14.7460   41.7930 N.am      1 NDP1520     0.0000 
     42 C4N       -59.8610   13.2270   39.5060 C.3       1 NDP1520     0.0000 
     43 C5N       -60.5600   11.8980   39.5110 C.2       1 NDP1520     0.0000 
     44 C6N       -60.1570   10.8560   40.3480 C.2       1 NDP1520     0.0000 
     45 P2B       -66.8060   12.6680   42.3590 P.3       1 NDP1520     0.0000 
     46 O1X       -67.2430   11.6460   43.3880 O.co2     1 NDP1520     0.0000 
     47 O2X       -66.5090   14.0050   43.0030 O.co2     1 NDP1520     0.0000 
     48 O3X       -67.8340   12.8180   41.2520 O.co2     1 NDP1520     0.0000 
     49 H         -62.5145   11.7608   44.9669 H         1 NDP1520     0.0000 
     50 H         -60.8028   11.5241   44.5744 H         1 NDP1520     0.0000 
     51 H         -61.2102   12.5116   42.3619 H         1 NDP1520     0.0000 
     52 H         -63.5275   13.4583   43.4733 H         1 NDP1520     0.0000 
     53 H         -64.5784   11.4531   43.4601 H         1 NDP1520     0.0000 
     54 H         -63.2741   11.0117   40.8045 H         1 NDP1520     0.0000 
     55 H         -65.7476    9.5570   43.1268 H         1 NDP1520     0.0000 
     56 H         -66.3231    5.4603   41.0372 H         1 NDP1520     0.0000 
     57 H         -65.2696    4.3001   40.1599 H         1 NDP1520     0.0000 
     58 H         -61.7196    6.7839   38.9384 H         1 NDP1520     0.0000 
     59 H         -58.8895   11.0161   45.9038 H         1 NDP1520     0.0000 
     60 H         -57.1252   10.9255   46.0422 H         1 NDP1520     0.0000 
     61 H         -57.9285    9.0531   44.7874 H         1 NDP1520     0.0000 
     62 H         -56.4476   11.1415   43.3279 H         1 NDP1520     0.0000 
     63 H         -56.7783   10.1937   41.3085 H         1 NDP1520     0.0000 
     64 H         -59.1894    8.9510   41.7821 H         1 NDP1520     0.0000 
     65 H         -57.6033   12.2355   41.9595 H         1 NDP1520     0.0000 
     66 H         -56.7741   15.6081   41.8361 H         1 NDP1520     0.0000 
     67 H         -57.3852   14.0614   42.5141 H         1 NDP1520     0.0000 
     68 H         -59.4691   13.4326   38.5047 H         1 NDP1520     0.0000 
     69 H         -60.5735   14.0182   39.7606 H         1 NDP1520     0.0000 
     70 H         -61.3491   11.7974   38.8665 H         1 NDP1520     0.0000 
     71 H         -60.6816    9.9520   40.3019 H         1 NDP1520     0.0000 
     72 H         -63.8763   14.2764   41.4148 H         1 NDP1520     0.0000 
     73 H         -55.6842    9.4091   44.9235 H         1 NDP1520     0.0000 
     74 H         -56.3885    8.0062   42.7129 H         1 NDP1520     0.0000 
@<TRIPOS>BOND
     1    2    1 ar   
     2    3    1 ar   
     3    4    1 1    
     4   23    1 1    
     5    5    4 1    
     6    6    5 1    
     7   49    5 1    
     8   50    5 1    
     9    7    6 1    
    10    8    6 1    
    11   51    6 1    
    12   12    7 1    
    13    9    8 1    
    14   10    8 1    
    15   52    8 1    
    16   72    9 1    
    17   11   10 1    
    18   12   10 1    
    19   53   10 1    
    20   45   11 1    
    21   13   12 1    
    22   54   12 1    
    23   14   13 1    
    24   22   13 1    
    25   15   14 2    
    26   55   14 1    
    27   16   15 1    
    28   17   16 ar   
    29   22   16 ar   
    30   18   17 1    
    31   19   17 ar   
    32   56   18 1    
    33   57   18 1    
    34   20   19 ar   
    35   21   20 ar   
    36   58   20 1    
    37   22   21 ar   
    38   24   23 1    
    39   25   24 ar   
    40   26   24 ar   
    41   27   24 1    
    42   28   27 1    
    43   29   28 1    
    44   59   28 1    
    45   60   28 1    
    46   30   29 1    
    47   31   29 1    
    48   61   29 1    
    49   35   30 1    
    50   32   31 1    
    51   33   31 1    
    52   62   31 1    
    53   73   32 1    
    54   34   33 1    
    55   35   33 1    
    56   63   33 1    
    57   74   34 1    
    58   36   35 1    
    59   64   35 1    
    60   37   36 1    
    61   44   36 1    
    62   38   37 2    
    63   65   37 1    
    64   39   38 1    
    65   42   38 1    
    66   40   39 2    
    67   41   39 am   
    68   66   41 1    
    69   67   41 1    
    70   43   42 1    
    71   68   42 1    
    72   69   42 1    
    73   44   43 2    
    74   70   43 1    
    75   71   44 1    
    76   46   45 ar   
    77   47   45 ar   
    78   48   45 ar   
@<TRIPOS>SUBSTRUCTURE
     1 NDP1520     1 GROUP   
@<TRIPOS>SET

