#    Name: 3ow4_SMY_2_INTS_M
#    Modification time : Tue Mar 25 05:21:37 2014

@<TRIPOS>MOLECULE
3ow4_SMY_2_INTS_M
   73     0    12     0     0
SMALL
NO_CHARGES


@<TRIPOS>ATOM
      1 CA         60.3450   -4.6700   13.3750 C.3       4 GLC5        0.0000 
      2 CA         61.5270   -4.2160   14.8340 C.3      12 GLL5        0.0000 
      3 CA         59.1630   -5.1240   11.9160 C.3       8 GLP5        0.0000 
      4 CA         61.9890   -3.1840   13.2410 C.3       4 GLC5        0.0000 
      5 CA         62.4510   -2.1520   11.6480 C.3       8 GLP5        0.0000 
      6 CA         63.2550   -4.5680   16.1285 C.3       4 GLC5        0.0000 
      7 CA         64.9830   -4.9200   17.4230 C.3       8 GLP5        0.0000 
      8 CA         61.2295   -4.4365   16.8160 C.3       4 GLC5        0.0000 
      9 CA         60.9320   -4.6570   18.7980 C.3       8 GLP5        0.0000 
     10 N          63.9375   -4.2930   14.9455 N.am      2 SEC2        0.0000 
     11 N          62.6450   -3.4800   14.8700 N.am     10 SEL2        0.0000 
     12 N          65.2300   -5.1060   15.0210 N.am      6 SEP2        0.0000 
     13 CA         63.0945   -1.7225   13.4905 C.3       4 GLC5        0.0000 
     14 CA         63.7380   -1.2930   15.3330 C.3      12 GLL5        0.0000 
     15 CA         63.0490    1.7925   14.5660 C.3       4 GLC5        0.0000 
     16 CA         63.0430    0.3500   15.7330 C.3      12 GLL5        0.0000 
     17 CA         63.0550    3.2350   13.3990 C.3       8 GLP5        0.0000 
     18 CA         61.4680   -1.5950   17.4965 C.3       4 GLC5        0.0000 
     19 CA         61.3090   -0.1730   15.9710 C.3      12 GLL5        0.0000 
     20 CA         61.6270   -3.0170   19.0220 C.3       8 GLP5        0.0000 
     21 CA         58.7645    0.6505   14.1945 C.3       4 GLC5        0.0000 
     22 CA         60.4430    0.7590   15.1330 C.3      12 GLL5        0.0000 
     23 CA         57.0860    0.5420   13.2560 C.3       8 GLP5        0.0000 
     24 CA         59.5110    2.5810   14.7220 C.3       4 GLC5        0.0000 
     25 CA         58.5790    4.4030   14.3110 C.3       8 GLP5        0.0000 
     26 CA         61.7490    1.9970   14.2660 C.3       4 GLC5        0.0000 
     27 CA         60.1330   -2.2175   18.0555 C.3       4 GLC5        0.0000 
     28 CA         58.6390   -1.4180   17.0890 C.3      12 GLL5        0.0000 
     29 CA         57.1650   -0.1185   15.2015 C.3       4 GLC5        0.0000 
     30 CA         57.2440   -0.7790   17.1470 C.3      12 GLL5        0.0000 
     31 CA         54.7595   -3.0135   14.9735 C.3       4 GLC5        0.0000 
     32 CA         56.3720   -2.7010   15.8870 C.3      12 GLL5        0.0000 
     33 CA         53.1470   -3.3260   14.0600 C.3       8 GLP5        0.0000 
     34 CA         58.3910   -4.9040   15.6185 C.3       4 GLC5        0.0000 
     35 CA         57.8150   -3.0760   15.4710 C.3      12 GLL5        0.0000 
     36 CA         58.9670   -6.7320   15.7660 C.3       8 GLP5        0.0000 
     37 CA         52.8140    3.8635   12.7085 C.3       4 GLC5        0.0000 
     38 CA         54.3420    3.3140   14.2470 C.3      12 GLL5        0.0000 
     39 CA         51.2860    4.4130   11.1700 C.3       8 GLP5        0.0000 
     40 CA         56.2010    3.7675   13.5650 C.3       4 GLC5        0.0000 
     41 CA         58.0600    4.2210   12.8830 C.3       8 GLP5        0.0000 
     42 OD1        55.2975   -2.5310   20.3750 O.co2     3 ASC3        0.0000 
     43 OD1        54.0820   -1.7810   19.9100 O.co2    11 ASL3        0.0000 
     44 OD1        56.5130   -3.2810   20.8400 O.co2     7 ASP3        0.0000 
     45 O          55.2975   -2.5310   20.3750 O.2       1 ALC1        0.0000 
     46 O          54.0820   -1.7810   19.9100 O.2       9 ALL1        0.0000 
     47 O          56.5130   -3.2810   20.8400 O.2       5 ALP1        0.0000 
     48 CA         64.0610   -3.3325   16.3577 C.3       4 GLC5        0.0000 
     49 CA         62.5400   -2.1970   15.2520 C.3      12 GLL5        0.0000 
     50 CA         59.6722   -1.5575   13.8567 C.3       4 GLC5        0.0000 
     51 CA         61.2980   -1.6320   15.5640 C.3      12 GLL5        0.0000 
     52 CA         58.6110   -1.0560   12.1830 C.3       8 GLP5        0.0000 
     53 CA         62.1558   -0.2527   17.3768 C.3       4 GLC5        0.0000 
     54 CA         63.0080    0.3970   18.9860 C.3       8 GLP5        0.0000 
     55 CA         61.7475   -2.1761   13.5502 C.3       4 GLC5        0.0000 
     56 CA         61.3355   -2.6086   17.2372 C.3       4 GLC5        0.0000 
     57 CA         64.8882    0.8383   15.9540 C.3       4 GLC5        0.0000 
     58 CA         66.3860    2.1480   16.3750 C.3       8 GLP5        0.0000 
     59 CA         63.1993   -0.0372   17.2595 C.3       4 GLC5        0.0000 
     60 CA         56.9802   -4.2397   14.1980 C.3       4 GLC5        0.0000 
     61 CA         56.8670   -5.5910   12.7170 C.3       8 GLP5        0.0000 
     62 CA         57.1247   -1.7993   14.0475 C.3       4 GLC5        0.0000 
     63 CA         57.1560   -0.7100   12.4160 C.3       8 GLP5        0.0000 
     64 CA         56.8575    3.9520   15.1022 C.3       4 GLC5        0.0000 
     65 CA         55.1220    3.1550   16.5090 C.3      12 GLL5        0.0000 
     66 CA         55.9160    2.0613   14.0092 C.3       4 GLC5        0.0000 
     67 CA         55.1500    3.8470   15.2780 C.3      12 GLL5        0.0000 
     68 CA         54.7720    5.4268   13.8332 C.3       4 GLC5        0.0000 
     69 CA         54.7980    7.2730   12.9040 C.3       8 GLP5        0.0000 
     70 CA         53.4935    1.9392   12.5122 C.3       4 GLC5        0.0000 
     71 CA         53.0390    1.1460   10.6810 C.3       8 GLP5        0.0000 
     72 CA         55.3170    1.1763   14.1578 C.3       4 GLC5        0.0000 
     73 CA         53.5540    2.1510   14.4400 C.3      12 GLL5        0.0000 
@<TRIPOS>BOND
@<TRIPOS>SUBSTRUCTURE
     1 ALC1       45 GROUP        1 X    ALC  0     ROOT ALC X 1
     2 SEC2       10 GROUP        1 X    SEC  0     **** SEC X 2
     3 ASC3       42 GROUP        1 X    ASC  0     **** ASC X 3
     4 GLC5        1 GROUP        1 X    GLC  0     **** GLC X 6
     5 ALP1       47 GROUP        1 Y    ALP  0     ROOT ALP Y 8
     6 SEP2       12 GROUP        1 Y    SEP  0     **** SEP Y 9
     7 ASP3       44 GROUP        1 Y    ASP  0     **** ASP Y 10
     8 GLP5        3 GROUP        1 Y    GLP  0     **** GLP Y 13
     9 ALL1       46 GROUP        1 Z    ALL  0     ROOT ALL Z 15
    10 SEL2       11 GROUP        1 Z    SEL  0     **** SEL Z 16
    11 ASL3       43 GROUP        1 Z    ASL  0     **** ASL Z 17
    12 GLL5        2 GROUP        1 Z    GLL  0     **** GLL Z 20
@<TRIPOS>SET

