#    Name: 3ow4_SMY_2_ligand
#    Modification time : Tue Mar 25 05:21:38 2014

@<TRIPOS>MOLECULE
3ow4_SMY_2_ligand
   57    61     1     0     0
SMALL
NO_CHARGES


@<TRIPOS>ATOM
      1 N1         60.3010   -3.7730   15.1310 N.ar      1 SMY2        0.0000 
      2 C2         61.5270   -4.2160   14.8340 C.ar      1 SMY2        0.0000 
      3 N3         62.6450   -3.4800   14.8700 N.ar      1 SMY2        0.0000 
      4 C4         62.5400   -2.1970   15.2520 C.ar      1 SMY2        0.0000 
      5 C5         61.2980   -1.6320   15.5640 C.ar      1 SMY2        0.0000 
      6 C6         60.1690   -2.4860   15.4970 C.ar      1 SMY2        0.0000 
      7 C7         63.7380   -1.2930   15.3330 C.3       1 SMY2        0.0000 
      8 S8         63.0430    0.3500   15.7330 S.3       1 SMY2        0.0000 
      9 C9         61.3090   -0.1730   15.9710 C.3       1 SMY2        0.0000 
     10 C10        60.4430    0.7590   15.1330 C.3       1 SMY2        0.0000 
     11 N11        58.8810   -2.1160   15.8130 N.3       1 SMY2        0.0000 
     12 C12        58.6390   -1.4180   17.0890 C.3       1 SMY2        0.0000 
     13 C13        57.2440   -0.7790   17.1470 C.3       1 SMY2        0.0000 
     14 N14        56.2370   -1.8520   17.0860 N.am      1 SMY2        0.0000 
     15 C15        56.3720   -2.7010   15.8870 C.3       1 SMY2        0.0000 
     16 C16        57.8150   -3.0760   15.4710 C.3       1 SMY2        0.0000 
     17 C17        55.0220   -1.7400   17.6740 C.2       1 SMY2        0.0000 
     18 O18        54.1370   -2.5270   17.3170 O.2       1 SMY2        0.0000 
     19 C19        54.7840   -0.9240   18.9490 C.3       1 SMY2        0.0000 
     20 C20        53.9340    0.3390   18.8120 C.3       1 SMY2        0.0000 
     21 C21        54.5370    1.5230   18.0740 C.2       1 SMY2        0.0000 
     22 C22        55.4170    2.4400   18.5730 C.2       1 SMY2        0.0000 
     23 N23        55.7910    3.4420   17.6550 N.pl3     1 SMY2        0.0000 
     24 C24        55.1220    3.1550   16.5090 C.ar      1 SMY2        0.0000 
     25 C25        54.3480    2.0060   16.7090 C.ar      1 SMY2        0.0000 
     26 C26        55.1500    3.8470   15.2780 C.ar      1 SMY2        0.0000 
     27 C27        54.3420    3.3140   14.2470 C.ar      1 SMY2        0.0000 
     28 C28        53.5540    2.1510   14.4400 C.ar      1 SMY2        0.0000 
     29 C29        53.5420    1.4700   15.6790 C.ar      1 SMY2        0.0000 
     30 N30        54.0820   -1.7810   19.9100 N.4       1 SMY2        0.0000 
     31 H          61.6245   -5.2528   14.5408 H         1 SMY2        0.0000 
     32 H          64.2078   -1.1087   14.4217 H         1 SMY2        0.0000 
     33 H          64.3600   -1.4653   16.1507 H         1 SMY2        0.0000 
     34 H          61.1976   -0.0359   17.0027 H         1 SMY2        0.0000 
     35 H          59.3848   -0.6235   17.2410 H         1 SMY2        0.0000 
     36 H          58.7294   -2.1171   17.9337 H         1 SMY2        0.0000 
     37 H          57.1416   -0.1029   16.3054 H         1 SMY2        0.0000 
     38 H          57.1608   -0.2214   18.0733 H         1 SMY2        0.0000 
     39 H          55.8913   -2.2057   15.0091 H         1 SMY2        0.0000 
     40 H          55.8078   -3.6547   16.0257 H         1 SMY2        0.0000 
     41 H          58.0402   -4.0764   15.9213 H         1 SMY2        0.0000 
     42 H          57.8040   -3.2602   14.3664 H         1 SMY2        0.0000 
     43 H          55.7428   -0.6511   19.3786 H         1 SMY2        0.0000 
     44 H          53.6333    0.6731   19.8385 H         1 SMY2        0.0000 
     45 H          52.9694    0.0609   18.3139 H         1 SMY2        0.0000 
     46 H          55.7744    2.4222   19.4959 H         1 SMY2        0.0000 
     47 H          56.3804    4.1457   17.8298 H         1 SMY2        0.0000 
     48 H          55.7041    4.6599   15.1436 H         1 SMY2        0.0000 
     49 H          54.3242    3.7837   13.3273 H         1 SMY2        0.0000 
     50 H          52.9806    1.7973   13.6624 H         1 SMY2        0.0000 
     51 H          52.9906    0.6500   15.8194 H         1 SMY2        0.0000 
     52 H          60.4938    1.7039   15.4563 H         1 SMY2        0.0000 
     53 H          60.7223    0.7623   14.1728 H         1 SMY2        0.0000 
     54 H          59.4795    0.4924   15.1570 H         1 SMY2        0.0000 
     55 H          54.7194   -2.2849   20.4929 H         1 SMY2        0.0000 
     56 H          53.4876   -1.2512   20.5150 H         1 SMY2        0.0000 
     57 H          53.5057   -2.4579   19.4521 H         1 SMY2        0.0000 
@<TRIPOS>BOND
     1    2    1 ar   
     2    6    1 ar   
     3    3    2 ar   
     4   31    2 1    
     5    4    3 ar   
     6    5    4 ar   
     7    7    4 1    
     8    6    5 ar   
     9    9    5 1    
    10   11    6 1    
    11    8    7 1    
    12   32    7 1    
    13   33    7 1    
    14    9    8 1    
    15   10    9 1    
    16   34    9 1    
    17   52   10 1    
    18   53   10 1    
    19   54   10 1    
    20   12   11 1    
    21   16   11 1    
    22   13   12 1    
    23   35   12 1    
    24   36   12 1    
    25   14   13 1    
    26   37   13 1    
    27   38   13 1    
    28   15   14 1    
    29   17   14 am   
    30   16   15 1    
    31   39   15 1    
    32   40   15 1    
    33   41   16 1    
    34   42   16 1    
    35   18   17 2    
    36   19   17 1    
    37   20   19 1    
    38   30   19 1    
    39   43   19 1    
    40   21   20 1    
    41   44   20 1    
    42   45   20 1    
    43   22   21 2    
    44   25   21 1    
    45   23   22 1    
    46   46   22 1    
    47   24   23 1    
    48   47   23 1    
    49   25   24 ar   
    50   26   24 ar   
    51   29   25 ar   
    52   27   26 ar   
    53   48   26 1    
    54   28   27 ar   
    55   49   27 1    
    56   29   28 ar   
    57   50   28 1    
    58   51   29 1    
    59   55   30 1    
    60   56   30 1    
    61   57   30 1    
@<TRIPOS>SUBSTRUCTURE
     1 SMY2        1 GROUP   
@<TRIPOS>SET

