#    Name: 3v3v_MYU_1_INTS_M
#    Modification time : Mon Mar 24 23:56:34 2014

@<TRIPOS>MOLECULE
3v3v_MYU_1_INTS_M
   56     0     6     0     0
SMALL
NO_CHARGES


@<TRIPOS>ATOM
      1 CA         33.3915   46.6080    3.9185 C.3       2 GLC5        0.0000 
      2 CA         31.9470   45.5230    4.7740 C.3       6 GLL5        0.0000 
      3 CA         34.8360   47.6930    3.0630 C.3       4 GLP5        0.0000 
      4 CA         35.6275   43.6700    4.1410 C.3       2 GLC5        0.0000 
      5 CA         34.0740   42.4480    4.7650 C.3       6 GLL5        0.0000 
      6 CA         37.1810   44.8920    3.5170 C.3       4 GLP5        0.0000 
      7 CA         34.7870   42.3695    6.8485 C.3       2 GLC5        0.0000 
      8 CA         35.5000   42.2910    8.9320 C.3       4 GLP5        0.0000 
      9 N          35.9700   43.3170    6.4705 N.am      1 SEC2        0.0000 
     10 N          35.1760   42.8070    5.5020 N.am      5 SEL2        0.0000 
     11 N          36.7640   43.8270    7.4390 N.am      3 SEP2        0.0000 
     12 CA         30.7225   43.8235    5.4420 C.3       2 GLC5        0.0000 
     13 CA         31.9330   42.9350    3.7830 C.3       6 GLL5        0.0000 
     14 CA         29.5120   44.7120    7.1010 C.3       4 GLP5        0.0000 
     15 CA         34.5315   39.2665    5.2525 C.3       2 GLC5        0.0000 
     16 CA         34.0060   41.1360    4.2420 C.3       6 GLL5        0.0000 
     17 CA         35.0570   37.3970    6.2630 C.3       4 GLP5        0.0000 
     18 CA         31.6255   45.7595    2.0180 C.3       2 GLC5        0.0000 
     19 CA         30.8460   45.0970    3.9930 C.3       6 GLL5        0.0000 
     20 CA         32.4050   46.4220    0.0430 C.3       4 GLP5        0.0000 
     21 CA         27.5645   48.8860    2.6215 C.3       2 GLC5        0.0000 
     22 CA         28.1510   47.5920    4.3460 C.3       6 GLL5        0.0000 
     23 CA         26.9780   50.1800    0.8970 C.3       4 GLP5        0.0000 
     24 CA         26.2130   47.4710    5.3285 C.3       2 GLC5        0.0000 
     25 CA         24.2750   47.3500    6.3110 C.3       4 GLP5        0.0000 
     26 N          25.3560   48.6135    2.4760 N.am      1 SEC2        0.0000 
     27 N          26.0510   47.8500    3.3920 N.am      5 SEL2        0.0000 
     28 N          24.6610   49.3770    1.5600 N.am      3 SEP2        0.0000 
     29 CA         30.4543   45.0110    5.7423 C.3       2 GLC5        0.0000 
     30 CA         33.9395   43.2445    2.7177 C.3       2 GLC5        0.0000 
     31 CA         33.0380   43.3880    4.5380 C.3       6 GLL5        0.0000 
     32 CA         34.3230   43.5710    0.7840 C.3       4 GLP5        0.0000 
     33 CA         32.6230   42.1425    6.0512 C.3       2 GLC5        0.0000 
     34 CA         31.6900   41.3670    7.4510 C.3       4 GLP5        0.0000 
     35 CA         33.1118   42.9262    2.1547 C.3       2 GLC5        0.0000 
     36 CA         31.7953   41.8242    5.4882 C.3       2 GLC5        0.0000 
     37 CA         33.8885   42.2502    2.3258 C.3       2 GLC5        0.0000 
     38 CA         32.9020   40.7230    3.4930 C.3       6 GLL5        0.0000 
     39 CA         32.5720   41.1483    5.6593 C.3       2 GLC5        0.0000 
     40 CA         29.5025   45.5353    5.6220 C.3       2 GLC5        0.0000 
     41 CA         29.6290   45.7820    3.7750 C.3       6 GLL5        0.0000 
     42 CA         29.7310   48.7853    4.8987 C.3       2 GLC5        0.0000 
     43 CA         29.3570   46.9350    4.5110 C.3       6 GLL5        0.0000 
     44 CA         30.7080   50.3070    5.3690 C.3       4 GLP5        0.0000 
     45 CA         27.3993   45.8040    5.2622 C.3       2 GLC5        0.0000 
     46 CA         27.1270   44.2600    6.6190 C.3       4 GLP5        0.0000 
     47 CA         26.5215   47.9495    1.8017 C.3       2 GLC5        0.0000 
     48 CA         27.1920   47.1040    3.4650 C.3       6 GLL5        0.0000 
     49 CA         25.7390   49.3800    0.5080 C.3       4 GLP5        0.0000 
     50 CA         25.6495   46.3700    4.1997 C.3       2 GLC5        0.0000 
     51 CA         23.9950   46.2210    5.3040 C.3       4 GLP5        0.0000 
     52 CA         29.1346   46.3139    1.4571 C.3       2 GLC5        0.0000 
     53 CA         27.4160   45.9340    2.7260 C.3       6 GLL5        0.0000 
     54 CA         29.9950   46.8960   -0.1190 C.3       4 GLP5        0.0000 
     55 CA         27.5765   44.9327    4.7175 C.3       2 GLC5        0.0000 
     56 CA         28.6360   45.2770    2.9060 C.3       6 GLL5        0.0000 
@<TRIPOS>BOND
@<TRIPOS>SUBSTRUCTURE
     1 SEC2        9 GROUP        1 X    SEC  0     ROOT SEC X 2
     2 GLC5        1 GROUP        1 X    GLC  0     **** GLC X 6
     3 SEP2       11 GROUP        1 Y    SEP  0     ROOT SEP Y 9
     4 GLP5        3 GROUP        1 Y    GLP  0     **** GLP Y 13
     5 SEL2       10 GROUP        1 Z    SEL  0     ROOT SEL Z 16
     6 GLL5        2 GROUP        1 Z    GLL  0     **** GLL Z 20
@<TRIPOS>SET

