#    Name: 3v3v_MYU_1_ligand
#    Modification time : Mon Mar 24 23:56:34 2014

@<TRIPOS>MOLECULE
3v3v_MYU_1_ligand
   33    35     1     0     0
SMALL
NO_CHARGES


@<TRIPOS>ATOM
      1 O20        33.9820   45.1740    5.6980 O.2       1 MYU401      0.0000 
      2 C11        33.0460   44.7100    5.0410 C.2       1 MYU401      0.0000 
      3 C12        31.9470   45.5230    4.7740 C.2       1 MYU401      0.0000 
      4 O19        31.9890   46.7910    5.2910 O.3       1 MYU401      0.0000 
      5 C10        33.0380   43.3880    4.5380 C.ar      1 MYU401      0.0000 
      6 C13        34.0740   42.4480    4.7650 C.ar      1 MYU401      0.0000 
      7 O21        35.1760   42.8070    5.5020 O.3       1 MYU401      0.0000 
      8 C9         31.9330   42.9350    3.7830 C.ar      1 MYU401      0.0000 
      9 C16        31.8680   41.6280    3.2680 C.ar      1 MYU401      0.0000 
     10 C15        32.9020   40.7230    3.4930 C.ar      1 MYU401      0.0000 
     11 O22        32.8950   39.4420    3.0180 O.3       1 MYU401      0.0000 
     12 C14        34.0060   41.1360    4.2420 C.ar      1 MYU401      0.0000 
     13 O23        35.0300   40.2390    4.4610 O.3       1 MYU401      0.0000 
     14 O8         30.8800   43.7950    3.5400 O.3       1 MYU401      0.0000 
     15 C7         30.8460   45.0970    3.9930 C.2       1 MYU401      0.0000 
     16 C6         29.6290   45.7820    3.7750 C.ar      1 MYU401      0.0000 
     17 C5         29.3570   46.9350    4.5110 C.ar      1 MYU401      0.0000 
     18 C4         28.1510   47.5920    4.3460 C.ar      1 MYU401      0.0000 
     19 O17        27.8480   48.7270    5.0250 O.3       1 MYU401      0.0000 
     20 C3         27.1920   47.1040    3.4650 C.ar      1 MYU401      0.0000 
     21 O18        26.0510   47.8500    3.3920 O.3       1 MYU401      0.0000 
     22 C2         27.4160   45.9340    2.7260 C.ar      1 MYU401      0.0000 
     23 C1         28.6360   45.2770    2.9060 C.ar      1 MYU401      0.0000 
     24 H          31.0440   41.3429    2.7191 H         1 MYU401      0.0000 
     25 H          30.0564   47.2927    5.1752 H         1 MYU401      0.0000 
     26 H          26.7197   45.5806    2.0874 H         1 MYU401      0.0000 
     27 H          28.8234   44.3977    2.3928 H         1 MYU401      0.0000 
     28 H          32.8968   46.8727    5.7023 H         1 MYU401      0.0000 
     29 H          35.0308   43.7692    5.7325 H         1 MYU401      0.0000 
     30 H          32.3617   39.4823    2.1730 H         1 MYU401      0.0000 
     31 H          35.7045   40.7431    5.0004 H         1 MYU401      0.0000 
     32 H          28.7240   49.1909    5.1575 H         1 MYU401      0.0000 
     33 H          25.9972   48.3270    4.2693 H         1 MYU401      0.0000 
@<TRIPOS>BOND
     1    2    1 2    
     2    3    2 1    
     3    5    2 1    
     4    4    3 1    
     5   15    3 2    
     6   28    4 1    
     7    6    5 ar   
     8    8    5 ar   
     9    7    6 1    
    10   12    6 ar   
    11   29    7 1    
    12    9    8 ar   
    13   14    8 1    
    14   10    9 ar   
    15   24    9 1    
    16   11   10 1    
    17   12   10 ar   
    18   30   11 1    
    19   13   12 1    
    20   31   13 1    
    21   15   14 1    
    22   16   15 1    
    23   17   16 ar   
    24   23   16 ar   
    25   18   17 ar   
    26   25   17 1    
    27   19   18 1    
    28   20   18 ar   
    29   32   19 1    
    30   21   20 1    
    31   22   20 ar   
    32   33   21 1    
    33   23   22 ar   
    34   26   22 1    
    35   27   23 1    
@<TRIPOS>SUBSTRUCTURE
     1 MYU401      1 GROUP   
@<TRIPOS>SET

