#    Name: 1ejb_INJ_2_INTS_M
#    Modification time : Tue Mar 25 00:00:08 2014

@<TRIPOS>MOLECULE
1ejb_INJ_2_INTS_M
   90     0    12     0     0
SMALL
NO_CHARGES


@<TRIPOS>ATOM
      1 CA         87.0360   32.4120   58.8480 C.3       4 GLC5        0.0000 
      2 CA         85.4930   33.1910   58.7070 C.3      12 GLL5        0.0000 
      3 CA         88.5790   31.6330   58.9890 C.3       8 GLP5        0.0000 
      4 CA         84.9255   31.3285   59.7230 C.3       4 GLC5        0.0000 
      5 CA         84.3580   29.4660   60.7390 C.3       8 GLP5        0.0000 
      6 CA         84.1215   33.6225   60.0775 C.3       4 GLC5        0.0000 
      7 CA         82.7500   34.0540   61.4480 C.3       8 GLP5        0.0000 
      8 CA         84.4185   34.6640   58.2700 C.3       4 GLC5        0.0000 
      9 CA         83.3440   36.1370   57.8330 C.3       8 GLP5        0.0000 
     10 N          84.4515   32.3375   60.5590 N.am      2 SEC2        0.0000 
     11 N          85.4820   32.9940   59.9570 N.am     10 SEL2        0.0000 
     12 N          83.4210   31.6810   61.1610 N.am      6 SEP2        0.0000 
     13 N          84.7535   33.7620   60.8940 N.am      2 SEC2        0.0000 
     14 N          84.0250   34.5300   61.8310 N.am      6 SEP2        0.0000 
     15 CA         87.4340   33.0060   57.8855 C.3       4 GLC5        0.0000 
     16 CA         86.2890   34.3790   56.7820 C.3      12 GLL5        0.0000 
     17 N          87.1170   37.0285   56.4535 N.am      2 SEC2        0.0000 
     18 N          86.9420   35.3920   56.4280 N.am     10 SEL2        0.0000 
     19 N          87.2920   38.6650   56.4790 N.am      6 SEP2        0.0000 
     20 CA         82.7550   32.8815   55.7910 C.3       4 GLC5        0.0000 
     21 CA         84.6500   32.4580   56.5060 C.3      12 GLL5        0.0000 
     22 CA         80.8600   33.3050   55.0760 C.3       8 GLP5        0.0000 
     23 CA         85.5655   29.9475   56.2230 C.3       4 GLC5        0.0000 
     24 CA         83.7440   30.1820   56.4380 C.3      12 GLL5        0.0000 
     25 CA         87.3870   29.7130   56.0080 C.3       8 GLP5        0.0000 
     26 N          81.4635   31.3070   59.4885 N.am      2 SEC2        0.0000 
     27 N          82.3030   30.9620   58.2630 N.am     10 SEL2        0.0000 
     28 N          80.6240   31.6520   60.7140 N.am      6 SEP2        0.0000 
     29 CA         83.0020   29.1310   59.0925 C.3       4 GLC5        0.0000 
     30 CA         81.6460   28.7960   57.4460 C.3      12 GLL5        0.0000 
     31 O          82.2680   27.7105   59.2705 O.2       1 ALC1        0.0000 
     32 O          82.7230   28.0920   58.0820 O.2       9 ALL1        0.0000 
     33 O          81.8130   27.3290   60.4590 O.2       5 ALP1        0.0000 
     34 O          79.4950   27.9340   54.5775 O.2       1 ALC1        0.0000 
     35 O          80.5840   28.6450   55.3220 O.2       9 ALL1        0.0000 
     36 O          78.4060   27.2230   53.8330 O.2       5 ALP1        0.0000 
     37 CA         79.5550   25.0700   56.4665 C.3       4 GLC5        0.0000 
     38 CA         80.4820   26.5120   56.3920 C.3      12 GLL5        0.0000 
     39 CA         78.6280   23.6280   56.5410 C.3       8 GLP5        0.0000 
     40 CA         78.5140   26.8950   55.8505 C.3       4 GLC5        0.0000 
     41 CA         76.5460   27.2780   55.3090 C.3       8 GLP5        0.0000 
     42 N          78.1635   26.6325   56.8100 N.am      2 SEC2        0.0000 
     43 N          79.4630   26.9680   57.2950 N.am     10 SEL2        0.0000 
     44 N          76.8640   26.2970   56.3250 N.am      6 SEP2        0.0000 
     45 O          79.5765   26.9725   58.5745 O.2       1 ALC1        0.0000 
     46 O          79.4630   26.9680   57.2950 O.2       9 ALL1        0.0000 
     47 O          79.6900   26.9770   59.8540 O.2       5 ALP1        0.0000 
     48 CA         87.0295   32.7890   54.4545 C.3       4 GLC5        0.0000 
     49 CA         85.5760   33.9730   54.5610 C.3      12 GLL5        0.0000 
     50 CA         88.4830   31.6050   54.3480 C.3       8 GLP5        0.0000 
     51 CA         83.9630   35.5205   55.8965 C.3       4 GLC5        0.0000 
     52 CA         84.5820   34.9040   53.9600 C.3      12 GLL5        0.0000 
     53 CA         82.7210   34.1045   54.5180 C.3       4 GLC5        0.0000 
     54 CA         83.3360   34.6355   51.2100 C.3       4 GLC5        0.0000 
     55 CA         85.3400   34.5890   51.5750 C.3      12 GLL5        0.0000 
     56 CA         81.3320   34.6820   50.8450 C.3       8 GLP5        0.0000 
     57 CA         86.6985   36.8885   49.9290 C.3       4 GLC5        0.0000 
     58 CA         86.1950   35.2040   50.4400 C.3      12 GLL5        0.0000 
     59 CA         87.2020   38.5730   49.4180 C.3       8 GLP5        0.0000 
     60 NZ         85.1915   33.1275   47.1790 N.4       3 LYC4        0.0000 
     61 NZ         85.2060   33.6860   48.4270 N.4      11 LYL4        0.0000 
     62 NZ         85.9480   33.1390   45.0110 N.4       7 LYP4        0.0000 
     63 N          85.1915   33.1275   47.1790 N.am      2 SEC2        0.0000 
     64 N          85.2060   33.6860   48.4270 N.am     10 SEL2        0.0000 
     65 N          85.1770   32.5690   45.9310 N.am      6 SEP2        0.0000 
     66 N          85.9555   33.9385   46.8735 N.am      2 SEC2        0.0000 
     67 N          86.7050   34.1910   45.3200 N.am      6 SEP2        0.0000 
     68 N          84.1540   36.8940   47.5540 N.am      2 SEC2        0.0000 
     69 N          84.4030   36.0750   48.6430 N.am     10 SEL2        0.0000 
     70 N          83.9050   37.7130   46.4650 N.am      6 SEP2        0.0000 
     71 N          83.2895   35.8000   48.1370 N.am      2 SEC2        0.0000 
     72 N          82.1760   35.5250   47.6310 N.am      6 SEP2        0.0000 
     73 NZ         86.7270   34.7630   46.5635 N.4       3 LYC4        0.0000 
     74 NZ         86.7490   35.3350   47.8070 N.4      11 LYL4        0.0000 
     75 N          86.6445   36.8175   47.4475 N.am      2 SEC2        0.0000 
     76 N          86.7490   35.3350   47.8070 N.am     10 SEL2        0.0000 
     77 N          86.5400   38.3000   47.0880 N.am      6 SEP2        0.0000 
     78 N          86.7270   34.7630   46.5635 N.am      2 SEC2        0.0000 
     79 CA         84.2999   34.6713   57.1284 C.3       4 GLC5        0.0000 
     80 CA         85.4340   33.5270   55.9010 C.3      12 GLL5        0.0000 
     81 CA         83.6848   29.8212   58.7505 C.3       4 GLC5        0.0000 
     82 CA         81.9357   31.7407   55.9190 C.3       4 GLC5        0.0000 
     83 CA         82.2790   30.1710   57.0860 C.3      12 GLL5        0.0000 
     84 CA         80.4363   30.0733   58.2630 C.3       4 GLC5        0.0000 
     85 CA         78.9100   30.6630   59.2600 C.3       8 GLP5        0.0000 
     86 CA         81.2493   26.0083   54.7945 C.3       4 GLC5        0.0000 
     87 CA         81.4110   27.7810   56.1400 C.3      12 GLL5        0.0000 
     88 CA         81.5520   24.8700   53.3230 C.3       8 GLP5        0.0000 
     89 CA         83.4488   36.7035   53.4035 C.3       4 GLC5        0.0000 
     90 CA         81.9200   38.2300   53.4250 C.3       8 GLP5        0.0000 
@<TRIPOS>BOND
@<TRIPOS>SUBSTRUCTURE
     1 ALC1       31 GROUP        1 X    ALC  0     ROOT ALC X 1
     2 SEC2       10 GROUP        1 X    SEC  0     **** SEC X 2
     3 LYC4       60 GROUP        1 X    LYC  0     **** LYC X 4
     4 GLC5        1 GROUP        1 X    GLC  0     **** GLC X 6
     5 ALP1       33 GROUP        1 Y    ALP  0     ROOT ALP Y 8
     6 SEP2       12 GROUP        1 Y    SEP  0     **** SEP Y 9
     7 LYP4       62 GROUP        1 Y    LYP  0     **** LYP Y 11
     8 GLP5        3 GROUP        1 Y    GLP  0     **** GLP Y 13
     9 ALL1       32 GROUP        1 Z    ALL  0     ROOT ALL Z 15
    10 SEL2       11 GROUP        1 Z    SEL  0     **** SEL Z 16
    11 LYL4       61 GROUP        1 Z    LYL  0     **** LYL Z 18
    12 GLL5        2 GROUP        1 Z    GLL  0     **** GLL Z 20
@<TRIPOS>SET

