#    Name: 1ejb_INJ_2_ligand
#    Modification time : Tue Mar 25 00:00:08 2014

@<TRIPOS>MOLECULE
1ejb_INJ_2_ligand
   51    51     1     0     0
SMALL
NO_CHARGES


@<TRIPOS>ATOM
      1 N1         84.7500   32.2760   57.9140 N.ar      1 INJ300      0.0000 
      2 C2         85.4930   33.1910   58.7070 C.ar      1 INJ300      0.0000 
      3 O2         85.4820   32.9940   59.9570 O.3       1 INJ300      0.0000 
      4 N3         86.2350   34.1340   58.1210 N.ar      1 INJ300      0.0000 
      5 C4         86.2890   34.3790   56.7820 C.ar      1 INJ300      0.0000 
      6 O4         86.9420   35.3920   56.4280 O.3       1 INJ300      0.0000 
      7 C5         85.4340   33.5270   55.9010 C.ar      1 INJ300      0.0000 
      8 C6         84.6500   32.4580   56.5060 C.ar      1 INJ300      0.0000 
      9 N7         83.9800   31.5040   55.7490 N.pl3     1 INJ300      0.0000 
     10 C8         83.7440   30.1820   56.4380 C.3       1 INJ300      0.0000 
     11 C9         82.2790   30.1710   57.0860 C.3       1 INJ300      0.0000 
     12 O9         82.3030   30.9620   58.2630 O.3       1 INJ300      0.0000 
     13 C10        81.6460   28.7960   57.4460 C.3       1 INJ300      0.0000 
     14 O10        82.7230   28.0920   58.0820 O.3       1 INJ300      0.0000 
     15 C11        81.4110   27.7810   56.1400 C.3       1 INJ300      0.0000 
     16 O11        80.5840   28.6450   55.3220 O.3       1 INJ300      0.0000 
     17 C12        80.4820   26.5120   56.3920 C.3       1 INJ300      0.0000 
     18 O12        79.4630   26.9680   57.2950 O.3       1 INJ300      0.0000 
     19 C13        85.5760   33.9730   54.5610 C.3       1 INJ300      0.0000 
     20 C14        84.5820   34.9040   53.9600 C.3       1 INJ300      0.0000 
     21 C15        85.3730   35.4500   52.8040 C.3       1 INJ300      0.0000 
     22 C16        85.3400   34.5890   51.5750 C.3       1 INJ300      0.0000 
     23 C17        86.1950   35.2040   50.4400 C.3       1 INJ300      0.0000 
     24 P          85.5070   35.0610   48.7390 P.3       1 INJ300      0.0000 
     25 O1P        85.2060   33.6860   48.4270 O.co2     1 INJ300      0.0000 
     26 O2P        84.4030   36.0750   48.6430 O.co2     1 INJ300      0.0000 
     27 O3P        86.7490   35.3350   47.8070 O.co2     1 INJ300      0.0000 
     28 H          83.6614   31.6233   54.8337 H         1 INJ300      0.0000 
     29 H          84.4496   30.0322   57.2387 H         1 INJ300      0.0000 
     30 H          83.7895   29.3664   55.7350 H         1 INJ300      0.0000 
     31 H          81.6137   30.6560   56.3469 H         1 INJ300      0.0000 
     32 H          80.8132   28.8419   57.9828 H         1 INJ300      0.0000 
     33 H          82.2913   27.5620   55.7208 H         1 INJ300      0.0000 
     34 H          81.1075   25.7531   56.8149 H         1 INJ300      0.0000 
     35 H          80.0957   26.2203   55.4372 H         1 INJ300      0.0000 
     36 H          85.6566   33.0672   53.8582 H         1 INJ300      0.0000 
     37 H          86.6121   34.4498   54.4196 H         1 INJ300      0.0000 
     38 H          84.3449   35.6811   54.6347 H         1 INJ300      0.0000 
     39 H          83.7421   34.3720   53.6039 H         1 INJ300      0.0000 
     40 H          86.4264   35.5902   53.1210 H         1 INJ300      0.0000 
     41 H          84.9919   36.4600   52.5502 H         1 INJ300      0.0000 
     42 H          84.3156   34.4857   51.2148 H         1 INJ300      0.0000 
     43 H          85.7321   33.5962   51.7999 H         1 INJ300      0.0000 
     44 H          87.1622   34.7275   50.3298 H         1 INJ300      0.0000 
     45 H          86.3254   36.2755   50.5382 H         1 INJ300      0.0000 
     46 H          86.4370   33.0807   60.2410 H         1 INJ300      0.0000 
     47 H          87.6948   35.0344   55.8755 H         1 INJ300      0.0000 
     48 H          83.2732   31.1017   58.4611 H         1 INJ300      0.0000 
     49 H          82.3606   27.8138   58.9715 H         1 INJ300      0.0000 
     50 H          79.8908   28.0418   54.9274 H         1 INJ300      0.0000 
     51 H          79.8521   26.8443   58.2079 H         1 INJ300      0.0000 
@<TRIPOS>BOND
     1    2    1 ar   
     2    8    1 ar   
     3    3    2 1    
     4    4    2 ar   
     5   46    3 1    
     6    5    4 ar   
     7    6    5 1    
     8    7    5 ar   
     9   47    6 1    
    10    8    7 ar   
    11   19    7 1    
    12    9    8 1    
    13   10    9 1    
    14   28    9 1    
    15   11   10 1    
    16   29   10 1    
    17   30   10 1    
    18   12   11 1    
    19   13   11 1    
    20   31   11 1    
    21   48   12 1    
    22   14   13 1    
    23   15   13 1    
    24   32   13 1    
    25   49   14 1    
    26   16   15 1    
    27   17   15 1    
    28   33   15 1    
    29   50   16 1    
    30   18   17 1    
    31   34   17 1    
    32   35   17 1    
    33   51   18 1    
    34   20   19 1    
    35   36   19 1    
    36   37   19 1    
    37   21   20 1    
    38   38   20 1    
    39   39   20 1    
    40   22   21 1    
    41   40   21 1    
    42   41   21 1    
    43   23   22 1    
    44   42   22 1    
    45   43   22 1    
    46   24   23 1    
    47   44   23 1    
    48   45   23 1    
    49   25   24 ar   
    50   26   24 ar   
    51   27   24 ar   
@<TRIPOS>SUBSTRUCTURE
     1 INJ300      1 GROUP   
@<TRIPOS>SET

