#    Name: 3k5c_0BI_1_INTS_M
#    Modification time : Mon Mar 24 18:21:43 2014

@<TRIPOS>MOLECULE
3k5c_0BI_1_INTS_M
   87     0    12     0     0
SMALL
NO_CHARGES


@<TRIPOS>ATOM
      1 O          30.6980    5.7935   16.9140 O.2       1 ALC1        0.0000 
      2 O          30.3240    6.1340   15.4260 O.2       9 ALL1        0.0000 
      3 O          31.0720    5.4530   18.4020 O.2       5 ALP1        0.0000 
      4 CA         32.8525    5.6685   17.0510 C.3       4 GLC5        0.0000 
      5 CA         32.5990    7.0850   15.3410 C.3      12 GLL5        0.0000 
      6 CA         33.1060    4.2520   18.7610 C.3       8 GLP5        0.0000 
      7 CA         30.2585   11.3455   19.0070 C.3       4 GLC5        0.0000 
      8 CA         31.0670    9.8490   17.5730 C.3      12 GLL5        0.0000 
      9 CA         29.4500   12.8420   20.4410 C.3       8 GLP5        0.0000 
     10 CA         31.0405    8.7730   13.0200 C.3       4 GLC5        0.0000 
     11 CA         31.8050    9.4800   14.8580 C.3      12 GLL5        0.0000 
     12 CA         30.2760    8.0660   11.1820 C.3       8 GLP5        0.0000 
     13 CA         32.9595    9.1295   19.2730 C.3       4 GLC5        0.0000 
     14 CA         31.0670    9.2520   20.0160 C.3      12 GLL5        0.0000 
     15 CA         34.8520    9.0070   18.5300 C.3       8 GLP5        0.0000 
     16 CA         32.1795   10.9990   19.6790 C.3       4 GLC5        0.0000 
     17 CA         33.2920   12.7460   19.3420 C.3       8 GLP5        0.0000 
     18 CA         29.9225    9.9825   22.6645 C.3       4 GLC5        0.0000 
     19 CA         29.9070    9.1350   21.0350 C.3      12 GLL5        0.0000 
     20 CA         29.9380   10.8300   24.2940 C.3       8 GLP5        0.0000 
     21 CA         29.0015    5.1815   19.6595 C.3       4 GLC5        0.0000 
     22 CA         28.5740    7.0780   20.3360 C.3      12 GLL5        0.0000 
     23 CA         29.4290    3.2850   18.9830 C.3       8 GLP5        0.0000 
     24 CA         27.6165    5.7725   21.5780 C.3       4 GLC5        0.0000 
     25 CA         26.6590    4.4670   22.8200 C.3       8 GLP5        0.0000 
     26 CA         26.5575    4.2795   17.9870 C.3       4 GLC5        0.0000 
     27 CA         25.7970    6.3240   17.9110 C.3      12 GLL5        0.0000 
     28 CA         27.3180    2.2350   18.0630 C.3       8 GLP5        0.0000 
     29 CA         24.2810    5.6040   14.0710 C.3       4 GLC5        0.0000 
     30 CA         24.0580    5.9660   16.0590 C.3      12 GLL5        0.0000 
     31 CA         24.5040    5.2420   12.0830 C.3       8 GLP5        0.0000 
     32 CA         23.5590    2.4020   16.7665 C.3       4 GLC5        0.0000 
     33 CA         22.8490    4.1140   17.0520 C.3      12 GLL5        0.0000 
     34 CA         24.2690    0.6900   16.4810 C.3       8 GLP5        0.0000 
     35 N          28.2830    6.6655   12.3510 N.am      2 SEC2        0.0000 
     36 N          28.7720    6.6410   13.8680 N.am     10 SEL2        0.0000 
     37 N          27.7940    6.6900   10.8340 N.am      6 SEP2        0.0000 
     38 O          34.0450    4.3055   14.8380 O.2       1 ALC1        0.0000 
     39 O          33.1810    4.7900   13.4590 O.2       9 ALL1        0.0000 
     40 O          34.9090    3.8210   16.2170 O.2       5 ALP1        0.0000 
     41 O          34.3250    5.0210   14.0600 O.2       1 ALC1        0.0000 
     42 O          35.4690    5.2520   14.6610 O.2       5 ALP1        0.0000 
     43 OD1        32.2450    2.0935   14.9665 O.co2     3 ASC3        0.0000 
     44 OD1        31.5390    2.6060   13.1720 O.co2    11 ASL3        0.0000 
     45 OD1        32.9510    1.5810   16.7610 O.co2     7 ASP3        0.0000 
     46 OD1        31.3515    1.9230   14.3505 O.co2     3 ASC3        0.0000 
     47 OD1        31.1640    1.2400   15.5290 O.co2     7 ASP3        0.0000 
     48 CA         35.0055    4.9345   10.0655 C.3       4 GLC5        0.0000 
     49 CA         33.7770    5.2540    8.4540 C.3      12 GLL5        0.0000 
     50 CA         36.2340    4.6150   11.6770 C.3       8 GLP5        0.0000 
     51 CA         34.2205    6.8960    8.1605 C.3       4 GLC5        0.0000 
     52 CA         34.6640    8.5380    7.8670 C.3       8 GLP5        0.0000 
     53 CA         33.2545    6.3785    9.9685 C.3       4 GLC5        0.0000 
     54 CA         32.7320    7.5030   11.4830 C.3       8 GLP5        0.0000 
     55 CA         35.4855    2.9500    9.9075 C.3       4 GLC5        0.0000 
     56 CA         34.2290    2.7360    8.1420 C.3      12 GLL5        0.0000 
     57 CA         36.7420    3.1640   11.6730 C.3       8 GLP5        0.0000 
     58 CA         35.4760    1.5250    7.3270 C.3       4 GLC5        0.0000 
     59 CA         36.7230    0.3140    6.5120 C.3       8 GLP5        0.0000 
     60 CA         33.6380    1.0040    8.9230 C.3       4 GLC5        0.0000 
     61 CA         33.0470   -0.7280    9.7040 C.3       8 GLP5        0.0000 
     62 CA         33.5755    8.3818   17.0480 C.3       4 GLC5        0.0000 
     63 CA         33.1000    9.1203   17.9445 C.3       4 GLC5        0.0000 
     64 CA         31.6290    8.6180   17.1450 C.3      12 GLL5        0.0000 
     65 CA         34.0415    8.6366   15.0525 C.3       4 GLC5        0.0000 
     66 CA         31.9990    8.4280   15.7910 C.3      12 GLL5        0.0000 
     67 CA         36.0310    8.6550   14.8930 C.3       8 GLP5        0.0000 
     68 CA         31.6780    8.8517   22.0917 C.3       4 GLC5        0.0000 
     69 CA         32.8690    8.5100   23.6580 C.3       8 GLP5        0.0000 
     70 CA         29.4898   10.8754   20.4619 C.3       4 GLC5        0.0000 
     71 CA         28.5400    4.9010   18.4328 C.3       4 GLC5        0.0000 
     72 CA         27.1260    6.5070   18.3630 C.3      12 GLL5        0.0000 
     73 CA         26.1719    5.9284   14.1508 C.3       4 GLC5        0.0000 
     74 CA         27.9010    6.3650   16.0240 C.3      12 GLL5        0.0000 
     75 CA         25.9750    5.6380   12.1320 C.3       8 GLP5        0.0000 
     76 CA         32.3957    6.6024   13.0696 C.3       4 GLC5        0.0000 
     77 CA         31.5350    6.2000   14.6000 C.3      12 GLL5        0.0000 
     78 CA         31.9168    0.2562   10.8803 C.3       4 GLC5        0.0000 
     79 CA         30.7230    2.0080   12.1030 C.3      12 GLL5        0.0000 
     80 CA         30.6175   -0.9035   12.7817 C.3       4 GLC5        0.0000 
     81 CA         30.8500    0.4730   12.0100 C.3      12 GLL5        0.0000 
     82 CA         31.0370   -2.5950   13.2870 C.3       8 GLP5        0.0000 
     83 CA         27.8968    4.8803   10.1902 C.3       4 GLC5        0.0000 
     84 CA         29.3930    3.7720    8.9320 C.3      12 GLL5        0.0000 
     85 CA         26.3850    6.3140   10.8220 C.3       8 GLP5        0.0000 
     86 CA         29.7683    5.5396    9.5936 C.3       4 GLC5        0.0000 
     87 CA         29.8260    7.5710    9.8020 C.3       8 GLP5        0.0000 
@<TRIPOS>BOND
@<TRIPOS>SUBSTRUCTURE
     1 ALC1        1 GROUP        1 X    ALC  0     ROOT ALC X 1
     2 SEC2       35 GROUP        1 X    SEC  0     **** SEC X 2
     3 ASC3       43 GROUP        1 X    ASC  0     **** ASC X 3
     4 GLC5        4 GROUP        1 X    GLC  0     **** GLC X 6
     5 ALP1        3 GROUP        1 Y    ALP  0     ROOT ALP Y 8
     6 SEP2       37 GROUP        1 Y    SEP  0     **** SEP Y 9
     7 ASP3       45 GROUP        1 Y    ASP  0     **** ASP Y 10
     8 GLP5        6 GROUP        1 Y    GLP  0     **** GLP Y 13
     9 ALL1        2 GROUP        1 Z    ALL  0     ROOT ALL Z 15
    10 SEL2       36 GROUP        1 Z    SEL  0     **** SEL Z 16
    11 ASL3       44 GROUP        1 Z    ASL  0     **** ASL Z 17
    12 GLL5        5 GROUP        1 Z    GLL  0     **** GLL Z 20
@<TRIPOS>SET

