#    Name: 3k5c_0BI_1_ligand
#    Modification time : Mon Mar 24 18:21:43 2014

@<TRIPOS>MOLECULE
3k5c_0BI_1_ligand
   86    90     1     0     0
SMALL
NO_CHARGES


@<TRIPOS>ATOM
      1 N1         30.3240    6.1340   15.4260 N.am      1 0BI387      0.0000 
      2 C3         31.5350    6.2000   14.6000 C.3       1 0BI387      0.0000 
      3 C5         32.5990    7.0850   15.3410 C.3       1 0BI387      0.0000 
      4 C8         31.9990    8.4280   15.7910 C.ar      1 0BI387      0.0000 
      5 C9         31.6290    8.6180   17.1450 C.ar      1 0BI387      0.0000 
      6 C11        31.0670    9.8490   17.5730 C.ar      1 0BI387      0.0000 
      7 C12        30.8750   10.8930   16.6320 C.ar      1 0BI387      0.0000 
      8 C14        31.2430   10.7040   15.2840 C.ar      1 0BI387      0.0000 
      9 C16        31.8050    9.4800   14.8580 C.ar      1 0BI387      0.0000 
     10 O18        30.6920   10.0740   18.8970 O.3       1 0BI387      0.0000 
     11 C19        31.0670    9.2520   20.0160 C.3       1 0BI387      0.0000 
     12 C22        29.9070    9.1350   21.0350 C.3       1 0BI387      0.0000 
     13 C25        28.5720    8.6240   20.4400 C.3       1 0BI387      0.0000 
     14 C28        28.5740    7.0780   20.3360 C.3       1 0BI387      0.0000 
     15 N31        27.3260    6.6510   19.7040 N.pl3     1 0BI387      0.0000 
     16 C33        27.1260    6.5070   18.3630 C.ar      1 0BI387      0.0000 
     17 C34        28.1760    6.5270   17.4020 C.ar      1 0BI387      0.0000 
     18 C36        27.9010    6.3650   16.0240 C.ar      1 0BI387      0.0000 
     19 C37        26.5620    6.1840   15.5900 C.ar      1 0BI387      0.0000 
     20 C39        25.5060    6.1630   16.5320 C.ar      1 0BI387      0.0000 
     21 C40        25.7970    6.3240   17.9110 C.ar      1 0BI387      0.0000 
     22 C42        24.0580    5.9660   16.0590 C.3       1 0BI387      0.0000 
     23 O45        23.8000    4.5450   16.0490 O.3       1 0BI387      0.0000 
     24 C46        22.8490    4.1140   17.0520 C.3       1 0BI387      0.0000 
     25 C50        29.0430    6.3860   15.0350 C.2       1 0BI387      0.0000 
     26 O51        28.7720    6.6410   13.8680 O.2       1 0BI387      0.0000 
     27 C52        32.0520    4.7610   14.3420 C.3       1 0BI387      0.0000 
     28 O54        33.1810    4.7900   13.4590 O.3       1 0BI387      0.0000 
     29 C56        30.9820    3.8940   13.6320 C.3       1 0BI387      0.0000 
     30 N59        31.5390    2.6060   13.1720 N.4       1 0BI387      0.0000 
     31 C61        30.7230    2.0080   12.1030 C.3       1 0BI387      0.0000 
     32 C62        30.8500    0.4730   12.0100 C.3       1 0BI387      0.0000 
     33 C65        29.5460    1.1030   12.5430 C.3       1 0BI387      0.0000 
     34 C68        30.6640    2.7160   10.7430 C.ar      1 0BI387      0.0000 
     35 C69        31.8650    2.9700   10.0440 C.ar      1 0BI387      0.0000 
     36 C71        31.8490    3.6230    8.7830 C.ar      1 0BI387      0.0000 
     37 C72        30.6010    4.0190    8.2390 C.ar      1 0BI387      0.0000 
     38 C74        29.3930    3.7720    8.9320 C.ar      1 0BI387      0.0000 
     39 C76        29.4240    3.1210   10.1850 C.ar      1 0BI387      0.0000 
     40 C78        33.1790    3.8790    8.0490 C.3       1 0BI387      0.0000 
     41 C80        33.7770    5.2540    8.4540 C.3       1 0BI387      0.0000 
     42 C84        34.2290    2.7360    8.1420 C.3       1 0BI387      0.0000 
     43 H          30.5083    5.8525   16.4459 H         1 0BI387      0.0000 
     44 H          31.3187    6.6626   13.6563 H         1 0BI387      0.0000 
     45 H          33.4270    7.2648   14.6620 H         1 0BI387      0.0000 
     46 H          32.9564    6.5367   16.2074 H         1 0BI387      0.0000 
     47 H          31.7675    7.8626   17.8208 H         1 0BI387      0.0000 
     48 H          30.4702   11.7796   16.9344 H         1 0BI387      0.0000 
     49 H          31.1020   11.4605   14.6065 H         1 0BI387      0.0000 
     50 H          32.0717    9.3495   13.8832 H         1 0BI387      0.0000 
     51 H          31.9320    9.6656   20.5521 H         1 0BI387      0.0000 
     52 H          31.3293    8.2327   19.7015 H         1 0BI387      0.0000 
     53 H          29.7354   10.1234   21.4893 H         1 0BI387      0.0000 
     54 H          30.2157    8.4551   21.8445 H         1 0BI387      0.0000 
     55 H          28.4399    9.0454   19.4504 H         1 0BI387      0.0000 
     56 H          27.7554    8.9349   21.0811 H         1 0BI387      0.0000 
     57 H          28.6672    6.6764   21.3396 H         1 0BI387      0.0000 
     58 H          29.4367    6.7846   19.7471 H         1 0BI387      0.0000 
     59 H          26.5326    6.4451   20.3784 H         1 0BI387      0.0000 
     60 H          29.1422    6.6607   17.7165 H         1 0BI387      0.0000 
     61 H          26.3619    6.0689   14.5959 H         1 0BI387      0.0000 
     62 H          25.0283    6.3073   18.5932 H         1 0BI387      0.0000 
     63 H          23.9664    6.3980   15.0699 H         1 0BI387      0.0000 
     64 H          23.4058    6.4879   16.7485 H         1 0BI387      0.0000 
     65 H          32.2915    4.3000   15.2704 H         1 0BI387      0.0000 
     66 H          30.5894    4.4710   12.7866 H         1 0BI387      0.0000 
     67 H          30.1595    3.7309   14.3382 H         1 0BI387      0.0000 
     68 H          31.3476    0.1896   12.7584 H         1 0BI387      0.0000 
     69 H          30.6964    0.2356   11.1111 H         1 0BI387      0.0000 
     70 H          28.9258    1.0968   11.8350 H         1 0BI387      0.0000 
     71 H          29.5769    1.0509   13.4823 H         1 0BI387      0.0000 
     72 H          32.7614    2.6805   10.4495 H         1 0BI387      0.0000 
     73 H          30.5753    4.4922    7.3280 H         1 0BI387      0.0000 
     74 H          28.5040    4.0630    8.5279 H         1 0BI387      0.0000 
     75 H          28.5570    2.9408   10.6907 H         1 0BI387      0.0000 
     76 H          32.9219    3.9828    6.9546 H         1 0BI387      0.0000 
     77 H          22.6958    3.1264   17.0185 H         1 0BI387      0.0000 
     78 H          23.1609    4.3310   17.9770 H         1 0BI387      0.0000 
     79 H          21.9585    4.5530   16.9324 H         1 0BI387      0.0000 
     80 H          33.9628    5.3036    9.4353 H         1 0BI387      0.0000 
     81 H          34.6397    5.4371    7.9827 H         1 0BI387      0.0000 
     82 H          33.1574    6.0076    8.2345 H         1 0BI387      0.0000 
     83 H          35.0669    2.9600    7.6442 H         1 0BI387      0.0000 
     84 H          34.4916    2.5490    9.0886 H         1 0BI387      0.0000 
     85 H          33.8810    1.8800    7.7598 H         1 0BI387      0.0000 
     86 H          33.9714    4.9347   14.0543 H         1 0BI387      0.0000 
@<TRIPOS>BOND
     1    2    1 1    
     2   25    1 am   
     3   43    1 1    
     4    3    2 1    
     5   27    2 1    
     6   44    2 1    
     7    4    3 1    
     8   45    3 1    
     9   46    3 1    
    10    5    4 ar   
    11    9    4 ar   
    12    6    5 ar   
    13   47    5 1    
    14    7    6 ar   
    15   10    6 1    
    16    8    7 ar   
    17   48    7 1    
    18    9    8 ar   
    19   49    8 1    
    20   50    9 1    
    21   11   10 1    
    22   12   11 1    
    23   51   11 1    
    24   52   11 1    
    25   13   12 1    
    26   53   12 1    
    27   54   12 1    
    28   14   13 1    
    29   55   13 1    
    30   56   13 1    
    31   15   14 1    
    32   57   14 1    
    33   58   14 1    
    34   16   15 1    
    35   59   15 1    
    36   17   16 ar   
    37   21   16 ar   
    38   18   17 ar   
    39   60   17 1    
    40   19   18 ar   
    41   25   18 1    
    42   20   19 ar   
    43   61   19 1    
    44   21   20 ar   
    45   22   20 1    
    46   62   21 1    
    47   23   22 1    
    48   63   22 1    
    49   64   22 1    
    50   24   23 1    
    51   77   24 1    
    52   78   24 1    
    53   79   24 1    
    54   26   25 2    
    55   28   27 1    
    56   29   27 1    
    57   65   27 1    
    58   86   28 1    
    59   30   29 1    
    60   66   29 1    
    61   67   29 1    
    62   31   30 1    
    63   32   31 1    
    64   33   31 1    
    65   34   31 1    
    66   33   32 1    
    67   68   32 1    
    68   69   32 1    
    69   70   33 1    
    70   71   33 1    
    71   35   34 ar   
    72   39   34 ar   
    73   36   35 ar   
    74   72   35 1    
    75   37   36 ar   
    76   40   36 1    
    77   38   37 ar   
    78   73   37 1    
    79   39   38 ar   
    80   74   38 1    
    81   75   39 1    
    82   41   40 1    
    83   42   40 1    
    84   76   40 1    
    85   80   41 1    
    86   81   41 1    
    87   82   41 1    
    88   83   42 1    
    89   84   42 1    
    90   85   42 1    
@<TRIPOS>SUBSTRUCTURE
     1 0BI387      1 GROUP   
@<TRIPOS>SET

