#    Name: 2bxf_DZP_2_INTS_M
#    Modification time : Mon Mar 24 21:53:33 2014

@<TRIPOS>MOLECULE
2bxf_DZP_2_INTS_M
   58     0     6     0     0
SMALL
NO_CHARGES


@<TRIPOS>ATOM
      1 CA         51.9380   39.7445   74.5170 C.3       2 GLC5        0.0000 
      2 CA         51.1180   38.0480   75.2510 C.3       6 GLL5        0.0000 
      3 CA         52.7580   41.4410   73.7830 C.3       4 GLP5        0.0000 
      4 CA         49.6780   38.0825   72.2300 C.3       2 GLC5        0.0000 
      5 CA         50.6830   38.2070   73.9140 C.3       6 GLL5        0.0000 
      6 CA         48.6730   37.9580   70.5460 C.3       4 GLP5        0.0000 
      7 CA         57.2470   35.2920   70.8555 C.3       2 GLC5        0.0000 
      8 CA         57.4110   35.1740   72.7930 C.3       6 GLL5        0.0000 
      9 CA         57.0830   35.4100   68.9180 C.3       4 GLP5        0.0000 
     10 CA         59.1675   37.1855   71.0315 C.3       2 GLC5        0.0000 
     11 CA         57.7860   36.4850   72.4270 C.3       6 GLL5        0.0000 
     12 CA         60.5490   37.8860   69.6360 C.3       4 GLP5        0.0000 
     13 CA         54.5300   38.9565   73.1550 C.3       2 GLC5        0.0000 
     14 CA         55.8940   37.3620   73.6450 C.3       6 GLL5        0.0000 
     15 CA         53.1660   40.5510   72.6650 C.3       4 GLP5        0.0000 
     16 CA         58.1400   32.0095   73.1695 C.3       2 GLC5        0.0000 
     17 CA         55.9840   32.4860   72.9170 C.3       6 GLL5        0.0000 
     18 CA         60.2960   31.5330   73.4220 C.3       4 GLP5        0.0000 
     19 CA         56.7225   31.0150   72.0480 C.3       2 GLC5        0.0000 
     20 CA         57.4610   29.5440   71.1790 C.3       4 GLP5        0.0000 
     21 CA         54.4825   32.2070   71.9950 C.3       2 GLC5        0.0000 
     22 CA         52.9810   31.9280   71.0730 C.3       4 GLP5        0.0000 
     23 N          54.4960   30.6975   75.5265 N.am      1 SEC2        0.0000 
     24 N          55.2390   31.9820   75.5350 N.am      5 SEL2        0.0000 
     25 N          53.7530   29.4130   75.5180 N.am      3 SEP2        0.0000 
     26 CA         55.2915   39.8850   72.5700 C.3       2 GLC5        0.0000 
     27 CA         57.4170   39.2190   72.4750 C.3       6 GLL5        0.0000 
     28 CA         57.8605   38.7295   74.2510 C.3       2 GLC5        0.0000 
     29 CA         58.3040   38.2400   76.0270 C.3       4 GLP5        0.0000 
     30 CA         58.1805   40.7785   72.3465 C.3       2 GLC5        0.0000 
     31 CA         58.9440   42.3380   72.2180 C.3       4 GLP5        0.0000 
     32 CA         56.8075   37.9185   70.8200 C.3       2 GLC5        0.0000 
     33 CA         56.1980   36.6180   69.1650 C.3       4 GLP5        0.0000 
     34 CA         58.9830   38.5525   71.0555 C.3       2 GLC5        0.0000 
     35 CA         58.7435   40.2350   71.7030 C.3       2 GLC5        0.0000 
     36 CA         60.0700   41.2510   70.9310 C.3       4 GLP5        0.0000 
     37 CA         49.9372   39.6308   75.5523 C.3       2 GLC5        0.0000 
     38 CA         48.9740   41.1340   76.5220 C.3       4 GLP5        0.0000 
     39 CA         52.1090   39.2310   73.0293 C.3       2 GLC5        0.0000 
     40 CA         52.7035   38.3628   71.3683 C.3       2 GLC5        0.0000 
     41 CA         51.4210   37.6150   72.8730 C.3       6 GLL5        0.0000 
     42 CA         53.4070   39.4840   69.7200 C.3       4 GLP5        0.0000 
     43 CA         50.8815   37.2482   71.3757 C.3       2 GLC5        0.0000 
     44 CA         49.7630   37.2550   69.7350 C.3       4 GLP5        0.0000 
     45 CA         57.8500   37.6335   74.3405 C.3       2 GLC5        0.0000 
     46 CA         57.0060   37.5690   72.8810 C.3       6 GLL5        0.0000 
     47 CA         56.7970   36.8225   70.9095 C.3       2 GLC5        0.0000 
     48 CA         52.8537   38.7970   73.6804 C.3       2 GLC5        0.0000 
     49 CA         52.5790   36.8680   73.1600 C.3       6 GLL5        0.0000 
     50 CA         50.3631   35.9824   75.1006 C.3       2 GLC5        0.0000 
     51 CA         49.1370   34.2500   75.1330 C.3       4 GLP5        0.0000 
     52 CA         52.5802   38.1142   76.6419 C.3       2 GLC5        0.0000 
     53 CA         52.7960   39.0410   78.3250 C.3       4 GLP5        0.0000 
     54 CA         52.1928   35.3399   73.0909 C.3       2 GLC5        0.0000 
     55 CA         53.0310   36.7000   74.5150 C.3       6 GLL5        0.0000 
     56 CA         51.8700   33.7090   72.4160 C.3       4 GLP5        0.0000 
     57 CA         56.9975   37.4770   74.9327 C.3       2 GLC5        0.0000 
     58 CA         55.4880   36.0660   74.0320 C.3       6 GLL5        0.0000 
@<TRIPOS>BOND
@<TRIPOS>SUBSTRUCTURE
     1 SEC2       23 GROUP        1 X    SEC  0     ROOT SEC X 2
     2 GLC5        1 GROUP        1 X    GLC  0     **** GLC X 6
     3 SEP2       25 GROUP        1 Y    SEP  0     ROOT SEP Y 9
     4 GLP5        3 GROUP        1 Y    GLP  0     **** GLP Y 13
     5 SEL2       24 GROUP        1 Z    SEL  0     ROOT SEL Z 16
     6 GLL5        2 GROUP        1 Z    GLL  0     **** GLL Z 20
@<TRIPOS>SET

