#    Name: 2bxf_DZP_2_ligand
#    Modification time : Mon Mar 24 21:53:33 2014

@<TRIPOS>MOLECULE
2bxf_DZP_2_ligand
   33    35     1     0     0
SMALL
NO_CHARGES


@<TRIPOS>ATOM
      1 C1         51.1180   38.0480   75.2510 C.ar      1 DZP2001     0.0000 
      2 C2         50.6830   38.2070   73.9140 C.ar      1 DZP2001     0.0000 
      3 C3         51.4210   37.6150   72.8730 C.ar      1 DZP2001     0.0000 
      4 C4         52.5790   36.8680   73.1600 C.ar      1 DZP2001     0.0000 
      5 C5         54.2670   35.9080   74.8690 C.2       1 DZP2001     0.0000 
      6 C6         56.2570   34.9310   73.5880 C.ar      1 DZP2001     0.0000 
      7 C7         57.4110   35.1740   72.7930 C.ar      1 DZP2001     0.0000 
      8 C8         57.7860   36.4850   72.4270 C.ar      1 DZP2001     0.0000 
      9 C9         57.0060   37.5690   72.8810 C.ar      1 DZP2001     0.0000 
     10 C11        52.2780   37.3020   75.5540 C.ar      1 DZP2001     0.0000 
     11 C12        53.0310   36.7000   74.5150 C.ar      1 DZP2001     0.0000 
     12 C13        55.4880   36.0660   74.0320 C.ar      1 DZP2001     0.0000 
     13 C14        55.8940   37.3620   73.6450 C.ar      1 DZP2001     0.0000 
     14 N15        54.2020   35.0960   75.9050 N.2       1 DZP2001     0.0000 
     15 C17        55.3900   34.2740   76.2690 C.3       1 DZP2001     0.0000 
     16 C18        55.5040   33.1520   75.2500 C.2       1 DZP2001     0.0000 
     17 C20        55.9840   32.4860   72.9170 C.3       1 DZP2001     0.0000 
     18 N2         55.9020   33.5540   73.9540 N.am      1 DZP2001     0.0000 
     19 O1         55.2390   31.9820   75.5350 O.2       1 DZP2001     0.0000 
     20 CL         57.4170   39.2190   72.4750 Cl        1 DZP2001     0.0000 
     21 H          50.5810   38.4823   76.0119 H         1 DZP2001     0.0000 
     22 H          49.8439   38.7451   73.7113 H         1 DZP2001     0.0000 
     23 H          51.1147   37.7278   71.9017 H         1 DZP2001     0.0000 
     24 H          53.1154   36.4336   72.4041 H         1 DZP2001     0.0000 
     25 H          57.9804   34.3763   72.4809 H         1 DZP2001     0.0000 
     26 H          58.6023   36.6440   71.8476 H         1 DZP2001     0.0000 
     27 H          52.5776   37.1944   76.5250 H         1 DZP2001     0.0000 
     28 H          55.3157   38.1686   73.9614 H         1 DZP2001     0.0000 
     29 H          55.2643   33.8469   77.2538 H         1 DZP2001     0.0000 
     30 H          56.2876   34.8751   76.2361 H         1 DZP2001     0.0000 
     31 H          56.9110   32.3911   72.5541 H         1 DZP2001     0.0000 
     32 H          55.7191   31.5933   73.2815 H         1 DZP2001     0.0000 
     33 H          55.3832   32.6755   72.1404 H         1 DZP2001     0.0000 
@<TRIPOS>BOND
     1    2    1 ar   
     2   10    1 ar   
     3   21    1 1    
     4    3    2 ar   
     5   22    2 1    
     6    4    3 ar   
     7   23    3 1    
     8   11    4 ar   
     9   24    4 1    
    10   11    5 1    
    11   12    5 1    
    12   14    5 2    
    13    7    6 ar   
    14   12    6 ar   
    15   18    6 1    
    16    8    7 ar   
    17   25    7 1    
    18    9    8 ar   
    19   26    8 1    
    20   13    9 ar   
    21   20    9 1    
    22   11   10 ar   
    23   27   10 1    
    24   13   12 ar   
    25   28   13 1    
    26   15   14 1    
    27   16   15 1    
    28   29   15 1    
    29   30   15 1    
    30   18   16 am   
    31   19   16 2    
    32   18   17 1    
    33   31   17 1    
    34   32   17 1    
    35   33   17 1    
@<TRIPOS>SUBSTRUCTURE
     1 DZP2001     1 GROUP   
@<TRIPOS>SET

