#    Name: 2WB5_1_CAVITY_N1_6.mol2
#    Modification time : Mon Mar 10 19:14:08 2014

@<TRIPOS>MOLECULE
2WB5_1_CAVITY_N1_6.mol2
   88     0     7     0     0
SMALL
NO_CHARGES


@<TRIPOS>ATOM
      1 OD1        30.3539   47.7900   13.6778 O.3       3 ASP3        0.0000 
      2 CZ         34.1400   43.4864   22.6021 C.ar      5 PHE5        0.0000 
      3 N          33.0056   44.0911   23.3750 N.2       2 ALA2        0.0000 
      4 NZ         33.4936   43.9149   21.3181 N.2       4 LYS4        0.0000 
      5 OD1        32.3593   44.5197   22.0910 O.3       3 ASP3        0.0000 
      6 OD1        30.1034   46.3097   11.5574 O.3       3 ASP3        0.0000 
      7 OD1        28.9691   46.9145   12.3303 O.3       3 ASP3        0.0000 
      8 NZ         34.5359   41.5775   21.7657 N.2       4 LYS4        0.0000 
      9 CZ         33.4015   42.1823   22.5386 C.ar      5 PHE5        0.0000 
     10 O          32.2671   42.7871   23.3115 O.2       2 ALA2        0.0000 
     11 OG         33.8896   42.0060   20.4817 O.2       1 SER1        0.0000 
     12 NZ         32.7552   42.6108   21.2547 N.2       4 LYS4        0.0000 
     13 CZ         31.6208   43.2156   22.0276 C.ar      5 PHE5        0.0000 
     14 NZ         30.4864   43.8204   22.8005 N.2       4 LYS4        0.0000 
     15 CZ         30.9744   43.6441   20.7436 C.ar      5 PHE5        0.0000 
     16 CA         28.2306   45.6104   12.2669 C.3       6 GLY6        0.0000 
     17 N          27.0962   46.2152   13.0398 N.2       2 ALA2        0.0000 
     18 N          26.4498   46.6437   11.7558 N.2       2 ALA2        0.0000 
     19 O          32.6630   40.8782   22.4752 O.2       2 ALA2        0.0000 
     20 N          31.5287   41.4830   23.2481 N.2       2 ALA2        0.0000 
     21 OG         33.1511   40.7019   20.4183 O.2       1 SER1        0.0000 
     22 CA         32.0167   41.3067   21.1912 C.3       6 GLY6        0.0000 
     23 NZ         30.8823   41.9115   21.9641 N.2       4 LYS4        0.0000 
     24 OG         32.5047   41.1304   19.1343 O.2       1 SER1        0.0000 
     25 NZ         31.3703   41.7352   19.9072 N.2       4 LYS4        0.0000 
     26 CZ         30.2359   42.3400   20.6801 C.ar      5 PHE5        0.0000 
     27 NZ         29.1015   42.9448   21.4531 N.2       4 LYS4        0.0000 
     28 NZ         31.8583   41.5590   17.8503 N.2       4 LYS4        0.0000 
     29 NZ         30.7239   42.1637   18.6233 N.2       4 LYS4        0.0000 
     30 CZ         29.5895   42.7685   19.3962 C.ar      5 PHE5        0.0000 
     31 CZ         28.4552   43.3733   20.1691 C.ar      5 PHE5        0.0000 
     32 NZ         32.3464   41.3827   15.7935 N.2       4 LYS4        0.0000 
     33 NZ         31.2120   41.9875   16.5664 N.2       4 LYS4        0.0000 
     34 NZ         30.0776   42.5923   17.3393 N.2       4 LYS4        0.0000 
     35 CZ         28.9432   43.1970   18.1122 C.ar      5 PHE5        0.0000 
     36 CA         32.8344   41.2064   13.7366 C.3       6 GLY6        0.0000 
     37 CA         30.5656   42.4160   15.2824 C.3       6 GLY6        0.0000 
     38 CA         29.4312   43.0208   16.0553 C.3       6 GLY6        0.0000 
     39 CA         28.2968   43.6256   16.8282 C.3       6 GLY6        0.0000 
     40 N          27.6504   44.0541   15.5443 N.2       2 ALA2        0.0000 
     41 N          27.0041   44.4826   14.2603 N.2       2 ALA2        0.0000 
     42 CA         27.4921   44.3063   12.2034 C.3       6 GLY6        0.0000 
     43 N          26.3577   44.9111   12.9763 N.2       2 ALA2        0.0000 
     44 CA         26.8457   44.7348   10.9194 C.3       6 GLY6        0.0000 
     45 N          30.7902   40.1789   23.1846 N.2       2 ALA2        0.0000 
     46 NZ         29.6558   40.7837   23.9575 N.2       4 LYS4        0.0000 
     47 CA         31.2782   40.0026   21.1277 C.3       6 GLY6        0.0000 
     48 NZ         30.1438   40.6074   21.9007 N.2       4 LYS4        0.0000 
     49 CA         31.7662   39.8264   19.0709 C.3       6 GLY6        0.0000 
     50 CA         30.6318   40.4312   19.8438 C.3       6 GLY6        0.0000 
     51 NZ         29.4974   41.0359   20.6167 N.2       4 LYS4        0.0000 
     52 OG         32.2542   39.6501   17.0140 O.2       1 SER1        0.0000 
     53 OG         31.1198   40.2549   17.7869 O.2       1 SER1        0.0000 
     54 CZ         29.9855   40.8597   18.5598 C.ar      5 PHE5        0.0000 
     55 CA         28.8511   41.4645   19.3327 C.3       6 GLY6        0.0000 
     56 CA         27.7167   42.0692   20.1056 C.3       6 GLY6        0.0000 
     57 N          31.6079   40.0786   15.7300 N.2       2 ALA2        0.0000 
     58 N          30.4735   40.6834   16.5029 N.2       2 ALA2        0.0000 
     59 DU         29.3391   41.2882   17.2758 H         7 CUB7        0.0000 
     60 CA         28.2047   41.8930   18.0487 C.3       6 GLY6        0.0000 
     61 N          30.9615   40.5071   14.4460 N.2       2 ALA2        0.0000 
     62 CA         29.8271   41.1119   15.2189 C.3       6 GLY6        0.0000 
     63 DU         28.6927   41.7167   15.9919 H         7 CUB7        0.0000 
     64 CA         27.5583   42.3215   16.7648 C.3       6 GLY6        0.0000 
     65 CA         29.1807   41.5404   13.9350 C.3       6 GLY6        0.0000 
     66 CA         28.0463   42.1452   14.7079 C.3       6 GLY6        0.0000 
     67 N          26.9119   42.7500   15.4808 N.2       2 ALA2        0.0000 
     68 CA         27.4000   42.5737   13.4239 C.3       6 GLY6        0.0000 
     69 CA         26.2656   43.1785   14.1968 C.3       6 GLY6        0.0000 
     70 CA         30.0517   38.8748   23.1212 C.3       6 GLY6        0.0000 
     71 CA         30.5397   38.6986   21.0643 C.3       6 GLY6        0.0000 
     72 CA         29.4053   39.3033   21.8372 C.3       6 GLY6        0.0000 
     73 CZ         29.8933   39.1271   19.7803 C.ar      5 PHE5        0.0000 
     74 CZ         28.7589   39.7319   20.5532 C.ar      5 PHE5        0.0000 
     75 CA         32.6501   37.7412   16.1776 C.3       6 GLY6        0.0000 
     76 CA         31.5158   38.3460   16.9505 C.3       6 GLY6        0.0000 
     77 CZ         30.3814   38.9508   17.7234 C.ar      5 PHE5        0.0000 
     78 CZ         28.1126   40.1604   19.2693 C.ar      5 PHE5        0.0000 
     79 CZ         29.7350   39.3793   16.4395 C.ar      5 PHE5        0.0000 
     80 CZ         28.6006   39.9841   17.2124 C.ar      5 PHE5        0.0000 
     81 CZ         27.4662   40.5889   17.9853 C.ar      5 PHE5        0.0000 
     82 CA         26.3318   41.1937   18.7582 C.3       6 GLY6        0.0000 
     83 N          29.0886   39.8078   15.1555 N.2       2 ALA2        0.0000 
     84 CZ         27.9542   40.4126   15.9284 C.ar      5 PHE5        0.0000 
     85 N          26.8198   41.0174   16.7013 N.2       2 ALA2        0.0000 
     86 N          25.6854   41.6222   17.4742 N.2       2 ALA2        0.0000 
     87 N          28.4423   40.2363   13.8715 N.2       2 ALA2        0.0000 
     88 N          26.1735   41.4459   15.4173 N.2       2 ALA2        0.0000 
@<TRIPOS>BOND
@<TRIPOS>SUBSTRUCTURE
     1 SER1       11 GROUP   
     2 ALA2        3 GROUP   
     3 ASP3        1 GROUP   
     4 LYS4        4 GROUP   
     5 PHE5        2 GROUP   
     6 GLY6       16 GROUP   
     7 CUB7       59 GROUP   
@<TRIPOS>SET

