#    Name: 2wb5_VGB_1_INTS_M
#    Modification time : Tue Mar 25 03:52:35 2014

@<TRIPOS>MOLECULE
2wb5_VGB_1_INTS_M
   82     0     9     0     0
SMALL
NO_CHARGES


@<TRIPOS>ATOM
      1 CA         39.0175   41.8610   22.8735 C.3       3 GLC5        0.0000 
      2 CA         37.1180   40.7830   22.4200 C.3       9 GLL5        0.0000 
      3 CA         40.9170   42.9390   23.3270 C.3       6 GLP5        0.0000 
      4 CA         37.4100   39.6850   21.1805 C.3       3 GLC5        0.0000 
      5 CA         37.7020   38.5870   19.9410 C.3       6 GLP5        0.0000 
      6 CA         37.0010   39.1665   22.7000 C.3       3 GLC5        0.0000 
      7 CA         36.8840   37.5500   22.9800 C.3       6 GLP5        0.0000 
      8 CA         37.0280   41.3565   24.1365 C.3       3 GLC5        0.0000 
      9 CA         36.9380   41.9300   25.8530 C.3       6 GLP5        0.0000 
     10 CA         37.0390   42.9920   20.4855 C.3       3 GLC5        0.0000 
     11 CA         36.3730   41.9840   21.8530 C.3       9 GLL5        0.0000 
     12 CA         37.7050   44.0000   19.1180 C.3       6 GLP5        0.0000 
     13 CA         36.3765   40.3560   20.7025 C.3       3 GLC5        0.0000 
     14 CA         36.3800   38.7280   19.5520 C.3       6 GLP5        0.0000 
     15 CA         35.9725   42.1095   23.7355 C.3       3 GLC5        0.0000 
     16 CA         35.5720   42.2350   25.6180 C.3       6 GLP5        0.0000 
     17 N          33.6655   39.6125   22.9300 N.am      2 SEC2        0.0000 
     18 N          34.1940   40.8890   22.2620 N.am      8 SEL2        0.0000 
     19 N          33.1370   38.3360   23.5980 N.am      5 SEP2        0.0000 
     20 O          35.1065   43.8800   20.8870 O.2       1 ALC1        0.0000 
     21 O          34.2570   42.9020   21.2500 O.2       7 ALL1        0.0000 
     22 O          35.9560   44.8580   20.5240 O.2       4 ALP1        0.0000 
     23 CA         33.2085   45.0815   20.9545 C.3       3 GLC5        0.0000 
     24 CA         32.7940   43.0210   21.1110 C.3       9 GLL5        0.0000 
     25 CA         33.6230   47.1420   20.7980 C.3       6 GLP5        0.0000 
     26 CA         33.6470   43.3540   23.8685 C.3       3 GLC5        0.0000 
     27 CA         32.1550   43.1900   22.4710 C.3       9 GLL5        0.0000 
     28 CA         35.1390   43.5180   25.2660 C.3       6 GLP5        0.0000 
     29 N          33.2770   45.6330   22.3790 N.am      2 SEC2        0.0000 
     30 N          32.2030   44.5760   22.7320 N.am      8 SEL2        0.0000 
     31 N          34.3510   46.6900   22.0260 N.am      5 SEP2        0.0000 
     32 O          32.2005   45.2390   23.8215 O.2       1 ALC1        0.0000 
     33 O          32.2030   44.5760   22.7320 O.2       7 ALL1        0.0000 
     34 O          32.1980   45.9020   24.9110 O.2       4 ALP1        0.0000 
     35 CA         29.7910   44.2620   21.6025 C.3       3 GLC5        0.0000 
     36 CA         30.7170   42.6680   22.4770 C.3       9 GLL5        0.0000 
     37 CA         28.8650   45.8560   20.7280 C.3       6 GLP5        0.0000 
     38 N          30.8420   42.5440   25.0810 N.am      2 SEC2        0.0000 
     39 N          30.1570   42.9940   23.7540 N.am      8 SEL2        0.0000 
     40 N          31.5270   42.0940   26.4080 N.am      5 SEP2        0.0000 
     41 O          28.9740   43.3625   23.7150 O.2       1 ALC1        0.0000 
     42 O          30.1570   42.9940   23.7540 O.2       7 ALL1        0.0000 
     43 O          27.7910   43.7310   23.6760 O.2       4 ALP1        0.0000 
     44 CA         29.5150   38.1330   22.5755 C.3       3 GLC5        0.0000 
     45 CA         29.4770   40.3640   22.4840 C.3       9 GLL5        0.0000 
     46 CA         29.5530   35.9020   22.6670 C.3       6 GLP5        0.0000 
     47 CA         27.7905   39.4620   22.7575 C.3       3 GLC5        0.0000 
     48 CA         26.1040   38.5600   23.0310 C.3       6 GLP5        0.0000 
     49 O          27.5535   41.4670   22.5040 O.2       1 ALC1        0.0000 
     50 O          28.4160   41.0020   21.8070 O.2       7 ALL1        0.0000 
     51 O          26.6910   41.9320   23.2010 O.2       4 ALP1        0.0000 
     52 O          28.1035   42.3665   22.7415 O.2       1 ALC1        0.0000 
     53 CA         32.4085   39.7255   20.2240 C.3       3 GLC5        0.0000 
     54 CA         32.1570   41.8780   20.3130 C.3       9 GLL5        0.0000 
     55 CA         32.6600   37.5730   20.1350 C.3       6 GLP5        0.0000 
     56 O          33.1130   42.2420   18.1675 O.2       1 ALC1        0.0000 
     57 O          32.2980   41.5580   19.0520 O.2       7 ALL1        0.0000 
     58 O          33.9280   42.9260   17.2830 O.2       4 ALP1        0.0000 
     59 CA         32.0440   38.7085   18.7765 C.3       3 GLC5        0.0000 
     60 CA         31.4280   39.8440   17.4180 C.3       9 GLL5        0.0000 
     61 CA         29.7575   38.7790   18.0855 C.3       3 GLC5        0.0000 
     62 CA         28.0870   37.7140   18.7530 C.3       6 GLP5        0.0000 
     63 CA         31.2070   41.7585   14.3265 C.3       3 GLC5        0.0000 
     64 CA         31.2930   40.8880   16.3130 C.3       9 GLL5        0.0000 
     65 CA         31.1210   42.6290   12.3400 C.3       6 GLP5        0.0000 
     66 CA         29.0530   39.0500   14.2320 C.3       3 GLC5        0.0000 
     67 CA         28.8390   40.6370   15.7040 C.3       9 GLL5        0.0000 
     68 CA         29.2670   37.4630   12.7600 C.3       6 GLP5        0.0000 
     69 CA         31.1832   44.4162   20.8080 C.3       3 GLC5        0.0000 
     70 CA         29.8920   45.7270   19.8250 C.3       6 GLP5        0.0000 
     71 CA         31.9072   38.9738   19.7368 C.3       3 GLC5        0.0000 
     72 CA         30.8100   40.2080   19.8900 C.3       9 GLL5        0.0000 
     73 CA         30.0287   42.9997   14.6185 C.3       3 GLC5        0.0000 
     74 CA         29.8640   41.4530   16.1900 C.3       9 GLL5        0.0000 
     75 CA         30.3230   43.8810   12.8710 C.3       6 GLP5        0.0000 
     76 CA         26.2950   41.9213   13.8507 C.3       3 GLC5        0.0000 
     77 CA         27.3130   42.4690   15.8980 C.3       9 GLL5        0.0000 
     78 CA         25.1570   42.0360   11.9780 C.3       6 GLP5        0.0000 
     79 CA         29.0708   43.3815   14.5080 C.3       3 GLC5        0.0000 
     80 CA         26.8343   44.2750   17.0755 C.3       3 GLC5        0.0000 
     81 CA         28.3240   43.2950   16.3920 C.3       9 GLL5        0.0000 
     82 CA         25.8500   45.6680   18.0060 C.3       6 GLP5        0.0000 
@<TRIPOS>BOND
@<TRIPOS>SUBSTRUCTURE
     1 ALC1       20 GROUP        1 X    ALC  0     ROOT ALC X 1
     2 SEC2       17 GROUP        1 X    SEC  0     **** SEC X 2
     3 GLC5        1 GROUP        1 X    GLC  0     **** GLC X 6
     4 ALP1       22 GROUP        1 Y    ALP  0     ROOT ALP Y 8
     5 SEP2       19 GROUP        1 Y    SEP  0     **** SEP Y 9
     6 GLP5        3 GROUP        1 Y    GLP  0     **** GLP Y 13
     7 ALL1       21 GROUP        1 Z    ALL  0     ROOT ALL Z 15
     8 SEL2       18 GROUP        1 Z    SEL  0     **** SEL Z 16
     9 GLL5        2 GROUP        1 Z    GLL  0     **** GLL Z 20
@<TRIPOS>SET

