#    Name: 2wb5_VGB_1_ligand
#    Modification time : Tue Mar 25 03:52:35 2014

@<TRIPOS>MOLECULE
2wb5_VGB_1_ligand
   52    54     1     0     0
SMALL
NO_CHARGES


@<TRIPOS>ATOM
      1 CBA        37.1180   40.7830   22.4200 C.3       1 VGB1628     0.0000 
      2 CAN        36.3730   41.9840   21.8530 C.3       1 VGB1628     0.0000 
      3 CAL        34.8300   41.8550   21.8190 C.2       1 VGB1628     0.0000 
      4 OAM        34.1940   40.8890   22.2620 O.2       1 VGB1628     0.0000 
      5 NAK        34.2570   42.9020   21.2500 N.am      1 VGB1628     0.0000 
      6 CAC        32.7940   43.0210   21.1110 C.3       1 VGB1628     0.0000 
      7 CAB        32.1550   43.1900   22.4710 C.3       1 VGB1628     0.0000 
      8 OAG        32.2030   44.5760   22.7320 O.3       1 VGB1628     0.0000 
      9 CAA        30.7170   42.6680   22.4770 C.3       1 VGB1628     0.0000 
     10 OAH        30.1570   42.9940   23.7540 O.3       1 VGB1628     0.0000 
     11 CAF        30.7730   41.1640   22.2490 C.3       1 VGB1628     0.0000 
     12 CAI        29.4770   40.3640   22.4840 C.3       1 VGB1628     0.0000 
     13 OAJ        28.4160   41.0020   21.8070 O.3       1 VGB1628     0.0000 
     14 NAE        31.1810   41.0250   20.8510 N.pl3     1 VGB1628     0.0000 
     15 CAQ        30.8100   40.2080   19.8900 C.2       1 VGB1628     0.0000 
     16 CAD        32.1570   41.8780   20.3130 C.2       1 VGB1628     0.0000 
     17 NAO        32.2980   41.5580   19.0520 N.pl3     1 VGB1628     0.0000 
     18 CAP        31.4990   40.5410   18.7870 C.2       1 VGB1628     0.0000 
     19 CAR        31.4280   39.8440   17.4180 C.3       1 VGB1628     0.0000 
     20 CAS        31.2930   40.8880   16.3130 C.3       1 VGB1628     0.0000 
     21 CAT        29.8640   41.4530   16.1900 C.ar      1 VGB1628     0.0000 
     22 CAU        28.8390   40.6370   15.7040 C.ar      1 VGB1628     0.0000 
     23 CAV        27.5530   41.1440   15.5490 C.ar      1 VGB1628     0.0000 
     24 CAW        27.3130   42.4690   15.8980 C.ar      1 VGB1628     0.0000 
     25 CAX        28.3240   43.2950   16.3920 C.ar      1 VGB1628     0.0000 
     26 CAY        29.6050   42.7840   16.5420 C.ar      1 VGB1628     0.0000 
     27 H          36.7262   42.1776   20.8214 H         1 VGB1628     0.0000 
     28 H          36.6313   42.8845   22.4435 H         1 VGB1628     0.0000 
     29 H          34.8029   43.7051   20.8660 H         1 VGB1628     0.0000 
     30 H          32.5806   43.9626   20.5456 H         1 VGB1628     0.0000 
     31 H          32.7352   42.6360   23.1840 H         1 VGB1628     0.0000 
     32 H          30.1959   43.1303   21.6746 H         1 VGB1628     0.0000 
     33 H          31.5633   40.7528   22.8717 H         1 VGB1628     0.0000 
     34 H          29.3161   40.3179   23.5649 H         1 VGB1628     0.0000 
     35 H          29.6535   39.3473   22.1213 H         1 VGB1628     0.0000 
     36 H          30.1604   39.4922   19.9501 H         1 VGB1628     0.0000 
     37 H          32.8935   41.9947   18.4083 H         1 VGB1628     0.0000 
     38 H          30.5690   39.1840   17.4004 H         1 VGB1628     0.0000 
     39 H          32.3337   39.2694   17.2655 H         1 VGB1628     0.0000 
     40 H          31.5770   40.4389   15.3535 H         1 VGB1628     0.0000 
     41 H          31.9827   41.7172   16.5117 H         1 VGB1628     0.0000 
     42 H          29.0392   39.6575   15.4606 H         1 VGB1628     0.0000 
     43 H          26.8030   40.5576   15.1876 H         1 VGB1628     0.0000 
     44 H          26.3541   42.8571   15.7886 H         1 VGB1628     0.0000 
     45 H          28.1186   44.2660   16.6396 H         1 VGB1628     0.0000 
     46 H          30.3606   43.3710   16.9071 H         1 VGB1628     0.0000 
     47 H          38.1081   40.9236   22.4144 H         1 VGB1628     0.0000 
     48 H          36.8540   40.5950   23.3660 H         1 VGB1628     0.0000 
     49 H          36.9370   39.9517   21.8944 H         1 VGB1628     0.0000 
     50 H          32.2118   44.6513   23.7291 H         1 VGB1628     0.0000 
     51 H          29.4597   43.6847   23.5621 H         1 VGB1628     0.0000 
     52 H          28.1203   41.7338   22.4210 H         1 VGB1628     0.0000 
@<TRIPOS>BOND
     1    2    1 1    
     2   47    1 1    
     3   48    1 1    
     4   49    1 1    
     5    3    2 1    
     6   27    2 1    
     7   28    2 1    
     8    4    3 2    
     9    5    3 am   
    10    6    5 1    
    11   29    5 1    
    12    7    6 1    
    13   16    6 1    
    14   30    6 1    
    15    8    7 1    
    16    9    7 1    
    17   31    7 1    
    18   50    8 1    
    19   10    9 1    
    20   11    9 1    
    21   32    9 1    
    22   51   10 1    
    23   12   11 1    
    24   14   11 1    
    25   33   11 1    
    26   13   12 1    
    27   34   12 1    
    28   35   12 1    
    29   52   13 1    
    30   15   14 1    
    31   16   14 1    
    32   18   15 2    
    33   36   15 1    
    34   17   16 2    
    35   18   17 1    
    36   37   17 1    
    37   19   18 1    
    38   20   19 1    
    39   38   19 1    
    40   39   19 1    
    41   21   20 1    
    42   40   20 1    
    43   41   20 1    
    44   22   21 ar   
    45   26   21 ar   
    46   23   22 ar   
    47   42   22 1    
    48   24   23 ar   
    49   43   23 1    
    50   25   24 ar   
    51   44   24 1    
    52   26   25 ar   
    53   45   25 1    
    54   46   26 1    
@<TRIPOS>SUBSTRUCTURE
     1 VGB1628     1 GROUP   
@<TRIPOS>SET

