#    Name: 2xhx_T5M_1_INTS_M
#    Modification time : Tue Mar 25 06:01:36 2014

@<TRIPOS>MOLECULE
2xhx_T5M_1_INTS_M
   59     0     6     0     0
SMALL
NO_CHARGES


@<TRIPOS>ATOM
      1 CA         15.9300    1.7045   10.7755 C.3       2 GLC5        0.0000 
      2 CA         14.4960    0.2930   10.6960 C.3       6 GLL5        0.0000 
      3 CA         17.3640    3.1160   10.8550 C.3       4 GLP5        0.0000 
      4 CA         15.8625    0.1275   12.1820 C.3       2 GLC5        0.0000 
      5 CA         17.2290   -0.0380   13.6680 C.3       4 GLP5        0.0000 
      6 CA         13.9625   -0.4475   12.5865 C.3       2 GLC5        0.0000 
      7 CA         13.4290   -1.1880   14.4770 C.3       4 GLP5        0.0000 
      8 CA         17.2575   -1.9870    8.8725 C.3       2 GLC5        0.0000 
      9 CA         15.3730   -2.7250    9.0530 C.3       6 GLL5        0.0000 
     10 CA         19.1420   -1.2490    8.6920 C.3       4 GLP5        0.0000 
     11 N          17.6705   -4.7725   10.6990 N.am      1 SEC2        0.0000 
     12 N          17.3400   -5.5640    9.2570 N.am      5 SEL2        0.0000 
     13 N          18.0010   -3.9810   12.1410 N.am      3 SEP2        0.0000 
     14 CA         16.7305   -6.4400    7.1795 C.3       2 GLC5        0.0000 
     15 CA         18.0480   -4.9270    6.5190 C.3       6 GLL5        0.0000 
     16 CA         15.4130   -7.9530    7.8400 C.3       4 GLP5        0.0000 
     17 CA         19.2970   -5.8180    8.0925 C.3       2 GLC5        0.0000 
     18 CA         20.5460   -6.7090    9.6660 C.3       4 GLP5        0.0000 
     19 CA         19.0960   -3.8035    7.3895 C.3       2 GLC5        0.0000 
     20 CA         20.1440   -2.6800    8.2600 C.3       4 GLP5        0.0000 
     21 CA         17.7505   -8.3080    2.8410 C.3       2 GLC5        0.0000 
     22 CA         17.6030   -6.3020    2.9620 C.3       6 GLL5        0.0000 
     23 CA         17.8980  -10.3140    2.7200 C.3       4 GLP5        0.0000 
     24 CA         13.5765   -3.8875    6.8405 C.3       2 GLC5        0.0000 
     25 CA         15.6570   -4.5210    6.3000 C.3       6 GLL5        0.0000 
     26 CA         11.4960   -3.2540    7.3810 C.3       4 GLP5        0.0000 
     27 CA         15.5350   -6.2370    7.0700 C.3       2 GLC5        0.0000 
     28 CA         17.1905   -0.6265    8.5225 C.3       2 GLC5        0.0000 
     29 CA         15.2390   -0.0040    8.3530 C.3       6 GLL5        0.0000 
     30 CA         15.5560    2.0420    8.7170 C.3       2 GLC5        0.0000 
     31 CA         15.8730    4.0880    9.0810 C.3       4 GLP5        0.0000 
     32 CA         13.4430   -1.9480   12.4805 C.3       2 GLC5        0.0000 
     33 CA         13.4570   -2.7080   10.4840 C.3       6 GLL5        0.0000 
     34 CA         12.5118   -1.7757    8.2698 C.3       2 GLC5        0.0000 
     35 CA         12.8260   -0.1170    8.9130 C.3       6 GLL5        0.0000 
     36 CA         13.0811    1.5016   10.2843 C.3       2 GLC5        0.0000 
     37 CA         12.5680    3.1080   11.0870 C.3       4 GLP5        0.0000 
     38 CA         15.2417   -6.1860    8.7517 C.3       2 GLC5        0.0000 
     39 CA         14.6250   -4.7510   10.0720 C.3       6 GLL5        0.0000 
     40 CA         16.0302   -4.5345   11.2843 C.3       2 GLC5        0.0000 
     41 CA         16.9900   -4.6500   12.9050 C.3       4 GLP5        0.0000 
     42 CA         18.7490   -6.7278    6.0035 C.3       2 GLC5        0.0000 
     43 CA         19.6930   -8.3010    6.1620 C.3       4 GLP5        0.0000 
     44 CA         16.1030   -6.9180    5.7825 C.3       2 GLC5        0.0000 
     45 CA         17.5620   -5.3820    5.1710 C.3       6 GLL5        0.0000 
     46 CA         15.3270   -8.5690    6.4550 C.3       4 GLP5        0.0000 
     47 CA         18.8128   -7.2152    4.8515 C.3       2 GLC5        0.0000 
     48 CA         18.2620   -5.9570    4.1200 C.3       6 GLL5        0.0000 
     49 CA         14.0627   -6.3483    3.4688 C.3       2 GLC5        0.0000 
     50 CA         16.2430   -6.0740    2.8420 C.3       6 GLL5        0.0000 
     51 CA         12.2330   -6.9090    3.5760 C.3       4 GLP5        0.0000 
     52 CA         15.6098   -7.1783    4.9083 C.3       2 GLC5        0.0000 
     53 CA         15.5420   -5.5010    3.8810 C.3       6 GLL5        0.0000 
     54 CA         12.9797   -5.8770    9.8632 C.3       2 GLC5        0.0000 
     55 CA         13.6060   -4.0690   10.6810 C.3       6 GLL5        0.0000 
     56 CA         11.8440   -7.3440    9.3500 C.3       4 GLP5        0.0000 
     57 CA         14.8924   -3.4101   11.9336 C.3       2 GLC5        0.0000 
     58 CA         16.0300   -3.6090   13.4930 C.3       4 GLP5        0.0000 
     59 CA         12.8167   -3.3632    8.7641 C.3       2 GLC5        0.0000 
@<TRIPOS>BOND
@<TRIPOS>SUBSTRUCTURE
     1 SEC2       11 GROUP        1 X    SEC  0     ROOT SEC X 2
     2 GLC5        1 GROUP        1 X    GLC  0     **** GLC X 6
     3 SEP2       13 GROUP        1 Y    SEP  0     ROOT SEP Y 9
     4 GLP5        3 GROUP        1 Y    GLP  0     **** GLP Y 13
     5 SEL2       12 GROUP        1 Z    SEL  0     ROOT SEL Z 16
     6 GLL5        2 GROUP        1 Z    GLL  0     **** GLL Z 20
@<TRIPOS>SET

