#    Name: 2xhx_T5M_1_ligand
#    Modification time : Tue Mar 25 06:01:36 2014

@<TRIPOS>MOLECULE
2xhx_T5M_1_ligand
   43    45     1     0     0
SMALL
NO_CHARGES


@<TRIPOS>ATOM
      1 C1         14.4960    0.2930   10.6960 C.3       1 T5M1224     0.0000 
      2 C2         14.2290   -0.4780    9.4040 C.3       1 T5M1224     0.0000 
      3 C3         12.8260   -0.1170    8.9130 C.3       1 T5M1224     0.0000 
      4 C4         14.3500   -1.9990    9.6510 C.ar      1 T5M1224     0.0000 
      5 C5         15.3730   -2.7250    9.0530 C.ar      1 T5M1224     0.0000 
      6 C6         15.5160   -4.0870    9.2550 C.ar      1 T5M1224     0.0000 
      7 C7         16.6230   -4.8290    8.5900 C.2       1 T5M1224     0.0000 
      8 O8         17.3400   -5.5640    9.2570 O.2       1 T5M1224     0.0000 
      9 N9         16.7870   -4.6610    7.2330 N.am      1 T5M1224     0.0000 
     10 C10        18.0480   -4.9270    6.5190 C.3       1 T5M1224     0.0000 
     11 C11        17.5620   -5.3820    5.1710 C.ar      1 T5M1224     0.0000 
     12 C12        18.2620   -5.9570    4.1200 C.ar      1 T5M1224     0.0000 
     13 C13        17.6030   -6.3020    2.9620 C.ar      1 T5M1224     0.0000 
     14 C14        16.2430   -6.0740    2.8420 C.ar      1 T5M1224     0.0000 
     15 C15        15.5420   -5.5010    3.8810 C.ar      1 T5M1224     0.0000 
     16 C16        16.1960   -5.1520    5.0490 C.ar      1 T5M1224     0.0000 
     17 C17        15.6570   -4.5210    6.3000 C.3       1 T5M1224     0.0000 
     18 C18        14.6250   -4.7510   10.0720 C.ar      1 T5M1224     0.0000 
     19 C20        13.6060   -4.0690   10.6810 C.ar      1 T5M1224     0.0000 
     20 C19        15.2390   -0.0040    8.3530 C.3       1 T5M1224     0.0000 
     21 C21        13.4570   -2.7080   10.4840 C.ar      1 T5M1224     0.0000 
     22 O22        12.4260   -2.0770   11.1130 O.3       1 T5M1224     0.0000 
     23 H          16.0501   -2.2282    8.4358 H         1 T5M1224     0.0000 
     24 H          18.5917   -5.7119    6.9875 H         1 T5M1224     0.0000 
     25 H          18.6193   -4.0362    6.4120 H         1 T5M1224     0.0000 
     26 H          19.2753   -6.1237    4.2114 H         1 T5M1224     0.0000 
     27 H          18.1211   -6.7320    2.1790 H         1 T5M1224     0.0000 
     28 H          15.7546   -6.3350    1.9702 H         1 T5M1224     0.0000 
     29 H          14.5282   -5.3311    3.7900 H         1 T5M1224     0.0000 
     30 H          15.4381   -3.4955    6.1194 H         1 T5M1224     0.0000 
     31 H          14.8112   -5.0682    6.6425 H         1 T5M1224     0.0000 
     32 H          14.7311   -5.7703   10.2226 H         1 T5M1224     0.0000 
     33 H          12.9384   -4.5702   11.2950 H         1 T5M1224     0.0000 
     34 H          15.4026    0.0928   11.0674 H         1 T5M1224     0.0000 
     35 H          14.4489    1.2819   10.5549 H         1 T5M1224     0.0000 
     36 H          13.8311    0.0665   11.4078 H         1 T5M1224     0.0000 
     37 H          12.7375    0.8618    8.7285 H         1 T5M1224     0.0000 
     38 H          12.5937   -0.5969    8.0670 H         1 T5M1224     0.0000 
     39 H          12.1249   -0.3530    9.5859 H         1 T5M1224     0.0000 
     40 H          16.1818   -0.1653    8.6447 H         1 T5M1224     0.0000 
     41 H          15.1170   -0.4774    7.4806 H         1 T5M1224     0.0000 
     42 H          15.1523    0.9752    8.1697 H         1 T5M1224     0.0000 
     43 H          11.6723   -2.7340   11.0971 H         1 T5M1224     0.0000 
@<TRIPOS>BOND
     1    2    1 1    
     2   34    1 1    
     3   35    1 1    
     4   36    1 1    
     5    3    2 1    
     6    4    2 1    
     7   20    2 1    
     8   37    3 1    
     9   38    3 1    
    10   39    3 1    
    11    5    4 ar   
    12   21    4 ar   
    13    6    5 ar   
    14   23    5 1    
    15    7    6 1    
    16   18    6 ar   
    17    8    7 2    
    18    9    7 am   
    19   10    9 1    
    20   17    9 1    
    21   11   10 1    
    22   24   10 1    
    23   25   10 1    
    24   12   11 ar   
    25   16   11 ar   
    26   13   12 ar   
    27   26   12 1    
    28   14   13 ar   
    29   27   13 1    
    30   15   14 ar   
    31   28   14 1    
    32   16   15 ar   
    33   29   15 1    
    34   17   16 1    
    35   30   17 1    
    36   31   17 1    
    37   19   18 ar   
    38   32   18 1    
    39   21   19 ar   
    40   33   19 1    
    41   40   20 1    
    42   41   20 1    
    43   42   20 1    
    44   22   21 1    
    45   43   22 1    
@<TRIPOS>SUBSTRUCTURE
     1 T5M1224     1 GROUP   
@<TRIPOS>SET

