#    Name: 2dpx_GDP_1_INTS_M
#    Modification time : Tue Mar 25 10:12:43 2014

@<TRIPOS>MOLECULE
2dpx_GDP_1_INTS_M
   69     0    15     0     0
SMALL
NO_CHARGES


@<TRIPOS>ATOM
      1 NZ         15.0985    8.1495   22.4290 N.4       3 LYC4        0.0000 
      2 NZ         14.2360    7.8460   24.1160 N.4      13 LYL4        0.0000 
      3 NZ         15.9610    8.4530   20.7420 N.4       8 LYP4        0.0000 
      4 N          13.1945    7.1945   23.3410 N.am      2 SEC2        0.0000 
      5 N          14.2360    7.8460   24.1160 N.am     12 SEL2        0.0000 
      6 N          12.1530    6.5430   22.5660 N.am      7 SEP2        0.0000 
      7 NZ         15.8955    7.5255   21.7430 N.4       3 LYC4        0.0000 
      8 NZ         15.8300    6.5980   22.7440 N.4      13 LYL4        0.0000 
      9 N          15.9455    5.0685   22.9905 N.am      2 SEC2        0.0000 
     10 N          15.8300    6.5980   22.7440 N.am     12 SEL2        0.0000 
     11 N          16.0610    3.5390   23.2370 N.am      7 SEP2        0.0000 
     12 N          17.0875    5.8685   22.9475 N.am      2 SEC2        0.0000 
     13 N          18.3450    5.1390   23.1510 N.am      7 SEP2        0.0000 
     14 N          15.8955    7.5255   21.7430 N.am      2 SEC2        0.0000 
     15 N          15.9610    8.4530   20.7420 N.am      7 SEP2        0.0000 
     16 Zn         16.7045    8.8295   25.0715 Zn        4 ZIC7        0.0000 
     17 Zn         16.5870    7.8510   24.7130 Zn       14 ZIL7        0.0000 
     18 Zn         16.8220    9.8080   25.4300 Zn        9 ZIP7        0.0000 
     19 N          17.9795    7.4100   24.8970 N.am      2 SEC2        0.0000 
     20 N          16.5870    7.8510   24.7130 N.am     12 SEL2        0.0000 
     21 N          19.3720    6.9690   25.0810 N.am      7 SEP2        0.0000 
     22 N          15.6490    4.6435   24.1235 N.am      2 SEC2        0.0000 
     23 N          15.2370    5.7480   25.0100 N.am     12 SEL2        0.0000 
     24 N          18.2605    5.2615   27.0485 N.am      2 SEC2        0.0000 
     25 N          16.8500    5.3550   26.9470 N.am     12 SEL2        0.0000 
     26 N          19.6710    5.1680   27.1500 N.am      7 SEP2        0.0000 
     27 CA         12.5710    4.7260   24.8875 C.3       5 GLC5        0.0000 
     28 CA         13.2840    4.1660   26.5450 C.3      15 GLL5        0.0000 
     29 CA         11.8580    5.2860   23.2300 C.3      10 GLP5        0.0000 
     30 CA         12.9930    1.4415   25.7180 C.3       5 GLC5        0.0000 
     31 CA         12.6030    3.0050   27.2770 C.3      15 GLL5        0.0000 
     32 CA         13.3830   -0.1220   24.1590 C.3      10 GLP5        0.0000 
     33 N          12.5445    1.0620   25.5835 N.am      2 SEC2        0.0000 
     34 N          13.0950    1.7440   26.7910 N.am     12 SEL2        0.0000 
     35 N          11.9940    0.3800   24.3760 N.am      7 SEP2        0.0000 
     36 CA         11.1495    3.2440   30.1435 C.3       5 GLC5        0.0000 
     37 CA         12.8580    2.9890   28.7850 C.3      15 GLL5        0.0000 
     38 CA          9.4410    3.4990   31.5020 C.3      10 GLP5        0.0000 
     39 N          13.2380    0.2905   30.6710 N.am      2 SEC2        0.0000 
     40 N          14.0380    1.4630   30.2580 N.am     12 SEL2        0.0000 
     41 N          12.4380   -0.8820   31.0840 N.am      7 SEP2        0.0000 
     42 CA         13.5615    0.4550   26.0265 C.3       5 GLC5        0.0000 
     43 CA         13.7400    1.0320   27.8940 C.3      15 GLL5        0.0000 
     44 N          17.4230   -0.0935   24.8835 N.am      2 SEC2        0.0000 
     45 N          16.8470    0.0120   26.2400 N.am     12 SEL2        0.0000 
     46 N          17.9990   -0.1990   23.5270 N.am      7 SEP2        0.0000 
     47 CA         15.5790   -1.6645   25.0935 C.3       5 GLC5        0.0000 
     48 CA         16.3440   -1.1820   26.6550 C.3      15 GLL5        0.0000 
     49 CA         14.8140   -2.1470   23.5320 C.3      10 GLP5        0.0000 
     50 CA         18.2720   -0.8495   26.8705 C.3       5 GLC5        0.0000 
     51 CA         20.2000   -0.5170   27.0860 C.3      10 GLP5        0.0000 
     52 N          19.0995   -2.8470   26.0875 N.am      2 SEC2        0.0000 
     53 N          17.7970   -2.8640   25.9340 N.am     12 SEL2        0.0000 
     54 N          20.4020   -2.8300   26.2410 N.am      7 SEP2        0.0000 
     55 N          18.6090   -3.0680   27.2940 N.am      2 SEC2        0.0000 
     56 N          19.4210   -3.2720   28.6540 N.am      7 SEP2        0.0000 
     57 O          16.2670   -4.8250   26.7495 O.2       1 ALC1        0.0000 
     58 O          15.9560   -3.5570   27.1180 O.2      11 ALL1        0.0000 
     59 O          16.5780   -6.0930   26.3810 O.2       6 ALP1        0.0000 
     60 O          15.6795   -5.1355   27.6210 O.2       1 ALC1        0.0000 
     61 O          15.4030   -6.7140   28.1240 O.2       6 ALP1        0.0000 
     62 O          14.7165   -5.4355   28.2435 O.2       1 ALC1        0.0000 
     63 O          14.0300   -4.1570   28.3630 O.2      11 ALL1        0.0000 
     64 O          13.4035   -3.9315   29.6530 O.2       1 ALC1        0.0000 
     65 O          12.7770   -3.7060   30.9430 O.2       6 ALP1        0.0000 
     66 CA         14.2455   -0.5185   25.7605 C.3       5 GLC5        0.0000 
     67 CA         15.1080   -0.9150   27.3620 C.3      15 GLL5        0.0000 
     68 CA         15.4115   -1.3615   29.5025 C.3       5 GLC5        0.0000 
     69 CA         15.7150   -1.8080   31.6430 C.3      10 GLP5        0.0000 
@<TRIPOS>BOND
@<TRIPOS>SUBSTRUCTURE
     1 ALC1       57 GROUP        1 X    ALC  0     ROOT ALC X 1
     2 SEC2        4 GROUP        1 X    SEC  0     **** SEC X 2
     3 LYC4        1 GROUP        1 X    LYC  0     **** LYC X 4
     4 ZIC7       16 GROUP        1 X    ZIC  0     **** ZIC X 5
     5 GLC5       27 GROUP        1 X    GLC  0     **** GLC X 6
     6 ALP1       59 GROUP        1 Y    ALP  0     ROOT ALP Y 8
     7 SEP2        6 GROUP        1 Y    SEP  0     **** SEP Y 9
     8 LYP4        3 GROUP        1 Y    LYP  0     **** LYP Y 11
     9 ZIP7       18 GROUP        1 Y    ZIP  0     **** ZIP Y 12
    10 GLP5       29 GROUP        1 Y    GLP  0     **** GLP Y 13
    11 ALL1       58 GROUP        1 Z    ALL  0     ROOT ALL Z 15
    12 SEL2        5 GROUP        1 Z    SEL  0     **** SEL Z 16
    13 LYL4        2 GROUP        1 Z    LYL  0     **** LYL Z 18
    14 ZIL7       17 GROUP        1 Z    ZIL  0     **** ZIL Z 19
    15 GLL5       28 GROUP        1 Z    GLL  0     **** GLL Z 20
@<TRIPOS>SET

