#    Name: 2dpx_GDP_1_ligand
#    Modification time : Tue Mar 25 10:12:43 2014

@<TRIPOS>MOLECULE
2dpx_GDP_1_ligand
   40    42     1     0     0
SMALL
NO_CHARGES


@<TRIPOS>ATOM
      1 PB         15.4780    7.0930   24.1470 P.3       1 GDP500      0.0000 
      2 O1B        14.2360    7.8460   24.1160 O.co2     1 GDP500      0.0000 
      3 O2B        15.8300    6.5980   22.7440 O.co2     1 GDP500      0.0000 
      4 O3B        16.5870    7.8510   24.7130 O.co2     1 GDP500      0.0000 
      5 O3A        15.2370    5.7480   25.0100 O.3       1 GDP500      0.0000 
      6 PA         15.4270    5.6020   26.6000 P.3       1 GDP500      0.0000 
      7 O1A        16.8500    5.3550   26.9470 O.co2     1 GDP500      0.0000 
      8 O2A        14.8630    6.8280   27.3260 O.co2     1 GDP500      0.0000 
      9 O5'        14.6190    4.3080   26.9910 O.3       1 GDP500      0.0000 
     10 C5'        13.2840    4.1660   26.5450 C.3       1 GDP500      0.0000 
     11 C4'        12.6030    3.0050   27.2770 C.3       1 GDP500      0.0000 
     12 O4'        13.0950    1.7440   26.7910 O.3       1 GDP500      0.0000 
     13 C3'        12.8580    2.9890   28.7850 C.3       1 GDP500      0.0000 
     14 O3'        11.6080    2.5440   29.3460 O.3       1 GDP500      0.0000 
     15 C2'        14.0430    2.0600   28.9600 C.3       1 GDP500      0.0000 
     16 O2'        14.0380    1.4630   30.2580 O.3       1 GDP500      0.0000 
     17 C1'        13.7400    1.0320   27.8940 C.3       1 GDP500      0.0000 
     18 N9         14.9210    0.3770   27.3260 N.pl3     1 GDP500      0.0000 
     19 C8         15.9650    0.9720   26.6570 C.2       1 GDP500      0.0000 
     20 N7         16.8470    0.0120   26.2400 N.2       1 GDP500      0.0000 
     21 C5         16.3440   -1.1820   26.6550 C.2       1 GDP500      0.0000 
     22 C6         16.7530   -2.5850   26.5400 C.2       1 GDP500      0.0000 
     23 O6         17.7970   -2.8640   25.9340 O.2       1 GDP500      0.0000 
     24 N1         15.9560   -3.5570   27.1180 N.am      1 GDP500      0.0000 
     25 C2         14.7920   -3.2210   27.7940 C.2       1 GDP500      0.0000 
     26 N2         14.0300   -4.1570   28.3630 N.pl3     1 GDP500      0.0000 
     27 N3         14.3800   -1.9290   27.9030 N.2       1 GDP500      0.0000 
     28 C4         15.1080   -0.9150   27.3620 C.2       1 GDP500      0.0000 
     29 H          13.2278    3.9534   25.4680 H         1 GDP500      0.0000 
     30 H          12.6863    5.0691   26.7337 H         1 GDP500      0.0000 
     31 H          11.5345    3.0657   27.1216 H         1 GDP500      0.0000 
     32 H          13.1126    3.9747   29.0651 H         1 GDP500      0.0000 
     33 H          14.9157    2.5697   28.7056 H         1 GDP500      0.0000 
     34 H          13.0527    0.3063   28.2844 H         1 GDP500      0.0000 
     35 H          16.0579    1.9196   26.5068 H         1 GDP500      0.0000 
     36 H          16.2321   -4.5548   27.0456 H         1 GDP500      0.0000 
     37 H          13.2208   -3.8291   28.8506 H         1 GDP500      0.0000 
     38 H          14.3366   -5.1022   28.2507 H         1 GDP500      0.0000 
     39 H          11.0273    2.3432   28.5570 H         1 GDP500      0.0000 
     40 H          13.0893    1.5258   30.5680 H         1 GDP500      0.0000 
@<TRIPOS>BOND
     1    2    1 ar   
     2    3    1 ar   
     3    4    1 ar   
     4    5    1 1    
     5    6    5 1    
     6    7    6 ar   
     7    8    6 ar   
     8    9    6 1    
     9   10    9 1    
    10   11   10 1    
    11   29   10 1    
    12   30   10 1    
    13   12   11 1    
    14   13   11 1    
    15   31   11 1    
    16   17   12 1    
    17   14   13 1    
    18   15   13 1    
    19   32   13 1    
    20   39   14 1    
    21   16   15 1    
    22   17   15 1    
    23   33   15 1    
    24   40   16 1    
    25   18   17 1    
    26   34   17 1    
    27   19   18 1    
    28   28   18 1    
    29   20   19 2    
    30   35   19 1    
    31   21   20 1    
    32   22   21 1    
    33   28   21 2    
    34   23   22 2    
    35   24   22 am   
    36   25   24 1    
    37   36   24 1    
    38   26   25 1    
    39   27   25 2    
    40   37   26 1    
    41   38   26 1    
    42   28   27 1    
@<TRIPOS>SUBSTRUCTURE
     1 GDP500      1 GROUP   
@<TRIPOS>SET

