#    Name: 1qrr_UPG_1_INTS_M
#    Modification time : Mon Mar 24 23:52:59 2014

@<TRIPOS>MOLECULE
1qrr_UPG_1_INTS_M
  105     0    12     0     0
SMALL
NO_CHARGES


@<TRIPOS>ATOM
      1 O          71.6280  106.6510   25.6685 O.2       1 ALC1        0.0000 
      2 O          71.5740  105.2540   25.7170 O.2       9 ALL1        0.0000 
      3 O          71.6820  108.0480   25.6200 O.2       5 ALP1        0.0000 
      4 CA         69.0295  103.0600   26.4770 C.3       4 GLC5        0.0000 
      5 CA         70.8610  103.4290   27.1050 C.3      12 GLL5        0.0000 
      6 CA         67.1980  102.6910   25.8490 C.3       8 GLP5        0.0000 
      7 CA         69.6200  103.6980   28.7840 C.3       4 GLC5        0.0000 
      8 CA         68.3790  103.9670   30.4630 C.3       8 GLP5        0.0000 
      9 CA         69.5440  102.4015   25.3385 C.3       4 GLC5        0.0000 
     10 CA         71.4140  102.5910   26.1940 C.3      12 GLL5        0.0000 
     11 CA         67.6740  102.2120   24.4830 C.3       8 GLP5        0.0000 
     12 N          73.6130  106.0985   23.7320 N.am      2 SEC2        0.0000 
     13 N          72.7280  104.8990   23.7830 N.am     10 SEL2        0.0000 
     14 N          74.4980  107.2980   23.6810 N.am      6 SEP2        0.0000 
     15 N          69.9275  105.3550   28.9095 N.am      2 SEC2        0.0000 
     16 N          70.4920  105.7070   27.6750 N.am     10 SEL2        0.0000 
     17 N          69.3630  105.0030   30.1440 N.am      6 SEP2        0.0000 
     18 N          70.6125  106.2490   29.1470 N.am      2 SEC2        0.0000 
     19 N          70.7330  106.7910   30.6190 N.am      6 SEP2        0.0000 
     20 N          70.5735  107.1270   27.8930 N.am      2 SEC2        0.0000 
     21 N          70.6550  108.5470   28.1110 N.am      6 SEP2        0.0000 
     22 CA         71.8695  102.7550   22.4190 C.3       4 GLC5        0.0000 
     23 CA         72.5620  102.0580   24.0560 C.3      12 GLL5        0.0000 
     24 CA         71.1770  103.4520   20.7820 C.3       8 GLP5        0.0000 
     25 CA         75.1310  100.3200   25.7890 C.3       4 GLC5        0.0000 
     26 CA         73.5560  101.0270   24.5900 C.3      12 GLL5        0.0000 
     27 CA         76.7060   99.6130   26.9880 C.3       8 GLP5        0.0000 
     28 O          75.9220  101.2510   23.8485 O.2       1 ALC1        0.0000 
     29 O          74.9180  101.4400   24.6970 O.2       9 ALL1        0.0000 
     30 O          76.9260  101.0620   23.0000 O.2       5 ALP1        0.0000 
     31 CA         71.4970  101.6940   22.0405 C.3       4 GLC5        0.0000 
     32 CA         71.8170   99.9360   23.2990 C.3      12 GLL5        0.0000 
     33 O          75.3095   99.4550   22.5710 O.2       1 ALC1        0.0000 
     34 O          74.0520   99.9970   22.4250 O.2       9 ALL1        0.0000 
     35 O          76.5670   98.9130   22.7170 O.2       5 ALP1        0.0000 
     36 CA         69.1005   97.6865   23.9715 C.3       4 GLC5        0.0000 
     37 CA         70.8890   99.0150   24.1050 C.3      12 GLL5        0.0000 
     38 CA         67.3120   96.3580   23.8380 C.3       8 GLP5        0.0000 
     39 NZ         72.1550   99.2665   28.3525 N.4       3 LYC4        0.0000 
     40 NZ         70.7960   99.2330   27.9420 N.4      11 LYL4        0.0000 
     41 NZ         74.4720   99.0750   27.8770 N.4       7 LYP4        0.0000 
     42 N          72.1550   99.2665   28.3525 N.am      2 SEC2        0.0000 
     43 N          70.7960   99.2330   27.9420 N.am     10 SEL2        0.0000 
     44 N          73.5140   99.3000   28.7630 N.am      6 SEP2        0.0000 
     45 N          68.0715  100.4660   26.5775 N.am      2 SEC2        0.0000 
     46 N          68.8080   99.3340   26.3380 N.am     10 SEL2        0.0000 
     47 N          67.3350  101.5980   26.8170 N.am      6 SEP2        0.0000 
     48 NZ         72.8870   97.8930   28.2405 N.4       3 LYC4        0.0000 
     49 NZ         72.2600   96.4860   27.7180 N.4      11 LYL4        0.0000 
     50 N          72.8870   97.8930   28.2405 N.am      2 SEC2        0.0000 
     51 N          72.2600   96.4860   27.7180 N.am     10 SEL2        0.0000 
     52 N          73.2845   97.3110   27.3360 N.am      2 SEC2        0.0000 
     53 N          74.3090   98.1360   26.9540 N.am      6 SEP2        0.0000 
     54 CA         68.1170   95.6160   25.7975 C.3       4 GLC5        0.0000 
     55 CA         68.9220   94.8740   27.7570 C.3      12 GLL5        0.0000 
     56 CA         66.6905   93.2500   28.8155 C.3       4 GLC5        0.0000 
     57 CA         68.5950   93.9460   28.9220 C.3      12 GLL5        0.0000 
     58 CA         64.7860   92.5540   28.7090 C.3       8 GLP5        0.0000 
     59 CA         67.2120   92.4855   28.0180 C.3       4 GLC5        0.0000 
     60 CA         69.2760   92.5900   28.6870 C.3      12 GLL5        0.0000 
     61 CA         65.1480   92.3810   27.3490 C.3       8 GLP5        0.0000 
     62 CA         67.1275   91.5665   27.0645 C.3       4 GLC5        0.0000 
     63 CA         68.8480   92.0230   27.3300 C.3      12 GLL5        0.0000 
     64 CA         65.4070   91.1100   26.7990 C.3       8 GLP5        0.0000 
     65 CA         67.1290   92.7165   26.7840 C.3       4 GLC5        0.0000 
     66 CA         69.1100   93.0520   26.2190 C.3      12 GLL5        0.0000 
     67 CA         66.9755   92.3900   23.4600 C.3       4 GLC5        0.0000 
     68 CA         68.6030   92.6120   24.8630 C.3      12 GLL5        0.0000 
     69 CA         65.3480   92.1680   22.0570 C.3       8 GLP5        0.0000 
     70 CA         67.0050   91.8610   25.8310 C.3       4 GLC5        0.0000 
     71 N          68.3525   95.1355   31.2465 N.am      2 SEC2        0.0000 
     72 N          69.0660   94.5260   30.1280 N.am     10 SEL2        0.0000 
     73 N          67.6390   95.7450   32.3650 N.am      6 SEP2        0.0000 
     74 O          69.8380   93.4415   31.0020 O.2       1 ALC1        0.0000 
     75 O          69.0660   94.5260   30.1280 O.2       9 ALL1        0.0000 
     76 O          70.6100   92.3570   31.8760 O.2       5 ALP1        0.0000 
     77 N          68.4045   90.4350   29.9930 N.am      2 SEC2        0.0000 
     78 N          68.9300   91.6830   29.7240 N.am     10 SEL2        0.0000 
     79 N          67.8790   89.1870   30.2620 N.am      6 SEP2        0.0000 
     80 O          69.7700   92.0200   30.8000 O.2       1 ALC1        0.0000 
     81 O          68.9300   91.6830   29.7240 O.2       9 ALL1        0.0000 
     82 N          70.0225   90.1500   26.1365 N.am      2 SEC2        0.0000 
     83 N          69.5650   90.8260   27.0530 N.am     10 SEL2        0.0000 
     84 N          70.4800   89.4740   25.2200 N.am      6 SEP2        0.0000 
     85 N          69.9285   90.0285   27.9740 N.am      2 SEC2        0.0000 
     86 N          70.2920   89.2310   28.8950 N.am      6 SEP2        0.0000 
     87 N          69.3240   90.0450   23.4895 N.am      2 SEC2        0.0000 
     88 N          69.3050   91.4670   24.4140 N.am     10 SEL2        0.0000 
     89 N          69.3430   88.6230   22.5650 N.am      6 SEP2        0.0000 
     90 O          69.8925   90.4705   24.8170 O.2       1 ALC1        0.0000 
     91 O          69.3050   91.4670   24.4140 O.2       9 ALL1        0.0000 
     92 O          70.4800   89.4740   25.2200 O.2       5 ALP1        0.0000 
     93 CA         72.7628  103.5320   27.2413 C.3       4 GLC5        0.0000 
     94 CA         74.3880  104.0540   27.8330 C.3       8 GLP5        0.0000 
     95 CA         74.0335  102.8413   25.4545 C.3       4 GLC5        0.0000 
     96 CA         75.0080  104.1400   26.5860 C.3       8 GLP5        0.0000 
     97 CA         70.9400   98.2708   21.9305 C.3       4 GLC5        0.0000 
     98 CA         70.5270   97.0660   20.1590 C.3       8 GLP5        0.0000 
     99 CA         67.7952   96.1580   28.7933 C.3       4 GLC5        0.0000 
    100 CA         66.8320   97.9060   29.2470 C.3       8 GLP5        0.0000 
    101 CA         68.1783   93.1050   30.7393 C.3       4 GLC5        0.0000 
    102 CA         67.4210   92.9420   32.6740 C.3       8 GLP5        0.0000 
    103 CA         70.6275   91.4787   28.5842 C.3       4 GLC5        0.0000 
    104 CA         72.1930   90.6510   29.1600 C.3       8 GLP5        0.0000 
    105 CA         68.0842   94.5950   24.6895 C.3       4 GLC5        0.0000 
@<TRIPOS>BOND
@<TRIPOS>SUBSTRUCTURE
     1 ALC1        1 GROUP        1 X    ALC  0     ROOT ALC X 1
     2 SEC2       12 GROUP        1 X    SEC  0     **** SEC X 2
     3 LYC4       39 GROUP        1 X    LYC  0     **** LYC X 4
     4 GLC5        4 GROUP        1 X    GLC  0     **** GLC X 6
     5 ALP1        3 GROUP        1 Y    ALP  0     ROOT ALP Y 8
     6 SEP2       14 GROUP        1 Y    SEP  0     **** SEP Y 9
     7 LYP4       41 GROUP        1 Y    LYP  0     **** LYP Y 11
     8 GLP5        6 GROUP        1 Y    GLP  0     **** GLP Y 13
     9 ALL1        2 GROUP        1 Z    ALL  0     ROOT ALL Z 15
    10 SEL2       13 GROUP        1 Z    SEL  0     **** SEL Z 16
    11 LYL4       40 GROUP        1 Z    LYL  0     **** LYL Z 18
    12 GLL5        5 GROUP        1 Z    GLL  0     **** GLL Z 20
@<TRIPOS>SET

