#    Name: 1qrr_UPG_1_ligand
#    Modification time : Mon Mar 24 23:53:00 2014

@<TRIPOS>MOLECULE
1qrr_UPG_1_ligand
   58    60     1     0     0
SMALL
NO_CHARGES


@<TRIPOS>ATOM
      1 N1         72.0480  103.0350   25.0450 N.am      1 UPG402      0.0000 
      2 C2         72.1500  104.4130   24.7610 C.2       1 UPG402      0.0000 
      3 N3         71.5740  105.2540   25.7170 N.am      1 UPG402      0.0000 
      4 C4         70.9230  104.8680   26.8940 C.2       1 UPG402      0.0000 
      5 C5         70.8610  103.4290   27.1050 C.2       1 UPG402      0.0000 
      6 C6         71.4140  102.5910   26.1940 C.2       1 UPG402      0.0000 
      7 O2         72.7280  104.8990   23.7830 O.2       1 UPG402      0.0000 
      8 O4         70.4920  105.7070   27.6750 O.2       1 UPG402      0.0000 
      9 C1C        72.5620  102.0580   24.0560 C.3       1 UPG402      0.0000 
     10 C2C        73.5560  101.0270   24.5900 C.3       1 UPG402      0.0000 
     11 O2C        74.9180  101.4400   24.6970 O.3       1 UPG402      0.0000 
     12 C3C        73.3010   99.8670   23.6330 C.3       1 UPG402      0.0000 
     13 C4C        71.8170   99.9360   23.2990 C.3       1 UPG402      0.0000 
     14 O4C        71.4600  101.3210   23.4800 O.3       1 UPG402      0.0000 
     15 O3C        74.0520   99.9970   22.4250 O.3       1 UPG402      0.0000 
     16 C5C        70.8890   99.0150   24.1050 C.3       1 UPG402      0.0000 
     17 O5C        71.1660   99.1380   25.5070 O.3       1 UPG402      0.0000 
     18 PA         70.1520   98.8280   26.6810 P.3       1 UPG402      0.0000 
     19 O1A        70.7960   99.2330   27.9420 O.co2     1 UPG402      0.0000 
     20 O2A        68.8080   99.3340   26.3380 O.co2     1 UPG402      0.0000 
     21 O3A        70.1290   97.2390   26.6090 O.3       1 UPG402      0.0000 
     22 PB         71.1760   96.0370   26.8200 P.3       1 UPG402      0.0000 
     23 O1B        72.2600   96.4860   27.7180 O.co2     1 UPG402      0.0000 
     24 O2B        71.4880   95.4180   25.5150 O.co2     1 UPG402      0.0000 
     25 O3B        70.3060   95.0480   27.7420 O.3       1 UPG402      0.0000 
     26 C1'        68.9220   94.8740   27.7570 C.3       1 UPG402      0.0000 
     27 C2'        68.5950   93.9460   28.9220 C.3       1 UPG402      0.0000 
     28 C3'        69.2760   92.5900   28.6870 C.3       1 UPG402      0.0000 
     29 C4'        68.8480   92.0230   27.3300 C.3       1 UPG402      0.0000 
     30 C5'        69.1100   93.0520   26.2190 C.3       1 UPG402      0.0000 
     31 C6'        68.6030   92.6120   24.8630 C.3       1 UPG402      0.0000 
     32 O2'        69.0660   94.5260   30.1280 O.3       1 UPG402      0.0000 
     33 O3'        68.9300   91.6830   29.7240 O.3       1 UPG402      0.0000 
     34 O4'        69.5650   90.8260   27.0530 O.3       1 UPG402      0.0000 
     35 O5'        68.4620   94.3050   26.5280 O.3       1 UPG402      0.0000 
     36 O6'        69.3050   91.4670   24.4140 O.3       1 UPG402      0.0000 
     37 H          71.6375  106.3109   25.5286 H         1 UPG402      0.0000 
     38 H          70.3926  103.0960   27.9507 H         1 UPG402      0.0000 
     39 H          71.3657  101.5482   26.3567 H         1 UPG402      0.0000 
     40 H          73.0680  102.6008   23.2411 H         1 UPG402      0.0000 
     41 H          73.1372  100.6946   25.5591 H         1 UPG402      0.0000 
     42 H          73.4834   98.9538   24.1433 H         1 UPG402      0.0000 
     43 H          71.7113   99.6905   22.2330 H         1 UPG402      0.0000 
     44 H          71.0473   97.9903   23.7488 H         1 UPG402      0.0000 
     45 H          69.8559   99.2965   23.8696 H         1 UPG402      0.0000 
     46 H          68.4148   95.8134   27.9563 H         1 UPG402      0.0000 
     47 H          67.5331   93.7884   28.9384 H         1 UPG402      0.0000 
     48 H          70.3446   92.7608   28.6513 H         1 UPG402      0.0000 
     49 H          67.7814   91.8427   27.3658 H         1 UPG402      0.0000 
     50 H          70.1840   93.2078   26.1445 H         1 UPG402      0.0000 
     51 H          68.7189   93.4604   24.1678 H         1 UPG402      0.0000 
     52 H          67.5211   92.4177   24.9540 H         1 UPG402      0.0000 
     53 H          75.3599  101.0908   23.8707 H         1 UPG402      0.0000 
     54 H          74.9351   99.5715   22.6224 H         1 UPG402      0.0000 
     55 H          69.6119   93.8102   30.5634 H         1 UPG402      0.0000 
     56 H          69.4998   91.9493   30.5014 H         1 UPG402      0.0000 
     57 H          68.8616   90.1264   26.9268 H         1 UPG402      0.0000 
     58 H          69.6722   91.0467   25.2438 H         1 UPG402      0.0000 
@<TRIPOS>BOND
     1    2    1 1    
     2    6    1 1    
     3    9    1 1    
     4    3    2 1    
     5    7    2 2    
     6    4    3 1    
     7   37    3 1    
     8    5    4 1    
     9    8    4 2    
    10    6    5 2    
    11   38    5 1    
    12   39    6 1    
    13   10    9 1    
    14   14    9 1    
    15   40    9 1    
    16   11   10 1    
    17   12   10 1    
    18   41   10 1    
    19   53   11 1    
    20   13   12 1    
    21   15   12 1    
    22   42   12 1    
    23   14   13 1    
    24   16   13 1    
    25   43   13 1    
    26   54   15 1    
    27   17   16 1    
    28   44   16 1    
    29   45   16 1    
    30   18   17 1    
    31   19   18 ar   
    32   20   18 ar   
    33   21   18 1    
    34   22   21 1    
    35   23   22 ar   
    36   24   22 ar   
    37   25   22 1    
    38   26   25 1    
    39   27   26 1    
    40   35   26 1    
    41   46   26 1    
    42   28   27 1    
    43   32   27 1    
    44   47   27 1    
    45   29   28 1    
    46   33   28 1    
    47   48   28 1    
    48   30   29 1    
    49   34   29 1    
    50   49   29 1    
    51   31   30 1    
    52   35   30 1    
    53   50   30 1    
    54   36   31 1    
    55   51   31 1    
    56   52   31 1    
    57   55   32 1    
    58   56   33 1    
    59   57   34 1    
    60   58   36 1    
@<TRIPOS>SUBSTRUCTURE
     1 UPG402      1 GROUP   
@<TRIPOS>SET

