#    Name: 3jpu_TY4_3_INTS_M
#    Modification time : Tue Mar 25 17:41:26 2014

@<TRIPOS>MOLECULE
3jpu_TY4_3_INTS_M
   84     0     9     0     0
SMALL
NO_CHARGES


@<TRIPOS>ATOM
      1 O         -61.2035  -57.4280   12.2105 O.2       1 ALC1        0.0000 
      2 O         -61.8560  -56.8310   11.2300 O.2       7 ALL1        0.0000 
      3 O         -60.5510  -58.0250   13.1910 O.2       4 ALP1        0.0000 
      4 O         -60.2490  -56.9960   10.9930 O.2       1 ALC1        0.0000 
      5 O         -58.6420  -57.1610   10.7560 O.2       4 ALP1        0.0000 
      6 N         -64.5715  -57.0720    8.6870 N.am      2 SEC2        0.0000 
      7 N         -63.5310  -56.8770    9.7630 N.am      8 SEL2        0.0000 
      8 N         -65.6120  -57.2670    7.6110 N.am      5 SEP2        0.0000 
      9 CA        -65.0180  -61.9990    9.1595 C.3       3 GLC5        0.0000 
     10 CA        -63.3910  -61.2070   10.2600 C.3       9 GLL5        0.0000 
     11 CA        -66.6450  -62.7910    8.0590 C.3       6 GLP5        0.0000 
     12 CA        -65.7710  -58.2235   10.7715 C.3       3 GLC5        0.0000 
     13 CA        -64.6810  -59.2740   11.8870 C.3       9 GLL5        0.0000 
     14 CA        -66.8610  -57.1730    9.6560 C.3       6 GLP5        0.0000 
     15 CA        -65.3370  -60.5555   12.9715 C.3       3 GLC5        0.0000 
     16 CA        -65.9930  -61.8370   14.0560 C.3       6 GLP5        0.0000 
     17 CA        -63.9865  -58.6335   13.6435 C.3       3 GLC5        0.0000 
     18 CA        -63.2920  -57.9930   15.4000 C.3       6 GLP5        0.0000 
     19 CA        -63.1475  -60.4480   12.5715 C.3       3 GLC5        0.0000 
     20 CA        -61.6140  -61.6220   13.2560 C.3       6 GLP5        0.0000 
     21 CA        -66.2170  -60.1305   10.6790 C.3       3 GLC5        0.0000 
     22 CA        -67.7530  -60.9870    9.4710 C.3       6 GLP5        0.0000 
     23 CA        -65.3715  -51.3825   15.6490 C.3       3 GLC5        0.0000 
     24 CA        -63.6980  -52.8180   15.6780 C.3       9 GLL5        0.0000 
     25 CA        -67.0450  -49.9470   15.6200 C.3       6 GLP5        0.0000 
     26 CA        -63.5090  -54.5440   16.3820 C.3       3 GLC5        0.0000 
     27 CA        -63.3200  -56.2700   17.0860 C.3       6 GLP5        0.0000 
     28 CA        -67.0630  -55.2190   12.5800 C.3       3 GLC5        0.0000 
     29 CA        -66.9760  -56.6650   13.8210 C.3       9 GLL5        0.0000 
     30 CA        -67.1500  -53.7730   11.3390 C.3       6 GLP5        0.0000 
     31 CA        -67.5350  -56.8430   12.0640 C.3       3 GLC5        0.0000 
     32 CA        -68.0940  -57.0210   10.3070 C.3       6 GLP5        0.0000 
     33 CA        -67.8510  -58.2940   13.2745 C.3       3 GLC5        0.0000 
     34 CA        -68.7260  -59.9230   12.7280 C.3       6 GLP5        0.0000 
     35 CA        -68.8005  -56.8065   14.8715 C.3       3 GLC5        0.0000 
     36 CA        -70.6250  -56.9480   15.9220 C.3       6 GLP5        0.0000 
     37 CA        -65.7620  -57.5405   14.8170 C.3       3 GLC5        0.0000 
     38 CA        -64.5480  -58.4160   15.8130 C.3       6 GLP5        0.0000 
     39 CA        -58.8325  -53.9305   13.7355 C.3       3 GLC5        0.0000 
     40 CA        -59.4470  -52.4320   12.6360 C.3       9 GLL5        0.0000 
     41 CA        -58.2180  -55.4290   14.8350 C.3       6 GLP5        0.0000 
     42 CA        -57.1315  -53.4150   13.1130 C.3       3 GLC5        0.0000 
     43 CA        -58.1610  -51.9520   12.6550 C.3       9 GLL5        0.0000 
     44 CA        -56.1020  -54.8780   13.5710 C.3       6 GLP5        0.0000 
     45 CA        -58.8700  -48.4445   15.1695 C.3       3 GLC5        0.0000 
     46 CA        -58.8640  -49.7660   13.5910 C.3       9 GLL5        0.0000 
     47 CA        -58.8760  -47.1230   16.7480 C.3       6 GLP5        0.0000 
     48 CA        -57.1905  -48.3085   13.5605 C.3       3 GLC5        0.0000 
     49 CA        -55.5170  -46.8510   13.5300 C.3       6 GLP5        0.0000 
     50 CA        -62.8360  -48.8065   12.6710 C.3       3 GLC5        0.0000 
     51 CA        -61.5400  -49.2310   14.0810 C.3       9 GLL5        0.0000 
     52 CA        -64.1320  -48.3820   11.2610 C.3       6 GLP5        0.0000 
     53 CA        -60.8330  -47.7560   15.3640 C.3       3 GLC5        0.0000 
     54 CA        -60.1260  -46.2810   16.6470 C.3       6 GLP5        0.0000 
     55 CA        -60.6080  -50.0610   15.7265 C.3       3 GLC5        0.0000 
     56 CA        -59.6760  -50.8910   17.3720 C.3       6 GLP5        0.0000 
     57 CA        -62.6570  -48.2750   15.2530 C.3       3 GLC5        0.0000 
     58 CA        -63.7740  -47.3190   16.4250 C.3       6 GLP5        0.0000 
     59 CA        -57.2945  -50.4925   14.9930 C.3       3 GLC5        0.0000 
     60 CA        -56.1930  -50.2350   13.1280 C.3       9 GLL5        0.0000 
     61 CA        -58.3960  -50.7500   16.8580 C.3       6 GLP5        0.0000 
     62 CA        -55.5320  -50.9090   11.6760 C.3       3 GLC5        0.0000 
     63 CA        -54.8710  -51.5830   10.2240 C.3       6 GLP5        0.0000 
     64 CA        -55.3665  -48.8305   12.7850 C.3       3 GLC5        0.0000 
     65 CA        -54.5400  -47.4260   12.4420 C.3       6 GLP5        0.0000 
     66 CA        -65.9928  -54.6639   12.3829 C.3       3 GLC5        0.0000 
     67 CA        -65.3480  -55.6680   13.7060 C.3       9 GLL5        0.0000 
     68 CA        -63.9786  -53.7850   11.3201 C.3       3 GLC5        0.0000 
     69 CA        -62.9980  -54.1810   13.5580 C.3       9 GLL5        0.0000 
     70 CA        -65.3050  -52.4970   10.3560 C.3       6 GLP5        0.0000 
     71 CA        -59.6215  -59.3618    9.0173 C.3       3 GLC5        0.0000 
     72 CA        -61.6100  -59.3580    9.0970 C.3       9 GLL5        0.0000 
     73 CA        -57.6560  -58.6890    9.1050 C.3       6 GLP5        0.0000 
     74 CA        -63.8147  -62.9480   10.5935 C.3       3 GLC5        0.0000 
     75 CA        -62.4400  -61.6390    9.3200 C.3       9 GLL5        0.0000 
     76 CA        -64.7140  -64.4730   11.3970 C.3       6 GLP5        0.0000 
     77 CA        -56.4518  -51.4472   11.5592 C.3       3 GLC5        0.0000 
     78 CA        -59.4875  -51.7518   10.9626 C.3       3 GLC5        0.0000 
     79 CA        -59.9190  -51.5230    9.1750 C.3       6 GLP5        0.0000 
     80 CA        -56.8438  -52.1215   14.4675 C.3       3 GLC5        0.0000 
     81 CA        -57.9040  -50.6710   13.1340 C.3       9 GLL5        0.0000 
     82 CA        -56.6390  -53.7900   15.8040 C.3       6 GLP5        0.0000 
     83 CA        -59.1457  -48.8254   12.0846 C.3       3 GLC5        0.0000 
     84 CA        -59.0150  -47.4270   10.7080 C.3       6 GLP5        0.0000 
@<TRIPOS>BOND
@<TRIPOS>SUBSTRUCTURE
     1 ALC1        1 GROUP        1 X    ALC  0     ROOT ALC X 1
     2 SEC2        6 GROUP        1 X    SEC  0     **** SEC X 2
     3 GLC5        9 GROUP        1 X    GLC  0     **** GLC X 6
     4 ALP1        3 GROUP        1 Y    ALP  0     ROOT ALP Y 8
     5 SEP2        8 GROUP        1 Y    SEP  0     **** SEP Y 9
     6 GLP5       11 GROUP        1 Y    GLP  0     **** GLP Y 13
     7 ALL1        2 GROUP        1 Z    ALL  0     ROOT ALL Z 15
     8 SEL2        7 GROUP        1 Z    SEL  0     **** SEL Z 16
     9 GLL5       10 GROUP        1 Z    GLL  0     **** GLL Z 20
@<TRIPOS>SET

