#    Name: 3jpu_TY4_3_ligand
#    Modification time : Tue Mar 25 17:41:26 2014

@<TRIPOS>MOLECULE
3jpu_TY4_3_ligand
   45    47     1     0     0
SMALL
NO_CHARGES


@<TRIPOS>ATOM
      1 C1        -62.9980  -54.1810   13.5580 C.ar      1 TY4174      0.0000 
      2 C2        -63.9590  -53.8990   14.6420 C.ar      1 TY4174      0.0000 
      3 C3        -65.1200  -54.6690   14.6610 C.ar      1 TY4174      0.0000 
      4 C4        -65.3480  -55.6680   13.7060 C.ar      1 TY4174      0.0000 
      5 C5        -64.4370  -55.9410   12.6700 C.ar      1 TY4174      0.0000 
      6 C6        -63.2490  -55.2310   12.5610 C.ar      1 TY4174      0.0000 
      7 C7        -62.1810  -55.4400   11.5090 C.3       1 TY4174      0.0000 
      8 N8        -61.8560  -56.8310   11.2300 N.am      1 TY4174      0.0000 
      9 C9        -62.6230  -57.4600   10.3550 C.2       1 TY4174      0.0000 
     10 O10       -63.5310  -56.8770    9.7630 O.2       1 TY4174      0.0000 
     11 C11       -62.5150  -58.9020   10.0190 C.ar      1 TY4174      0.0000 
     12 C12       -61.6100  -59.3580    9.0970 C.ar      1 TY4174      0.0000 
     13 C13       -61.5640  -60.7110    8.7620 C.ar      1 TY4174      0.0000 
     14 C14       -62.4400  -61.6390    9.3200 C.ar      1 TY4174      0.0000 
     15 C15       -63.3910  -61.2070   10.2600 C.ar      1 TY4174      0.0000 
     16 C16       -63.4770  -59.8580   10.6410 C.ar      1 TY4174      0.0000 
     17 CL17      -64.6810  -59.2740   11.8870 Cl        1 TY4174      0.0000 
     18 C18       -63.6980  -52.8180   15.6780 C.3       1 TY4174      0.0000 
     19 BR19      -66.9760  -56.6650   13.8210 Br        1 TY4174      0.0000 
     20 O20       -61.8340  -53.5080   13.4590 O.3       1 TY4174      0.0000 
     21 C21       -61.8190  -52.1450   13.0400 C.2       1 TY4174      0.0000 
     22 O22       -62.8490  -51.5660   12.7600 O.2       1 TY4174      0.0000 
     23 C23       -60.4550  -51.5860   13.0550 C.ar      1 TY4174      0.0000 
     24 C24       -59.4470  -52.4320   12.6360 C.ar      1 TY4174      0.0000 
     25 C25       -58.1610  -51.9520   12.6550 C.ar      1 TY4174      0.0000 
     26 C26       -57.9040  -50.6710   13.1340 C.ar      1 TY4174      0.0000 
     27 C27       -58.8640  -49.7660   13.5910 C.ar      1 TY4174      0.0000 
     28 C28       -60.1690  -50.2290   13.5600 C.ar      1 TY4174      0.0000 
     29 CL29      -61.5400  -49.2310   14.0810 Cl        1 TY4174      0.0000 
     30 CL30      -56.1930  -50.2350   13.1280 Cl        1 TY4174      0.0000 
     31 H         -65.8312  -54.5017   15.3952 H         1 TY4174      0.0000 
     32 H         -64.6618  -56.6803   11.9858 H         1 TY4174      0.0000 
     33 H         -61.2664  -54.8875   11.8331 H         1 TY4174      0.0000 
     34 H         -62.5134  -54.9265   10.5748 H         1 TY4174      0.0000 
     35 H         -61.0703  -57.2384   11.7141 H         1 TY4174      0.0000 
     36 H         -60.9523  -58.7036    8.6405 H         1 TY4174      0.0000 
     37 H         -60.8534  -61.0363    8.0742 H         1 TY4174      0.0000 
     38 H         -62.3962  -62.6227    9.0529 H         1 TY4174      0.0000 
     39 H         -64.0381  -61.8940   10.6779 H         1 TY4174      0.0000 
     40 H         -59.6544  -53.3779   12.3246 H         1 TY4174      0.0000 
     41 H         -57.3801  -52.5338   12.3164 H         1 TY4174      0.0000 
     42 H         -58.6229  -48.8571   13.9139 H         1 TY4174      0.0000 
     43 H         -62.8596  -52.9930   16.1943 H         1 TY4174      0.0000 
     44 H         -63.6002  -51.9161   15.2572 H         1 TY4174      0.0000 
     45 H         -64.4428  -52.7524   16.3420 H         1 TY4174      0.0000 
@<TRIPOS>BOND
     1    2    1 ar   
     2    6    1 ar   
     3   20    1 1    
     4    3    2 ar   
     5   18    2 1    
     6    4    3 ar   
     7   31    3 1    
     8    5    4 ar   
     9   19    4 1    
    10    6    5 ar   
    11   32    5 1    
    12    7    6 1    
    13    8    7 1    
    14   33    7 1    
    15   34    7 1    
    16    9    8 am   
    17   35    8 1    
    18   10    9 2    
    19   11    9 1    
    20   12   11 ar   
    21   16   11 ar   
    22   13   12 ar   
    23   36   12 1    
    24   14   13 ar   
    25   37   13 1    
    26   15   14 ar   
    27   38   14 1    
    28   16   15 ar   
    29   39   15 1    
    30   17   16 1    
    31   43   18 1    
    32   44   18 1    
    33   45   18 1    
    34   21   20 1    
    35   22   21 2    
    36   23   21 1    
    37   24   23 ar   
    38   28   23 ar   
    39   25   24 ar   
    40   40   24 1    
    41   26   25 ar   
    42   41   25 1    
    43   27   26 ar   
    44   30   26 1    
    45   28   27 ar   
    46   42   27 1    
    47   29   28 1    
@<TRIPOS>SUBSTRUCTURE
     1 TY4174      1 GROUP   
@<TRIPOS>SET

