#    Name: 3atr_FDA_1_INTS_M
#    Modification time : Mon Mar 24 18:11:51 2014

@<TRIPOS>MOLECULE
3atr_FDA_1_INTS_M
  141     0     9     0     0
SMALL
NO_CHARGES


@<TRIPOS>ATOM
      1 CA         11.1960   22.0325    2.6310 C.3       3 GLC5        0.0000 
      2 CA         11.4840   23.6520    3.9070 C.3       9 GLL5        0.0000 
      3 CA         10.9080   20.4130    1.3550 C.3       6 GLP5        0.0000 
      4 CA         11.0820   21.8245    4.5265 C.3       3 GLC5        0.0000 
      5 CA         10.6800   19.9970    5.1460 C.3       6 GLP5        0.0000 
      6 CA         12.2245   24.4375    1.1695 C.3       3 GLC5        0.0000 
      7 CA         11.2270   24.6850    2.8130 C.3       9 GLL5        0.0000 
      8 CA         13.2220   24.1900   -0.4740 C.3       6 GLP5        0.0000 
      9 O          11.3630   27.1960    2.0240 O.2       1 ALC1        0.0000 
     10 O          10.8220   27.0380    3.2280 O.2       7 ALL1        0.0000 
     11 O          11.9040   27.3540    0.8200 O.2       4 ALP1        0.0000 
     12 O          10.4725   27.7920    1.8470 O.2       1 ALC1        0.0000 
     13 O          10.1230   28.5460    0.4660 O.2       4 ALP1        0.0000 
     14 O           9.3165   27.6705    1.1015 O.2       1 ALC1        0.0000 
     15 O           8.5100   26.7950    1.7370 O.2       7 ALL1        0.0000 
     16 CA         11.4880   24.5485    0.2730 C.3       3 GLC5        0.0000 
     17 CA          9.7540   24.9070    1.0200 C.3       9 GLL5        0.0000 
     18 N           7.2105   20.9600   -0.7935 N.am      2 SEC2        0.0000 
     19 N           7.6940   22.2590   -0.4040 N.am      8 SEL2        0.0000 
     20 N           6.7270   19.6610   -1.1830 N.am      5 SEP2        0.0000 
     21 CA          6.4405   23.5200   -3.9820 C.3       3 GLC5        0.0000 
     22 CA          7.9030   22.7720   -2.8810 C.3       9 GLL5        0.0000 
     23 CA          4.9780   24.2680   -5.0830 C.3       6 GLP5        0.0000 
     24 CA          8.5705   22.1255   -4.9010 C.3       3 GLC5        0.0000 
     25 CA          9.2380   21.4790   -6.9210 C.3       6 GLP5        0.0000 
     26 O           6.7005   21.4320   -4.8180 O.2       1 ALC1        0.0000 
     27 O           7.1240   21.7470   -3.3460 O.2       7 ALL1        0.0000 
     28 O           6.2770   21.1170   -6.2900 O.2       4 ALP1        0.0000 
     29 O           6.9255   20.7040   -2.2645 O.2       1 ALC1        0.0000 
     30 O           6.7270   19.6610   -1.1830 O.2       4 ALP1        0.0000 
     31 N           8.1335   23.5845   -5.2070 N.am      2 SEC2        0.0000 
     32 N           8.4620   23.6790   -3.7410 N.am      8 SEL2        0.0000 
     33 N           7.8050   23.4900   -6.6730 N.am      5 SEP2        0.0000 
     34 CA         10.2490   23.1860   -3.6685 C.3       3 GLC5        0.0000 
     35 CA          9.2340   24.7250   -3.3160 C.3       9 GLL5        0.0000 
     36 CA         11.2640   21.6470   -4.0210 C.3       6 GLP5        0.0000 
     37 CA         10.7445   24.9110   -4.7265 C.3       3 GLC5        0.0000 
     38 CA         12.2550   25.0970   -6.1370 C.3       6 GLP5        0.0000 
     39 CA         10.1940   26.3210   -2.8520 C.3       3 GLC5        0.0000 
     40 CA         11.1540   27.9170   -2.3880 C.3       6 GLP5        0.0000 
     41 CA          8.3080   26.6090   -2.8300 C.3       3 GLC5        0.0000 
     42 CA          7.3820   28.4930   -2.3440 C.3       6 GLP5        0.0000 
     43 CA          8.0130   25.1935   -4.7140 C.3       3 GLC5        0.0000 
     44 CA          6.7920   25.6620   -6.1120 C.3       6 GLP5        0.0000 
     45 N           9.1030   26.4250   -2.0960 N.am      2 SEC2        0.0000 
     46 N           9.4550   24.8890   -1.9750 N.am      8 SEL2        0.0000 
     47 N           8.7510   27.9610   -2.2170 N.am      5 SEP2        0.0000 
     48 CA         11.0515   24.1060   -0.7875 C.3       3 GLC5        0.0000 
     49 CA          8.8810   24.0220   -1.1010 C.3       9 GLL5        0.0000 
     50 CA          7.6190   25.7765   -1.4025 C.3       3 GLC5        0.0000 
     51 CA          6.3570   27.5310   -1.7040 C.3       6 GLP5        0.0000 
     52 N          16.8765   21.3830   15.3310 N.am      2 SEC2        0.0000 
     53 N          17.2850   22.9040   15.7510 N.am      8 SEL2        0.0000 
     54 N          16.4680   19.8620   14.9110 N.am      5 SEP2        0.0000 
     55 N          17.4605   22.3360   14.4710 N.am      2 SEC2        0.0000 
     56 N          17.6360   21.7680   13.1910 N.am      5 SEP2        0.0000 
     57 O          17.1235   24.4440   17.8180 O.2       1 ALC1        0.0000 
     58 O          15.9760   23.9100   17.3460 O.2       7 ALL1        0.0000 
     59 O          18.2710   24.9780   18.2900 O.2       4 ALP1        0.0000 
     60 N          15.5855   26.1075   18.7265 N.am      2 SEC2        0.0000 
     61 N          14.6180   24.8640   18.8710 N.am      8 SEL2        0.0000 
     62 N          16.5530   27.3510   18.5820 N.am      5 SEP2        0.0000 
     63 CA         12.8765   25.1920   18.2095 C.3       3 GLC5        0.0000 
     64 CA         13.6080   23.3960   17.3570 C.3       9 GLL5        0.0000 
     65 CA         12.1450   26.9880   19.0620 C.3       6 GLP5        0.0000 
     66 CA          6.9185   25.5055   15.5860 C.3       3 GLC5        0.0000 
     67 CA          7.5700   24.0080   17.0380 C.3       9 GLL5        0.0000 
     68 CA          6.2670   27.0030   14.1340 C.3       6 GLP5        0.0000 
     69 CA          5.5540   24.2105   17.8995 C.3       3 GLC5        0.0000 
     70 CA          3.5380   24.4130   18.7610 C.3       6 GLP5        0.0000 
     71 CA          7.2965   26.0190   17.6775 C.3       3 GLC5        0.0000 
     72 CA          7.0230   28.0300   18.3170 C.3       6 GLP5        0.0000 
     73 CA          7.9970   23.7250   18.9515 C.3       3 GLC5        0.0000 
     74 CA          8.4240   23.4420   20.8650 C.3       6 GLP5        0.0000 
     75 CA          6.6775   22.5530   13.2275 C.3       3 GLC5        0.0000 
     76 CA          7.9390   22.4300   14.5300 C.3       9 GLL5        0.0000 
     77 CA          5.4160   22.6760   11.9250 C.3       6 GLP5        0.0000 
     78 CA         12.4185   24.1090   15.5055 C.3       3 GLC5        0.0000 
     79 CA         11.5260   22.4850   15.8760 C.3       9 GLL5        0.0000 
     80 CA         13.3110   25.7330   15.1350 C.3       6 GLP5        0.0000 
     81 CA         15.2035   21.0685   16.7400 C.3       3 GLC5        0.0000 
     82 CA         13.8980   22.5610   16.1700 C.3       9 GLL5        0.0000 
     83 CA         16.5090   19.5760   17.3100 C.3       6 GLP5        0.0000 
     84 CA         15.1970   23.5785   12.7415 C.3       3 GLC5        0.0000 
     85 CA         13.5370   22.4080   13.0880 C.3       9 GLL5        0.0000 
     86 CA         16.8570   24.7490   12.3950 C.3       6 GLP5        0.0000 
     87 N          11.4315   23.5275   12.4910 N.am      2 SEC2        0.0000 
     88 N          12.7010   23.5660   13.0580 N.am      8 SEL2        0.0000 
     89 N          10.1620   23.4890   11.9240 N.am      5 SEP2        0.0000 
     90 N          13.4530   24.8460   12.5910 N.am      2 SEC2        0.0000 
     91 N          14.2050   26.1260   12.1240 N.am      5 SEP2        0.0000 
     92 O          13.6870   19.5220   11.0350 O.2       1 ALC1        0.0000 
     93 O          14.0310   20.3930   11.9000 O.2       7 ALL1        0.0000 
     94 O          13.3430   18.6510   10.1700 O.2       4 ALP1        0.0000 
     95 O          15.1160   19.4605   11.0320 O.2       1 ALC1        0.0000 
     96 O          16.2010   18.5280   10.1640 O.2       4 ALP1        0.0000 
     97 CA         15.5865   23.5790   11.5175 C.3       3 GLC5        0.0000 
     98 CA         14.3160   22.4090   10.6400 C.3       9 GLL5        0.0000 
     99 N          14.0780   24.9615   11.3550 N.am      2 SEC2        0.0000 
    100 N          13.9510   23.7970   10.5860 N.am      8 SEL2        0.0000 
    101 CA         12.9330   19.9415    8.7970 C.3       3 GLC5        0.0000 
    102 CA         13.9540   21.7580    9.2940 C.3       9 GLL5        0.0000 
    103 CA         11.9120   18.1250    8.3000 C.3       6 GLP5        0.0000 
    104 N          16.6520   23.0750    5.7710 N.am      2 SEC2        0.0000 
    105 N          15.2310   22.9900    5.8740 N.am      8 SEL2        0.0000 
    106 N          18.0730   23.1600    5.6680 N.am      5 SEP2        0.0000 
    107 N          14.3640   19.2320    6.9585 N.am      2 SEC2        0.0000 
    108 N          14.4890   20.5720    6.5990 N.am      8 SEL2        0.0000 
    109 N          14.2390   17.8920    7.3180 N.am      5 SEP2        0.0000 
    110 CA          8.6363   27.3143    3.6530 C.3       3 GLC5        0.0000 
    111 CA         10.1980   25.7390    3.2240 C.3       9 GLL5        0.0000 
    112 CA          7.6330   28.9700    4.5920 C.3       6 GLP5        0.0000 
    113 CA          9.8547   22.5429   -2.8360 C.3       3 GLC5        0.0000 
    114 CA          8.1170   22.9390   -1.5210 C.3       9 GLL5        0.0000 
    115 CA          9.3488   21.6504   -1.3605 C.3       3 GLC5        0.0000 
    116 CA         10.2520   19.8620   -1.0700 C.3       6 GLP5        0.0000 
    117 CA         13.5320   24.3558   15.9492 C.3       3 GLC5        0.0000 
    118 CA         10.6550   24.9635   16.4312 C.3       3 GLC5        0.0000 
    119 CA         11.3200   23.2260   17.0610 C.3       9 GLL5        0.0000 
    120 CA         10.6250   26.4750   15.6080 C.3       6 GLP5        0.0000 
    121 CA         11.4150   25.2200   18.1583 C.3       3 GLC5        0.0000 
    122 CA         10.0500   23.6780   17.4480 C.3       9 GLL5        0.0000 
    123 CA          9.4395   25.0975   16.2195 C.3       3 GLC5        0.0000 
    124 CA          8.9380   23.4320   16.6240 C.3       9 GLL5        0.0000 
    125 CA          7.3340   22.3350   17.4125 C.3       3 GLC5        0.0000 
    126 CA          6.4140   20.9500   17.9940 C.3       6 GLP5        0.0000 
    127 CA         10.1905   24.4642   15.4380 C.3       3 GLC5        0.0000 
    128 CA          9.1180   22.7010   15.4750 C.3       9 GLL5        0.0000 
    129 CA          7.4712   21.7577   16.4982 C.3       3 GLC5        0.0000 
    130 CA          8.5473   20.9841   15.3054 C.3       3 GLC5        0.0000 
    131 CA          8.6110   19.2200   15.3210 C.3       6 GLP5        0.0000 
    132 CA          9.7855   20.7828   15.3947 C.3       3 GLC5        0.0000 
    133 CA         10.3940   22.2060   15.0610 C.3       9 GLL5        0.0000 
    134 CA         13.3008   23.8220   14.3812 C.3       3 GLC5        0.0000 
    135 CA         13.0440   21.4140   14.1670 C.3       9 GLL5        0.0000 
    136 CA         11.9533   22.8938   11.4065 C.3       3 GLC5        0.0000 
    137 CA         10.3910   23.7240   10.4090 C.3       6 GLP5        0.0000 
    138 CA         15.0551   20.6520   13.0934 C.3       3 GLC5        0.0000 
    139 CA         13.4940   21.7190   11.7200 C.3       9 GLL5        0.0000 
    140 CA         16.7180   19.4890   13.5130 C.3       6 GLP5        0.0000 
    141 CA         12.2630   22.9037   10.1880 C.3       3 GLC5        0.0000 
@<TRIPOS>BOND
@<TRIPOS>SUBSTRUCTURE
     1 ALC1        9 GROUP        1 X    ALC  0     ROOT ALC X 1
     2 SEC2       18 GROUP        1 X    SEC  0     **** SEC X 2
     3 GLC5        1 GROUP        1 X    GLC  0     **** GLC X 6
     4 ALP1       11 GROUP        1 Y    ALP  0     ROOT ALP Y 8
     5 SEP2       20 GROUP        1 Y    SEP  0     **** SEP Y 9
     6 GLP5        3 GROUP        1 Y    GLP  0     **** GLP Y 13
     7 ALL1       10 GROUP        1 Z    ALL  0     ROOT ALL Z 15
     8 SEL2       19 GROUP        1 Z    SEL  0     **** SEL Z 16
     9 GLL5        2 GROUP        1 Z    GLL  0     **** GLL Z 20
@<TRIPOS>SET

