#    Name: 3atr_FDA_1_ligand
#    Modification time : Mon Mar 24 18:11:51 2014

@<TRIPOS>MOLECULE
3atr_FDA_1_ligand
   86    91     1     0     0
SMALL
NO_CHARGES


@<TRIPOS>ATOM
      1 PA         12.0010   23.7470    6.4990 P.3       1 FDA501      0.0000 
      2 O1A        10.5840   23.3220    6.7670 O.co2     1 FDA501      0.0000 
      3 O2A        12.5880   24.8410    7.3530 O.co2     1 FDA501      0.0000 
      4 O5B        12.1350   24.3380    5.0360 O.3       1 FDA501      0.0000 
      5 C5B        11.4840   23.6520    3.9070 C.3       1 FDA501      0.0000 
      6 C4B        11.2270   24.6850    2.8130 C.3       1 FDA501      0.0000 
      7 O4B        10.7040   24.0350    1.6520 O.3       1 FDA501      0.0000 
      8 C3B        10.1980   25.7390    3.2240 C.3       1 FDA501      0.0000 
      9 O3B        10.8220   27.0380    3.2280 O.3       1 FDA501      0.0000 
     10 C2B         9.0810   25.5780    2.2040 C.3       1 FDA501      0.0000 
     11 O2B         8.5100   26.7950    1.7370 O.3       1 FDA501      0.0000 
     12 C1B         9.7540   24.9070    1.0200 C.3       1 FDA501      0.0000 
     13 N9A         8.9090   23.9930    0.2290 N.pl3     1 FDA501      0.0000 
     14 C8A         8.2330   22.8980    0.6750 C.2       1 FDA501      0.0000 
     15 N7A         7.6940   22.2590   -0.4040 N.2       1 FDA501      0.0000 
     16 C5A         8.1170   22.9390   -1.5210 C.ar      1 FDA501      0.0000 
     17 C6A         7.9030   22.7720   -2.8810 C.ar      1 FDA501      0.0000 
     18 N6A         7.1240   21.7470   -3.3460 N.pl3     1 FDA501      0.0000 
     19 N1A         8.4620   23.6790   -3.7410 N.ar      1 FDA501      0.0000 
     20 C2A         9.2340   24.7250   -3.3160 C.ar      1 FDA501      0.0000 
     21 N3A         9.4550   24.8890   -1.9750 N.ar      1 FDA501      0.0000 
     22 C4A         8.8810   24.0220   -1.1010 C.ar      1 FDA501      0.0000 
     23 N1         15.1560   22.4060   15.6850 N.am      1 FDA501      0.0000 
     24 C2         16.1620   23.0800   16.2570 C.2       1 FDA501      0.0000 
     25 O2         17.2850   22.9040   15.7510 O.2       1 FDA501      0.0000 
     26 N3         15.9760   23.9100   17.3460 N.am      1 FDA501      0.0000 
     27 C4         14.7630   24.1140   17.8970 C.2       1 FDA501      0.0000 
     28 O4         14.6180   24.8640   18.8710 O.2       1 FDA501      0.0000 
     29 C4X        13.6080   23.3960   17.3570 C.2       1 FDA501      0.0000 
     30 N5         12.3630   23.5260   17.8880 N.pl3     1 FDA501      0.0000 
     31 C5X        11.3200   23.2260   17.0610 C.ar      1 FDA501      0.0000 
     32 C6         10.0500   23.6780   17.4480 C.ar      1 FDA501      0.0000 
     33 C7          8.9380   23.4320   16.6240 C.ar      1 FDA501      0.0000 
     34 C7M         7.5700   24.0080   17.0380 C.3       1 FDA501      0.0000 
     35 C8          9.1180   22.7010   15.4750 C.ar      1 FDA501      0.0000 
     36 C8M         7.9390   22.4300   14.5300 C.3       1 FDA501      0.0000 
     37 C9         10.3940   22.2060   15.0610 C.ar      1 FDA501      0.0000 
     38 C9A        11.5260   22.4850   15.8760 C.ar      1 FDA501      0.0000 
     39 N10        12.8320   21.9880   15.5190 N.pl3     1 FDA501      0.0000 
     40 C10        13.8980   22.5610   16.1700 C.2       1 FDA501      0.0000 
     41 C1'        13.0440   21.4140   14.1670 C.3       1 FDA501      0.0000 
     42 C2'        13.5370   22.4080   13.0880 C.3       1 FDA501      0.0000 
     43 O2'        12.7010   23.5660   13.0580 O.3       1 FDA501      0.0000 
     44 C3'        13.4940   21.7190   11.7200 C.3       1 FDA501      0.0000 
     45 O3'        14.0310   20.3930   11.9000 O.3       1 FDA501      0.0000 
     46 C4'        14.3160   22.4090   10.6400 C.3       1 FDA501      0.0000 
     47 O4'        13.9510   23.7970   10.5860 O.3       1 FDA501      0.0000 
     48 C5'        13.9540   21.7580    9.2940 C.3       1 FDA501      0.0000 
     49 O5'        14.7240   22.4120    8.2620 O.3       1 FDA501      0.0000 
     50 P          14.3830   22.0680    6.7440 P.3       1 FDA501      0.0000 
     51 O1P        15.2310   22.9900    5.8740 O.co2     1 FDA501      0.0000 
     52 O2P        14.4890   20.5720    6.5990 O.co2     1 FDA501      0.0000 
     53 O3P        12.7840   22.3530    6.5620 O.3       1 FDA501      0.0000 
     54 H          10.5358   23.2246    4.2103 H         1 FDA501      0.0000 
     55 H          12.1242   22.8749    3.5069 H         1 FDA501      0.0000 
     56 H          12.1497   25.1885    2.5798 H         1 FDA501      0.0000 
     57 H           9.8248   25.4534    4.1866 H         1 FDA501      0.0000 
     58 H           8.3588   24.8908    2.5858 H         1 FDA501      0.0000 
     59 H          10.2495   25.6111    0.4280 H         1 FDA501      0.0000 
     60 H           8.1491   22.6218    1.5898 H         1 FDA501      0.0000 
     61 H           7.0563   21.6618   -4.3401 H         1 FDA501      0.0000 
     62 H           6.6909   21.1732   -2.6509 H         1 FDA501      0.0000 
     63 H           9.6440   25.3811   -3.9957 H         1 FDA501      0.0000 
     64 H          15.3272   21.7728   14.8827 H         1 FDA501      0.0000 
     65 H          16.8202   24.3932   17.7488 H         1 FDA501      0.0000 
     66 H          12.2158   23.8281   18.8428 H         1 FDA501      0.0000 
     67 H           9.9316   24.1859   18.3280 H         1 FDA501      0.0000 
     68 H          10.4854   21.6736   14.2132 H         1 FDA501      0.0000 
     69 H          12.1007   20.9560   13.7951 H         1 FDA501      0.0000 
     70 H          13.7804   20.5814   14.2175 H         1 FDA501      0.0000 
     71 H          14.5578   22.6551   13.3063 H         1 FDA501      0.0000 
     72 H          12.4685   21.6546   11.3981 H         1 FDA501      0.0000 
     73 H          15.3414   22.2618   10.8267 H         1 FDA501      0.0000 
     74 H          12.8866   21.8821    9.1391 H         1 FDA501      0.0000 
     75 H          14.1879   20.6999    9.3609 H         1 FDA501      0.0000 
     76 H           7.2745   23.6602   17.9277 H         1 FDA501      0.0000 
     77 H           7.5922   25.0054   17.1059 H         1 FDA501      0.0000 
     78 H           6.8543   23.7749   16.3797 H         1 FDA501      0.0000 
     79 H           8.2164   21.8899   13.7355 H         1 FDA501      0.0000 
     80 H           7.2059   21.9253   14.9860 H         1 FDA501      0.0000 
     81 H           7.5389   23.2781   14.1827 H         1 FDA501      0.0000 
     82 H          11.2257   27.1339    2.3181 H         1 FDA501      0.0000 
     83 H           9.2909   27.3823    1.5244 H         1 FDA501      0.0000 
     84 H          12.8844   23.9946   12.1733 H         1 FDA501      0.0000 
     85 H          14.0740   20.0041   10.9797 H         1 FDA501      0.0000 
     86 H          13.9953   24.0386    9.6166 H         1 FDA501      0.0000 
@<TRIPOS>BOND
     1    2    1 ar   
     2    3    1 ar   
     3    4    1 1    
     4   53    1 1    
     5    5    4 1    
     6    6    5 1    
     7   54    5 1    
     8   55    5 1    
     9    7    6 1    
    10    8    6 1    
    11   56    6 1    
    12   12    7 1    
    13    9    8 1    
    14   10    8 1    
    15   57    8 1    
    16   82    9 1    
    17   11   10 1    
    18   12   10 1    
    19   58   10 1    
    20   83   11 1    
    21   13   12 1    
    22   59   12 1    
    23   14   13 1    
    24   22   13 1    
    25   15   14 2    
    26   60   14 1    
    27   16   15 1    
    28   17   16 ar   
    29   22   16 ar   
    30   18   17 1    
    31   19   17 ar   
    32   61   18 1    
    33   62   18 1    
    34   20   19 ar   
    35   21   20 ar   
    36   63   20 1    
    37   22   21 ar   
    38   24   23 am   
    39   40   23 1    
    40   64   23 1    
    41   25   24 2    
    42   26   24 am   
    43   27   26 am   
    44   65   26 1    
    45   28   27 2    
    46   29   27 1    
    47   30   29 1    
    48   40   29 2    
    49   31   30 1    
    50   66   30 1    
    51   32   31 ar   
    52   38   31 ar   
    53   33   32 ar   
    54   67   32 1    
    55   34   33 1    
    56   35   33 ar   
    57   76   34 1    
    58   77   34 1    
    59   78   34 1    
    60   36   35 1    
    61   37   35 ar   
    62   79   36 1    
    63   80   36 1    
    64   81   36 1    
    65   38   37 ar   
    66   68   37 1    
    67   39   38 1    
    68   40   39 1    
    69   41   39 1    
    70   42   41 1    
    71   69   41 1    
    72   70   41 1    
    73   43   42 1    
    74   44   42 1    
    75   71   42 1    
    76   84   43 1    
    77   45   44 1    
    78   46   44 1    
    79   72   44 1    
    80   85   45 1    
    81   47   46 1    
    82   48   46 1    
    83   73   46 1    
    84   86   47 1    
    85   49   48 1    
    86   74   48 1    
    87   75   48 1    
    88   50   49 1    
    89   51   50 ar   
    90   52   50 ar   
    91   53   50 1    
@<TRIPOS>SUBSTRUCTURE
     1 FDA501      1 GROUP   
@<TRIPOS>SET

