#    Name: 2WC4_2_CAVITY_N1_6.mol2
#    Modification time : Mon Mar 10 19:24:51 2014

@<TRIPOS>MOLECULE
2WC4_2_CAVITY_N1_6.mol2
  169     0     6     0     0
SMALL
NO_CHARGES


@<TRIPOS>ATOM
      1 N          12.8234    6.8340  -54.6178 N.2       2 ALA2        0.0000 
      2 CZ         11.4411    7.1914  -54.1578 C.ar      4 PHE5        0.0000 
      3 NZ         10.0589    7.5489  -53.6979 N.2       3 LYS4        0.0000 
      4 CA         13.6251    5.5329  -56.0890 C.3       5 GLY6        0.0000 
      5 DU         12.2429    5.8904  -55.6290 H         6 CUB7        0.0000 
      6 DU         10.8606    6.2479  -55.1691 H         6 CUB7        0.0000 
      7 NZ          9.4783    6.6053  -54.7091 N.2       3 LYS4        0.0000 
      8 NZ          8.0961    6.9628  -54.2492 N.2       3 LYS4        0.0000 
      9 NZ          6.7138    7.3202  -53.7892 N.2       3 LYS4        0.0000 
     10 CZ         14.4269    4.2319  -57.5602 C.ar      4 PHE5        0.0000 
     11 CA         13.0446    4.5893  -57.1002 C.3       5 GLY6        0.0000 
     12 DU         11.6624    4.9468  -56.6403 H         6 CUB7        0.0000 
     13 DU         10.2801    5.3043  -56.1803 H         6 CUB7        0.0000 
     14 CZ          8.8978    5.6617  -55.7204 C.ar      4 PHE5        0.0000 
     15 CZ          7.5156    6.0192  -55.2604 C.ar      4 PHE5        0.0000 
     16 CZ         13.8464    3.2883  -58.5714 C.ar      4 PHE5        0.0000 
     17 CA         12.4641    3.6457  -58.1115 C.3       5 GLY6        0.0000 
     18 DU         11.0818    4.0032  -57.6515 H         6 CUB7        0.0000 
     19 DU          9.6996    4.3607  -57.1916 H         6 CUB7        0.0000 
     20 CZ          8.3173    4.7181  -56.7316 C.ar      4 PHE5        0.0000 
     21 CZ          6.9350    5.0756  -56.2717 C.ar      4 PHE5        0.0000 
     22 O          13.2658    2.3447  -59.5827 O.2       2 ALA2        0.0000 
     23 O          11.8836    2.7022  -59.1227 O.2       2 ALA2        0.0000 
     24 CA         10.5013    3.0596  -58.6628 C.3       5 GLY6        0.0000 
     25 CZ          9.1190    3.4171  -58.2028 C.ar      4 PHE5        0.0000 
     26 O          12.6853    1.4011  -60.5939 O.2       2 ALA2        0.0000 
     27 O          11.3031    1.7586  -60.1340 O.2       2 ALA2        0.0000 
     28 N           9.9208    2.1160  -59.6740 N.2       2 ALA2        0.0000 
     29 CZ          8.5385    2.4735  -59.2141 C.ar      4 PHE5        0.0000 
     30 O          10.7225    0.8150  -61.1452 O.2       2 ALA2        0.0000 
     31 DU         14.0606    9.8062  -58.1013 H         6 CUB7        0.0000 
     32 DU         12.6783   10.1636  -57.6414 H         6 CUB7        0.0000 
     33 CZ         11.2961   10.5211  -57.1814 C.ar      4 PHE5        0.0000 
     34 CA          9.9138   10.8786  -56.7215 C.3       5 GLY6        0.0000 
     35 DU         14.8624    8.5051  -59.5725 H         6 CUB7        0.0000 
     36 CZ         12.0978    9.2201  -58.6526 C.ar      4 PHE5        0.0000 
     37 CZ         10.7156    9.5775  -58.1927 C.ar      4 PHE5        0.0000 
     38 CZ         17.0464    6.8466  -61.5037 C.ar      4 PHE5        0.0000 
     39 CZ         15.6641    7.2041  -61.0438 C.ar      4 PHE5        0.0000 
     40 DU         12.8996    7.9190  -60.1238 H         6 CUB7        0.0000 
     41 CZ         11.5173    8.2765  -59.6639 C.ar      4 PHE5        0.0000 
     42 OG         17.8481    5.5456  -62.9749 O.2       1 SER1        0.0000 
     43 CZ         16.4659    5.9030  -62.5150 C.ar      4 PHE5        0.0000 
     44 DU         15.0836    6.2605  -62.0550 H         6 CUB7        0.0000 
     45 DU         12.3191    6.9754  -61.1351 H         6 CUB7        0.0000 
     46 O          10.9368    7.3329  -60.6751 O.2       2 ALA2        0.0000 
     47 OG         17.2676    4.6020  -63.9862 O.2       1 SER1        0.0000 
     48 CZ         15.8853    4.9594  -63.5262 C.ar      4 PHE5        0.0000 
     49 CZ         14.5031    5.3169  -63.0663 C.ar      4 PHE5        0.0000 
     50 DU         13.1208    5.6744  -62.6063 H         6 CUB7        0.0000 
     51 N          11.7385    6.0318  -62.1464 N.2       2 ALA2        0.0000 
     52 O          10.3563    6.3893  -61.6864 O.2       2 ALA2        0.0000 
     53 CZ          8.9740    6.7467  -61.2264 C.ar      4 PHE5        0.0000 
     54 CZ         15.3048    4.0158  -64.5375 C.ar      4 PHE5        0.0000 
     55 CZ         13.9226    4.3733  -64.0775 C.ar      4 PHE5        0.0000 
     56 N          12.5403    4.7308  -63.6176 N.2       2 ALA2        0.0000 
     57 N          11.1580    5.0882  -63.1576 N.2       2 ALA2        0.0000 
     58 N           9.7758    5.4457  -62.6977 N.2       2 ALA2        0.0000 
     59 CA          8.3935    5.8032  -62.2377 C.3       5 GLY6        0.0000 
     60 N           8.8216    4.5767  -50.2143 N.2       2 ALA2        0.0000 
     61 N          11.9733    9.2449  -54.1544 N.2       2 ALA2        0.0000 
     62 N          14.1573    7.5864  -56.0856 N.2       2 ALA2        0.0000 
     63 N          12.7750    7.9439  -55.6256 N.2       2 ALA2        0.0000 
     64 NZ         11.3928    8.3013  -55.1657 N.2       3 LYS4        0.0000 
     65 CA         14.9591    6.2853  -57.5568 C.3       5 GLY6        0.0000 
     66 DU         13.5768    6.6428  -57.0968 H         6 CUB7        0.0000 
     67 DU         12.1945    7.0003  -56.6369 H         6 CUB7        0.0000 
     68 DU         10.8123    7.3577  -56.1769 H         6 CUB7        0.0000 
     69 CZ          9.4300    7.7152  -55.7170 C.ar      4 PHE5        0.0000 
     70 NZ          8.0477    8.0727  -55.2570 N.2       3 LYS4        0.0000 
     71 CZ         14.3785    5.3418  -58.5681 C.ar      4 PHE5        0.0000 
     72 DU         12.9963    5.6992  -58.1081 H         6 CUB7        0.0000 
     73 DU         11.6140    6.0567  -57.6481 H         6 CUB7        0.0000 
     74 CZ         10.2317    6.4142  -57.1882 C.ar      4 PHE5        0.0000 
     75 CZ          8.8495    6.7716  -56.7282 C.ar      4 PHE5        0.0000 
     76 CZ         13.7980    4.3982  -59.5793 C.ar      4 PHE5        0.0000 
     77 DU         12.4158    4.7556  -59.1194 H         6 CUB7        0.0000 
     78 DU         11.0335    5.1131  -58.6594 H         6 CUB7        0.0000 
     79 CZ          9.6512    5.4706  -58.1994 C.ar      4 PHE5        0.0000 
     80 CZ          8.2690    5.8280  -57.7395 C.ar      4 PHE5        0.0000 
     81 CZ         14.5998    3.0971  -61.0505 C.ar      4 PHE5        0.0000 
     82 CZ         13.2175    3.4546  -60.5906 C.ar      4 PHE5        0.0000 
     83 DU         11.8352    3.8120  -60.1306 H         6 CUB7        0.0000 
     84 DU          9.0707    4.5270  -59.2107 H         6 CUB7        0.0000 
     85 CA          7.6884    4.8844  -58.7507 C.3       5 GLY6        0.0000 
     86 N          14.0192    2.1535  -62.0618 N.2       2 ALA2        0.0000 
     87 DU         12.6370    2.5110  -61.6018 H         6 CUB7        0.0000 
     88 DU         11.2547    2.8684  -61.1419 H         6 CUB7        0.0000 
     89 DU          9.8724    3.2259  -60.6819 H         6 CUB7        0.0000 
     90 CA          8.4902    3.5834  -60.2220 C.3       5 GLY6        0.0000 
     91 CZ         12.0565    1.5674  -62.6131 C.ar      4 PHE5        0.0000 
     92 CA         10.6742    1.9249  -62.1531 C.3       5 GLY6        0.0000 
     93 N           9.2919    2.2823  -61.6932 N.2       2 ALA2        0.0000 
     94 O           7.9097    2.6398  -61.2332 O.2       2 ALA2        0.0000 
     95 N          15.9337    3.8495  -62.5183 N.2       2 ALA2        0.0000 
     96 N          14.5514    4.2070  -62.0584 N.2       2 ALA2        0.0000 
     97 DU         13.1692    4.5645  -61.5984 H         6 CUB7        0.0000 
     98 DU         11.7869    4.9219  -61.1385 H         6 CUB7        0.0000 
     99 DU         10.4046    5.2794  -60.6785 H         6 CUB7        0.0000 
    100 CZ          9.0224    5.6369  -60.2186 C.ar      4 PHE5        0.0000 
    101 N          13.9709    3.2634  -63.0696 N.2       2 ALA2        0.0000 
    102 N          12.5886    3.6209  -62.6097 N.2       2 ALA2        0.0000 
    103 N          11.2064    3.9783  -62.1497 N.2       2 ALA2        0.0000 
    104 N           9.8241    4.3358  -61.6898 N.2       2 ALA2        0.0000 
    105 CA          8.4418    4.6933  -61.2298 C.3       5 GLY6        0.0000 
    106 CA          7.0596    5.0507  -60.7699 C.3       5 GLY6        0.0000 
    107 CZ         13.3904    2.3198  -64.0809 C.ar      4 PHE5        0.0000 
    108 N          12.0081    2.6773  -63.6209 N.2       2 ALA2        0.0000 
    109 CA          7.8613    3.7497  -62.2411 C.3       5 GLY6        0.0000 
    110 DU         12.6300   11.2735  -58.6493 H         6 CUB7        0.0000 
    111 CA         11.2477   11.6310  -58.1893 C.3       5 GLY6        0.0000 
    112 CZ         10.6672   10.6874  -59.2006 C.ar      4 PHE5        0.0000 
    113 DU         16.4175    7.0129  -63.5228 H         6 CUB7        0.0000 
    114 DU         15.0352    7.3704  -63.0629 H         6 CUB7        0.0000 
    115 CZ         17.2193    5.7119  -64.9940 C.ar      4 PHE5        0.0000 
    116 CZ         15.8370    6.0693  -64.5341 C.ar      4 PHE5        0.0000 
    117 CZ         14.4547    6.4268  -64.0741 C.ar      4 PHE5        0.0000 
    118 O          10.3079    7.4992  -62.6943 O.2       2 ALA2        0.0000 
    119 CZ         12.4919    5.8407  -64.6254 C.ar      4 PHE5        0.0000 
    120 CZ         11.4895    6.0816  -53.1499 C.ar      4 PHE5        0.0000 
    121 CA         10.1072    6.4390  -52.6900 C.3       5 GLY6        0.0000 
    122 NZ          8.7249    6.7965  -52.2300 N.2       3 LYS4        0.0000 
    123 NZ          7.3427    7.1539  -51.7701 N.2       3 LYS4        0.0000 
    124 NZ         12.2912    4.7805  -54.6211 N.2       3 LYS4        0.0000 
    125 NZ         10.9090    5.1380  -54.1612 N.2       3 LYS4        0.0000 
    126 NZ          9.5267    5.4954  -53.7012 N.2       3 LYS4        0.0000 
    127 NZ          8.1444    5.8529  -53.2413 N.2       3 LYS4        0.0000 
    128 NZ          6.7622    6.2104  -52.7813 N.2       3 LYS4        0.0000 
    129 NZ         11.7107    3.8369  -55.6324 N.2       3 LYS4        0.0000 
    130 NZ         10.3284    4.1944  -55.1724 N.2       3 LYS4        0.0000 
    131 NZ          8.9462    4.5518  -54.7125 N.2       3 LYS4        0.0000 
    132 CZ          7.5639    4.9093  -54.2525 C.ar      4 PHE5        0.0000 
    133 CA         12.5124    2.5359  -57.1036 C.3       5 GLY6        0.0000 
    134 CA         11.1302    2.8933  -56.6437 C.3       5 GLY6        0.0000 
    135 NZ          9.7479    3.2508  -56.1837 N.2       3 LYS4        0.0000 
    136 CZ          8.3656    3.6082  -55.7237 C.ar      4 PHE5        0.0000 
    137 CA         10.5497    1.9497  -57.6549 C.3       5 GLY6        0.0000 
    138 NZ          9.1674    2.3072  -57.1950 N.2       3 LYS4        0.0000 
    139 CA          9.9691    1.0061  -58.6662 C.3       5 GLY6        0.0000 
    140 CZ          8.5869    1.3636  -58.2062 C.ar      4 PHE5        0.0000 
    141 CZ         10.1556    5.3291  -51.6821 C.ar      4 PHE5        0.0000 
    142 O           8.7733    5.6866  -51.2222 O.2       2 ALA2        0.0000 
    143 CZ          7.3910    6.0441  -50.7622 C.ar      4 PHE5        0.0000 
    144 NZ          9.5750    4.3855  -52.6934 N.2       3 LYS4        0.0000 
    145 NZ          8.1928    4.7430  -52.2334 N.2       3 LYS4        0.0000 
    146 NZ          6.8105    5.1005  -51.7735 N.2       3 LYS4        0.0000 
    147 NZ          8.9945    3.4419  -53.7046 N.2       3 LYS4        0.0000 
    148 CZ         13.3420    3.4297  -65.0888 C.ar      4 PHE5        0.0000 
    149 N          11.9598    3.7872  -64.6288 N.2       2 ALA2        0.0000 
    150 NZ         10.5427   10.7123  -54.7023 N.2       3 LYS4        0.0000 
    151 DU         14.1090    8.6963  -57.0935 H         6 CUB7        0.0000 
    152 DU         12.7267    9.0538  -56.6335 H         6 CUB7        0.0000 
    153 DU         11.3444    9.4112  -56.1736 H         6 CUB7        0.0000 
    154 NZ          9.9622    9.7687  -55.7136 N.2       3 LYS4        0.0000 
    155 CA         16.2930    7.0378  -59.0246 C.3       5 GLY6        0.0000 
    156 CA         14.9107    7.3952  -58.5647 C.3       5 GLY6        0.0000 
    157 DU         13.5284    7.7527  -58.1047 H         6 CUB7        0.0000 
    158 DU         12.1462    8.1102  -57.6448 H         6 CUB7        0.0000 
    159 CZ         10.7639    8.4676  -57.1848 C.ar      4 PHE5        0.0000 
    160 CZ          9.3816    8.8251  -56.7249 C.ar      4 PHE5        0.0000 
    161 CZ         15.7125    6.0942  -60.0359 C.ar      4 PHE5        0.0000 
    162 DU         14.3302    6.4516  -59.5759 H         6 CUB7        0.0000 
    163 CZ         11.5657    7.1666  -58.6560 C.ar      4 PHE5        0.0000 
    164 CZ         10.1834    7.5240  -58.1961 C.ar      4 PHE5        0.0000 
    165 CZ         16.5142    4.7931  -61.5071 C.ar      4 PHE5        0.0000 
    166 CZ         15.1319    5.1506  -61.0471 C.ar      4 PHE5        0.0000 
    167 DU         13.7497    5.5081  -60.5872 H         6 CUB7        0.0000 
    168 CZ         10.9851    6.2230  -59.6673 C.ar      4 PHE5        0.0000 
    169 CZ          9.6029    6.5805  -59.2073 C.ar      4 PHE5        0.0000 
@<TRIPOS>BOND
@<TRIPOS>SUBSTRUCTURE
     1 SER1       42 GROUP   
     2 ALA2        1 GROUP   
     3 LYS4        3 GROUP   
     4 PHE5        2 GROUP   
     5 GLY6        4 GROUP   
     6 CUB7        5 GROUP   
@<TRIPOS>SET

