#    Name: 2wc4_AMF_2_INTS_M
#    Modification time : Tue Mar 25 04:03:26 2014

@<TRIPOS>MOLECULE
2wc4_AMF_2_INTS_M
   65     0     9     0     0
SMALL
NO_CHARGES


@<TRIPOS>ATOM
      1 N           7.3310    7.9300  -49.5675 N.am      2 SEC2        0.0000 
      2 N           6.9570    7.2330  -50.8480 N.am      8 SEL2        0.0000 
      3 N           7.7050    8.6270  -48.2870 N.am      5 SEP2        0.0000 
      4 O           6.8800    8.4435  -51.2755 O.2       1 ALC1        0.0000 
      5 O           6.9570    7.2330  -50.8480 O.2       7 ALL1        0.0000 
      6 O           6.8030    9.6540  -51.7030 O.2       4 ALP1        0.0000 
      7 CA          6.0485    6.0285  -50.6235 C.3       3 GLC5        0.0000 
      8 CA          7.7350    6.2920  -51.6210 C.3       9 GLL5        0.0000 
      9 CA          4.3620    5.7650  -49.6260 C.3       6 GLP5        0.0000 
     10 CA          9.2245    7.4445  -51.0270 C.3       3 GLC5        0.0000 
     11 CA         10.7140    8.5970  -50.4330 C.3       6 GLP5        0.0000 
     12 CA          5.1530    5.3800  -55.5820 C.3       3 GLC5        0.0000 
     13 CA          6.5230    6.4770  -55.3740 C.3       9 GLL5        0.0000 
     14 CA          3.7830    4.2830  -55.7900 C.3       6 GLP5        0.0000 
     15 CA          6.5995    5.4845  -49.7035 C.3       3 GLC5        0.0000 
     16 CA          7.9820    5.0000  -50.8670 C.3       9 GLL5        0.0000 
     17 CA          5.2170    5.9690  -48.5400 C.3       6 GLP5        0.0000 
     18 N           9.0345    4.1960  -48.7020 N.am      2 SEC2        0.0000 
     19 N           8.5860    5.2850  -49.6030 N.am      8 SEL2        0.0000 
     20 N           9.4830    3.1070  -47.8010 N.am      5 SEP2        0.0000 
     21 N           9.5185    6.4460  -49.5565 N.am      2 SEC2        0.0000 
     22 N          10.4510    7.6070  -49.5100 N.am      5 SEP2        0.0000 
     23 O           8.3215    5.9450  -48.4795 O.2       1 ALC1        0.0000 
     24 O           8.5860    5.2850  -49.6030 O.2       7 ALL1        0.0000 
     25 O           8.0570    6.6050  -47.3560 O.2       4 ALP1        0.0000 
     26 CA         10.8960    4.5565  -51.4450 C.3       3 GLC5        0.0000 
     27 CA          8.9980    4.1530  -51.5940 C.3       9 GLL5        0.0000 
     28 CA         12.7940    4.9600  -51.2960 C.3       6 GLP5        0.0000 
     29 N           9.2390    2.9865  -49.3750 N.am      2 SEC2        0.0000 
     30 N           8.9950    2.8660  -50.9490 N.am      8 SEL2        0.0000 
     31 N          10.0080    2.0165  -50.3240 N.am      2 SEC2        0.0000 
     32 N          11.0210    1.1670  -49.6990 N.am      5 SEP2        0.0000 
     33 N           7.9380    2.0395  -50.6630 N.am      2 SEC2        0.0000 
     34 N           6.8810    1.2130  -50.3770 N.am      5 SEP2        0.0000 
     35 CA          7.1635    3.3505  -54.4150 C.3       3 GLC5        0.0000 
     36 CA          8.7240    4.0100  -53.0950 C.3       9 GLL5        0.0000 
     37 CA          5.6030    2.6910  -55.7350 C.3       6 GLP5        0.0000 
     38 O          10.7070    3.0300  -53.5935 O.2       1 ALC1        0.0000 
     39 O           9.9420    4.0350  -53.8540 O.2       7 ALL1        0.0000 
     40 O          11.4720    2.0250  -53.3330 O.2       4 ALP1        0.0000 
     41 CA          6.6485    3.9660  -55.3885 C.3       3 GLC5        0.0000 
     42 CA          7.6940    5.2410  -55.0420 C.3       9 GLL5        0.0000 
     43 CA          6.9055    3.8345  -57.2920 C.3       3 GLC5        0.0000 
     44 CA          8.1370    4.9160  -57.4480 C.3       9 GLL5        0.0000 
     45 CA          5.6740    2.7530  -57.1360 C.3       6 GLP5        0.0000 
     46 CA          9.0835    7.7370  -61.0745 C.3       3 GLC5        0.0000 
     47 CA         10.3380    6.4480  -61.7250 C.3       9 GLL5        0.0000 
     48 CA          7.8290    9.0260  -60.4240 C.3       6 GLP5        0.0000 
     49 CA          9.6160    8.4040  -62.3675 C.3       3 GLC5        0.0000 
     50 CA         11.5130    7.3430  -62.1210 C.3       9 GLL5        0.0000 
     51 CA          7.7190    9.4650  -62.6140 C.3       6 GLP5        0.0000 
     52 CA          5.6765    4.9755  -54.1853 C.3       3 GLC5        0.0000 
     53 CA          6.4570    7.0720  -53.7060 C.3       9 GLL5        0.0000 
     54 CA          4.6420    3.4730  -55.0870 C.3       6 GLP5        0.0000 
     55 CA          4.9195    6.2200  -52.3832 C.3       3 GLC5        0.0000 
     56 CA          6.9650    5.8840  -52.8610 C.3       9 GLL5        0.0000 
     57 CA          3.1280    5.9620  -51.4830 C.3       6 GLP5        0.0000 
     58 CA          5.3480    7.9373  -55.1205 C.3       3 GLC5        0.0000 
     59 CA          4.2060    9.1000  -55.7010 C.3       6 GLP5        0.0000 
     60 CA          7.2242    7.0650  -56.7195 C.3       3 GLC5        0.0000 
     61 CA          7.3400    8.2710  -58.2310 C.3       6 GLP5        0.0000 
     62 CA          8.0377    6.7633  -57.9993 C.3       3 GLC5        0.0000 
     63 CA          9.0075    7.4248  -59.4978 C.3       3 GLC5        0.0000 
     64 CA          9.2020    5.5980  -59.6100 C.3       9 GLL5        0.0000 
     65 CA          8.1910    8.9320  -59.0820 C.3       6 GLP5        0.0000 
@<TRIPOS>BOND
@<TRIPOS>SUBSTRUCTURE
     1 ALC1        4 GROUP        1 X    ALC  0     ROOT ALC X 1
     2 SEC2        1 GROUP        1 X    SEC  0     **** SEC X 2
     3 GLC5        7 GROUP        1 X    GLC  0     **** GLC X 6
     4 ALP1        6 GROUP        1 Y    ALP  0     ROOT ALP Y 8
     5 SEP2        3 GROUP        1 Y    SEP  0     **** SEP Y 9
     6 GLP5        9 GROUP        1 Y    GLP  0     **** GLP Y 13
     7 ALL1        5 GROUP        1 Z    ALL  0     ROOT ALL Z 15
     8 SEL2        2 GROUP        1 Z    SEL  0     **** SEL Z 16
     9 GLL5        8 GROUP        1 Z    GLL  0     **** GLL Z 20
@<TRIPOS>SET

