#    Name: 2wc4_AMF_2_ligand
#    Modification time : Tue Mar 25 04:03:26 2014

@<TRIPOS>MOLECULE
2wc4_AMF_2_ligand
   51    52     1     0     0
SMALL
NO_CHARGES


@<TRIPOS>ATOM
      1 O4          6.9570    7.2330  -50.8480 O.3       1 AMF1446     0.0000 
      2 C4          7.7350    6.2920  -51.6210 C.3       1 AMF1446     0.0000 
      3 C5          6.9650    5.8840  -52.8610 C.3       1 AMF1446     0.0000 
      4 C6          6.4570    7.0720  -53.7060 C.3       1 AMF1446     0.0000 
      5 S1          6.5230    6.4770  -55.3740 S.3       1 AMF1446     0.0000 
      6 C3          7.9820    5.0000  -50.8670 C.3       1 AMF1446     0.0000 
      7 O3          8.5860    5.2850  -49.6030 O.3       1 AMF1446     0.0000 
      8 C2          8.9980    4.1530  -51.5940 C.3       1 AMF1446     0.0000 
      9 O2          8.9950    2.8660  -50.9490 O.3       1 AMF1446     0.0000 
     10 C1          8.7240    4.0100  -53.0950 C.3       1 AMF1446     0.0000 
     11 O1          9.9420    4.0350  -53.8540 O.3       1 AMF1446     0.0000 
     12 N1          7.8530    5.0220  -53.6740 N.pl3     1 AMF1446     0.0000 
     13 C7          7.6940    5.2410  -55.0420 C.2       1 AMF1446     0.0000 
     14 N2          8.3880    4.6890  -56.0200 N.pl3     1 AMF1446     0.0000 
     15 C8          8.1370    4.9160  -57.4480 C.3       1 AMF1446     0.0000 
     16 C9          9.3340    5.5950  -58.0870 C.3       1 AMF1446     0.0000 
     17 C10         9.2020    5.5980  -59.6100 C.3       1 AMF1446     0.0000 
     18 C11        10.4460    6.2370  -60.2170 C.3       1 AMF1446     0.0000 
     19 C12        10.3380    6.4480  -61.7250 C.3       1 AMF1446     0.0000 
     20 C13        11.5130    7.3430  -62.1210 C.3       1 AMF1446     0.0000 
     21 C14        11.7610    7.4230  -63.6250 C.3       1 AMF1446     0.0000 
     22 C15        13.2220    7.7390  -63.9070 C.3       1 AMF1446     0.0000 
     23 H           8.6737    6.6938  -51.9295 H         1 AMF1446     0.0000 
     24 H           6.1031    5.2934  -52.5511 H         1 AMF1446     0.0000 
     25 H           7.1101    7.8784  -53.7047 H         1 AMF1446     0.0000 
     26 H           5.4506    7.2752  -53.5552 H         1 AMF1446     0.0000 
     27 H           7.0849    4.4561  -50.7604 H         1 AMF1446     0.0000 
     28 H           9.9762    4.6176  -51.4661 H         1 AMF1446     0.0000 
     29 H           8.2511    3.0165  -53.2475 H         1 AMF1446     0.0000 
     30 H           9.1936    4.0277  -55.8213 H         1 AMF1446     0.0000 
     31 H           7.2585    5.5525  -57.5882 H         1 AMF1446     0.0000 
     32 H           7.9574    3.9678  -57.9630 H         1 AMF1446     0.0000 
     33 H          10.2443    5.0657  -57.8094 H         1 AMF1446     0.0000 
     34 H           9.4017    6.6227  -57.7333 H         1 AMF1446     0.0000 
     35 H           8.3278    6.1688  -59.8929 H         1 AMF1446     0.0000 
     36 H           9.1093    4.5800  -59.9638 H         1 AMF1446     0.0000 
     37 H          11.3164    5.5993  -60.0065 H         1 AMF1446     0.0000 
     38 H          10.6244    7.2073  -59.7319 H         1 AMF1446     0.0000 
     39 H           9.4168    6.9423  -61.9551 H         1 AMF1446     0.0000 
     40 H          10.4187    5.5064  -62.2278 H         1 AMF1446     0.0000 
     41 H          12.4268    6.9707  -61.6266 H         1 AMF1446     0.0000 
     42 H          11.3324    8.3603  -61.7331 H         1 AMF1446     0.0000 
     43 H          11.1331    8.2031  -64.0507 H         1 AMF1446     0.0000 
     44 H          11.5019    6.4702  -64.0821 H         1 AMF1446     0.0000 
     45 H          13.8321    7.0416  -63.5309 H         1 AMF1446     0.0000 
     46 H          13.4077    7.7926  -64.8881 H         1 AMF1446     0.0000 
     47 H          13.4963    8.6142  -63.5085 H         1 AMF1446     0.0000 
     48 H           7.0125    8.0929  -51.3554 H         1 AMF1446     0.0000 
     49 H           7.8517    5.6751  -49.0475 H         1 AMF1446     0.0000 
     50 H           9.0790    2.2035  -51.6933 H         1 AMF1446     0.0000 
     51 H          10.6087    3.5483  -53.2894 H         1 AMF1446     0.0000 
@<TRIPOS>BOND
     1    2    1 1    
     2   48    1 1    
     3    3    2 1    
     4    6    2 1    
     5   23    2 1    
     6    4    3 1    
     7   12    3 1    
     8   24    3 1    
     9    5    4 1    
    10   25    4 1    
    11   26    4 1    
    12   13    5 1    
    13    7    6 1    
    14    8    6 1    
    15   27    6 1    
    16   49    7 1    
    17    9    8 1    
    18   10    8 1    
    19   28    8 1    
    20   50    9 1    
    21   11   10 1    
    22   12   10 1    
    23   29   10 1    
    24   51   11 1    
    25   13   12 1    
    26   14   13 2    
    27   15   14 1    
    28   30   14 1    
    29   16   15 1    
    30   31   15 1    
    31   32   15 1    
    32   17   16 1    
    33   33   16 1    
    34   34   16 1    
    35   18   17 1    
    36   35   17 1    
    37   36   17 1    
    38   19   18 1    
    39   37   18 1    
    40   38   18 1    
    41   20   19 1    
    42   39   19 1    
    43   40   19 1    
    44   21   20 1    
    45   41   20 1    
    46   42   20 1    
    47   22   21 1    
    48   43   21 1    
    49   44   21 1    
    50   45   22 1    
    51   46   22 1    
    52   47   22 1    
@<TRIPOS>SUBSTRUCTURE
     1 AMF1446     1 GROUP   
@<TRIPOS>SET

