#    Name: 2O07_2_CAVITY_N1_6.mol2
#    Modification time : Tue Mar 11 01:21:36 2014

@<TRIPOS>MOLECULE
2O07_2_CAVITY_N1_6.mol2
   55     0     4     0     0
SMALL
NO_CHARGES


@<TRIPOS>ATOM
      1 CA         14.3933   25.9270   31.6169 C.3       3 GLY6        0.0000 
      2 CA         13.1564   24.5062   32.5923 C.3       3 GLY6        0.0000 
      3 O          15.0109   29.1200   32.4376 O.2       1 ALA2        0.0000 
      4 CA         13.7740   27.6992   33.4130 C.3       3 GLY6        0.0000 
      5 CA         14.1233   27.9986   31.9853 C.3       3 GLY6        0.0000 
      6 CA         14.4726   28.2980   30.5576 C.3       3 GLY6        0.0000 
      7 CA         14.8219   28.5974   29.1299 C.3       3 GLY6        0.0000 
      8 CA         12.5371   26.2784   34.3884 C.3       3 GLY6        0.0000 
      9 CA         12.8864   26.5778   32.9607 C.3       3 GLY6        0.0000 
     10 CA         13.2356   26.8772   31.5330 C.3       3 GLY6        0.0000 
     11 CA         11.6494   25.1570   33.9360 C.3       3 GLY6        0.0000 
     12 CA         11.9987   25.4564   32.5083 C.3       3 GLY6        0.0000 
     13 N          12.3480   25.7558   31.0806 N.2       1 ALA2        0.0000 
     14 NZ         14.3916   30.8921   34.2337 N.2       2 LYS4        0.0000 
     15 CA         14.7409   31.1915   32.8060 C.3       3 GLY6        0.0000 
     16 NZ         13.5040   29.7707   33.7814 N.2       2 LYS4        0.0000 
     17 DU         13.8533   30.0702   32.3537 H         4 CUB7        0.0000 
     18 N          14.2026   30.3696   30.9260 N.2       1 ALA2        0.0000 
     19 N          14.5518   30.6690   29.4983 N.2       1 ALA2        0.0000 
     20 CA         12.2671   28.3499   34.7568 C.3       3 GLY6        0.0000 
     21 NZ         12.6164   28.6494   33.3291 N.2       2 LYS4        0.0000 
     22 DU         12.9656   28.9488   31.9013 H         4 CUB7        0.0000 
     23 CA         13.3149   29.2482   30.4736 C.3       3 GLY6        0.0000 
     24 CA         13.6642   29.5476   29.0459 C.3       3 GLY6        0.0000 
     25 CA         11.3794   27.2285   34.3044 C.3       3 GLY6        0.0000 
     26 CA         11.7287   27.5280   32.8767 C.3       3 GLY6        0.0000 
     27 CA         12.0780   27.8274   31.4490 C.3       3 GLY6        0.0000 
     28 CA         10.4918   26.1072   33.8521 C.3       3 GLY6        0.0000 
     29 CA         10.8411   26.4066   32.4244 C.3       3 GLY6        0.0000 
     30 CA         11.1904   26.7060   30.9967 C.3       3 GLY6        0.0000 
     31 NZ         13.2340   31.8423   34.1498 N.2       2 LYS4        0.0000 
     32 CA         13.5833   32.1417   32.7221 C.3       3 GLY6        0.0000 
     33 CA         13.9325   32.4411   31.2944 C.3       3 GLY6        0.0000 
     34 NZ         12.3463   30.7209   33.6974 N.2       2 LYS4        0.0000 
     35 O          12.6956   31.0203   32.2697 O.2       1 ALA2        0.0000 
     36 CA         13.0449   31.3197   30.8420 C.3       3 GLY6        0.0000 
     37 CA         11.4587   29.5995   33.2451 C.3       3 GLY6        0.0000 
     38 O          11.8080   29.8989   31.8174 O.2       1 ALA2        0.0000 
     39 O          12.1573   30.1984   30.3897 O.2       1 ALA2        0.0000 
     40 CA         10.5711   28.4781   32.7928 C.3       3 GLY6        0.0000 
     41 CA         10.9204   28.7776   31.3651 C.3       3 GLY6        0.0000 
     42 O          12.9640   33.9139   34.5182 O.2       1 ALA2        0.0000 
     43 O          13.3132   34.2133   33.0904 O.2       1 ALA2        0.0000 
     44 O          12.0763   32.7925   34.0658 O.2       1 ALA2        0.0000 
     45 O          12.4256   33.0919   32.6381 O.2       1 ALA2        0.0000 
     46 N          11.1887   31.6711   33.6135 N.2       1 ALA2        0.0000 
     47 O          11.5380   31.9705   32.1858 O.2       1 ALA2        0.0000 
     48 O          12.1556   35.1635   33.0065 O.2       1 ALA2        0.0000 
     49 N          10.9187   33.7427   33.9819 N.2       1 ALA2        0.0000 
     50 O          11.2680   34.0421   32.5542 O.2       1 ALA2        0.0000 
     51 N          10.3804   32.9207   32.1018 N.2       1 ALA2        0.0000 
     52 NZ         10.9980   36.1136   32.9226 N.2       2 LYS4        0.0000 
     53 O          11.3473   36.4131   31.4948 O.2       1 ALA2        0.0000 
     54 NZ         10.1103   34.9922   32.4702 N.2       2 LYS4        0.0000 
     55 O          10.4596   35.2917   31.0425 O.2       1 ALA2        0.0000 
@<TRIPOS>BOND
@<TRIPOS>SUBSTRUCTURE
     1 ALA2        3 GROUP   
     2 LYS4       14 GROUP   
     3 GLY6        1 GROUP   
     4 CUB7       17 GROUP   
@<TRIPOS>SET

