#    Name: 2o07_MTA_2_INTS_M
#    Modification time : Tue Mar 25 21:46:54 2014

@<TRIPOS>MOLECULE
2o07_MTA_2_INTS_M
   71     0     9     0     0
SMALL
NO_CHARGES


@<TRIPOS>ATOM
      1 CA         14.9720   35.9580   33.9810 C.3       3 GLC5        0.0000 
      2 CA         13.2980   34.7010   33.8030 C.3       9 GLL5        0.0000 
      3 CA         16.6460   37.2150   34.1590 C.3       6 GLP5        0.0000 
      4 CA         14.7985   34.0285   32.6700 C.3       3 GLC5        0.0000 
      5 CA         16.2990   33.3560   31.5370 C.3       6 GLP5        0.0000 
      6 CA         13.7570   36.0855   32.3925 C.3       3 GLC5        0.0000 
      7 CA         14.2160   37.4700   30.9820 C.3       6 GLP5        0.0000 
      8 CA         15.1640   34.0730   34.8880 C.3       3 GLC5        0.0000 
      9 CA         17.0300   33.4450   35.9730 C.3       6 GLP5        0.0000 
     10 CA         10.8200   33.3505   35.8385 C.3       3 GLC5        0.0000 
     11 CA         11.7480   33.9620   34.1950 C.3       9 GLL5        0.0000 
     12 CA          9.8920   32.7390   37.4820 C.3       6 GLP5        0.0000 
     13 CA         12.7105   33.4265   36.1135 C.3       3 GLC5        0.0000 
     14 CA         13.6730   32.8910   38.0320 C.3       6 GLP5        0.0000 
     15 CA         10.0445   31.8010   32.0270 C.3       3 GLC5        0.0000 
     16 CA         11.6720   32.5580   33.1000 C.3       9 GLL5        0.0000 
     17 CA          8.4170   31.0440   30.9540 C.3       6 GLP5        0.0000 
     18 CA         11.1325   30.3345   34.7835 C.3       3 GLC5        0.0000 
     19 CA         12.4080   31.3560   33.7260 C.3       9 GLL5        0.0000 
     20 CA          9.8570   29.3130   35.8410 C.3       6 GLP5        0.0000 
     21 N          16.7105   29.4780   33.0020 N.am      2 SEC2        0.0000 
     22 N          15.4370   29.3960   33.7190 N.am      8 SEL2        0.0000 
     23 N          17.9840   29.5600   32.2850 N.am      5 SEP2        0.0000 
     24 O          15.2140   28.9270   34.8970 O.2       1 ALC1        0.0000 
     25 O          15.4370   29.3960   33.7190 O.2       7 ALL1        0.0000 
     26 O          14.9910   28.4580   36.0750 O.2       4 ALP1        0.0000 
     27 CA         15.4780   32.3950   34.7445 C.3       3 GLC5        0.0000 
     28 CA         13.9260   31.3450   33.5160 C.3       9 GLL5        0.0000 
     29 O          14.0595   30.7945   35.8215 O.2       1 ALC1        0.0000 
     30 O          14.5420   31.6250   34.7720 O.2       7 ALL1        0.0000 
     31 O          13.5770   29.9640   36.8710 O.2       4 ALP1        0.0000 
     32 O          14.7665   30.0415   35.4235 O.2       1 ALC1        0.0000 
     33 CA         11.4560   29.2345   34.6975 C.3       3 GLC5        0.0000 
     34 CA         13.0550   29.1560   33.5540 C.3       9 GLL5        0.0000 
     35 CA         14.2115   27.3595   33.7510 C.3       3 GLC5        0.0000 
     36 CA         15.3680   25.5630   33.9480 C.3       6 GLP5        0.0000 
     37 CA         11.7385   26.0435   30.2660 C.3       3 GLC5        0.0000 
     38 CA         12.1390   25.8250   32.4010 C.3       9 GLL5        0.0000 
     39 CA         11.3380   26.2620   28.1310 C.3       6 GLP5        0.0000 
     40 CA         13.2165   24.4605   33.8095 C.3       3 GLC5        0.0000 
     41 CA         11.5560   24.5320   32.7630 C.3       9 GLL5        0.0000 
     42 CA         14.8770   24.3890   34.8560 C.3       6 GLP5        0.0000 
     43 CA         11.7940   22.7255   33.7770 C.3       3 GLC5        0.0000 
     44 CA         12.0320   20.9190   34.7910 C.3       6 GLP5        0.0000 
     45 O          11.0790   22.2560   32.0215 O.2       1 ALC1        0.0000 
     46 O          11.4580   23.5520   31.8180 O.2       7 ALL1        0.0000 
     47 O          10.7000   20.9600   32.2250 O.2       4 ALP1        0.0000 
     48 O          12.0510   23.7555   30.4395 O.2       1 ALC1        0.0000 
     49 O          12.6440   23.9590   29.0610 O.2       4 ALP1        0.0000 
     50 N          10.4895   23.2100   34.4865 N.am      2 SEC2        0.0000 
     51 N          11.0940   24.4050   34.0240 N.am      8 SEL2        0.0000 
     52 N           9.8850   22.0150   34.9490 N.am      5 SEP2        0.0000 
     53 CA          9.1960   25.5480   34.9510 C.3       3 GLC5        0.0000 
     54 CA         11.1820   25.3730   34.9750 C.3       9 GLL5        0.0000 
     55 CA          7.2100   25.7230   34.9270 C.3       6 GLP5        0.0000 
     56 CA         10.5195   27.3430   35.4080 C.3       3 GLC5        0.0000 
     57 CA         11.9400   26.0545   36.7335 C.3       3 GLC5        0.0000 
     58 CA         12.6980   26.7360   38.4920 C.3       6 GLP5        0.0000 
     59 CA         13.0295   24.8810   34.9155 C.3       3 GLC5        0.0000 
     60 CA          9.8170   23.7740   35.1065 C.3       3 GLC5        0.0000 
     61 CA          8.4520   22.1750   35.2380 C.3       6 GLP5        0.0000 
     62 N          12.9340   26.1165   35.7860 N.am      2 SEC2        0.0000 
     63 N          11.7260   26.5850   34.7100 N.am      8 SEL2        0.0000 
     64 N          14.1420   25.6480   36.8620 N.am      5 SEP2        0.0000 
     65 CA         11.0355   28.0820   34.6480 C.3       3 GLC5        0.0000 
     66 CA         12.2140   26.8510   33.4550 C.3       9 GLL5        0.0000 
     67 CA         15.1995   31.9915   32.4180 C.3       3 GLC5        0.0000 
     68 CA         14.2740   29.9090   33.0820 C.3       9 GLL5        0.0000 
     69 CA         13.7722   25.9505   33.4380 C.3       3 GLC5        0.0000 
     70 CA         10.2654   26.1364   32.1427 C.3       3 GLC5        0.0000 
     71 CA          8.5000   26.2580   31.2670 C.3       6 GLP5        0.0000 
@<TRIPOS>BOND
@<TRIPOS>SUBSTRUCTURE
     1 ALC1       24 GROUP        1 X    ALC  0     ROOT ALC X 1
     2 SEC2       21 GROUP        1 X    SEC  0     **** SEC X 2
     3 GLC5        1 GROUP        1 X    GLC  0     **** GLC X 6
     4 ALP1       26 GROUP        1 Y    ALP  0     ROOT ALP Y 8
     5 SEP2       23 GROUP        1 Y    SEP  0     **** SEP Y 9
     6 GLP5        3 GROUP        1 Y    GLP  0     **** GLP Y 13
     7 ALL1       25 GROUP        1 Z    ALL  0     ROOT ALL Z 15
     8 SEL2       22 GROUP        1 Z    SEL  0     **** SEL Z 16
     9 GLL5        2 GROUP        1 Z    GLL  0     **** GLL Z 20
@<TRIPOS>SET

