#    Name: 2o07_MTA_2_ligand
#    Modification time : Tue Mar 25 21:46:54 2014

@<TRIPOS>MOLECULE
2o07_MTA_2_ligand
   35    37     1     0     0
SMALL
NO_CHARGES


@<TRIPOS>ATOM
      1 CS         13.2980   34.7010   33.8030 C.3       1 MTA501      0.0000 
      2 S5'        11.7480   33.9620   34.1950 S.3       1 MTA501      0.0000 
      3 C5'        11.6720   32.5580   33.1000 C.3       1 MTA501      0.0000 
      4 C4'        12.4080   31.3560   33.7260 C.3       1 MTA501      0.0000 
      5 O4'        12.0120   30.0630   33.2320 O.3       1 MTA501      0.0000 
      6 C2'        14.2740   29.9090   33.0820 C.3       1 MTA501      0.0000 
      7 O2'        15.4370   29.3960   33.7190 O.3       1 MTA501      0.0000 
      8 C3'        13.9260   31.3450   33.5160 C.3       1 MTA501      0.0000 
      9 O3'        14.5420   31.6250   34.7720 O.3       1 MTA501      0.0000 
     10 C1'        13.0550   29.1560   33.5540 C.3       1 MTA501      0.0000 
     11 N9         12.8130   27.8820   32.8640 N.pl3     1 MTA501      0.0000 
     12 C8         13.0730   27.5920   31.5780 C.2       1 MTA501      0.0000 
     13 N7         12.7000   26.3190   31.2940 N.2       1 MTA501      0.0000 
     14 C5         12.1390   25.8250   32.4010 C.ar      1 MTA501      0.0000 
     15 C6         11.5560   24.5320   32.7630 C.ar      1 MTA501      0.0000 
     16 N6         11.4580   23.5520   31.8180 N.pl3     1 MTA501      0.0000 
     17 N1         11.0940   24.4050   34.0240 N.ar      1 MTA501      0.0000 
     18 C2         11.1820   25.3730   34.9750 C.ar      1 MTA501      0.0000 
     19 N3         11.7260   26.5850   34.7100 N.ar      1 MTA501      0.0000 
     20 C4         12.2140   26.8510   33.4550 C.ar      1 MTA501      0.0000 
     21 H          12.1373   32.9113   32.2137 H         1 MTA501      0.0000 
     22 H          10.6299   32.3906   32.9860 H         1 MTA501      0.0000 
     23 H          12.2565   31.3758   34.8177 H         1 MTA501      0.0000 
     24 H          14.2944   29.8795   32.0283 H         1 MTA501      0.0000 
     25 H          14.1760   32.0109   32.7569 H         1 MTA501      0.0000 
     26 H          13.1182   29.0327   34.6104 H         1 MTA501      0.0000 
     27 H          13.4746   28.2073   30.9317 H         1 MTA501      0.0000 
     28 H          11.4053   23.8603   30.8682 H         1 MTA501      0.0000 
     29 H          11.4475   22.6118   32.1585 H         1 MTA501      0.0000 
     30 H          10.8176   25.1733   35.9407 H         1 MTA501      0.0000 
     31 H          14.0595   34.0721   33.9596 H         1 MTA501      0.0000 
     32 H          13.3432   34.9831   32.8447 H         1 MTA501      0.0000 
     33 H          13.4718   35.5154   34.3567 H         1 MTA501      0.0000 
     34 H          15.2760   29.5286   34.6970 H         1 MTA501      0.0000 
     35 H          14.1037   31.0018   35.4197 H         1 MTA501      0.0000 
@<TRIPOS>BOND
     1    2    1 1    
     2   31    1 1    
     3   32    1 1    
     4   33    1 1    
     5    3    2 1    
     6    4    3 1    
     7   21    3 1    
     8   22    3 1    
     9    5    4 1    
    10    8    4 1    
    11   23    4 1    
    12   10    5 1    
    13    7    6 1    
    14    8    6 1    
    15   10    6 1    
    16   24    6 1    
    17   34    7 1    
    18    9    8 1    
    19   25    8 1    
    20   35    9 1    
    21   11   10 1    
    22   26   10 1    
    23   12   11 1    
    24   20   11 1    
    25   13   12 2    
    26   27   12 1    
    27   14   13 1    
    28   15   14 ar   
    29   20   14 ar   
    30   16   15 1    
    31   17   15 ar   
    32   28   16 1    
    33   29   16 1    
    34   18   17 ar   
    35   19   18 ar   
    36   30   18 1    
    37   20   19 ar   
@<TRIPOS>SUBSTRUCTURE
     1 MTA501      1 GROUP   
@<TRIPOS>SET

