#    Name: 2j6x_FMN_8_INTS_M
#    Modification time : Tue Mar 25 19:25:12 2014

@<TRIPOS>MOLECULE
2j6x_FMN_8_INTS_M
   88     0    12     0     0
SMALL
NO_CHARGES


@<TRIPOS>ATOM
      1 N          50.8510  119.6020   65.9650 N.am      2 SEC2        0.0000 
      2 N          50.2480  119.0440   67.0240 N.am     10 SEL2        0.0000 
      3 N          51.4540  120.1600   64.9060 N.am      6 SEP2        0.0000 
      4 N          49.0720  118.6390   66.3665 N.am      2 SEC2        0.0000 
      5 N          47.8960  118.2340   65.7090 N.am      6 SEP2        0.0000 
      6 O          52.2295  119.1860   68.8585 O.2       1 ALC1        0.0000 
      7 O          50.8040  119.3660   69.1850 O.2       9 ALL1        0.0000 
      8 O          53.6550  119.0060   68.5320 O.2       5 ALP1        0.0000 
      9 N          52.5055  119.0360   71.6805 N.am      2 SEC2        0.0000 
     10 N          51.2460  119.6730   71.3900 N.am     10 SEL2        0.0000 
     11 N          53.7650  118.3990   71.9710 N.am      6 SEP2        0.0000 
     12 N          49.6835  118.4220   73.0335 N.am      2 SEC2        0.0000 
     13 N          48.6470  119.3570   72.1470 N.am     10 SEL2        0.0000 
     14 N          50.7200  117.4870   73.9200 N.am      6 SEP2        0.0000 
     15 CA         46.2405  119.6055   76.6875 C.3       4 GLC5        0.0000 
     16 CA         45.4720  118.1930   75.6480 C.3      12 GLL5        0.0000 
     17 CA         47.0090  121.0180   77.7270 C.3       8 GLP5        0.0000 
     18 CA         44.1745  118.2815   76.9410 C.3       4 GLC5        0.0000 
     19 CA         42.8770  118.3700   78.2340 C.3       8 GLP5        0.0000 
     20 CA         45.6980  116.0420   75.9275 C.3       4 GLC5        0.0000 
     21 CA         45.9240  113.8910   76.2070 C.3       8 GLP5        0.0000 
     22 CA         42.1985  116.2025   73.7390 C.3       4 GLC5        0.0000 
     23 CA         43.5240  117.3300   73.4940 C.3      12 GLL5        0.0000 
     24 CA         40.8730  115.0750   73.9840 C.3       8 GLP5        0.0000 
     25 CA         45.9800  120.2850   70.3070 C.3       4 GLC5        0.0000 
     26 CA         46.4390  118.6560   71.4720 C.3      12 GLL5        0.0000 
     27 CA         45.5210  121.9140   69.1420 C.3       8 GLP5        0.0000 
     28 CA         45.7210  120.0670   69.1045 C.3       4 GLC5        0.0000 
     29 CA         45.9210  118.2200   69.0670 C.3      12 GLL5        0.0000 
     30 CA         46.7190  115.9295   70.3805 C.3       4 GLC5        0.0000 
     31 CA         46.0660  116.7330   68.7480 C.3      12 GLL5        0.0000 
     32 CA         47.3720  115.1260   72.0130 C.3       8 GLP5        0.0000 
     33 CA         47.0480  116.9170   66.7530 C.3       4 GLC5        0.0000 
     34 CA         48.0300  117.1010   64.7580 C.3       8 GLP5        0.0000 
     35 N          47.5460  117.3825   66.8175 N.am      2 SEC2        0.0000 
     36 N          47.1960  116.5310   67.9260 N.am     10 SEL2        0.0000 
     37 O          48.2935  116.3735   68.8000 O.2       1 ALC1        0.0000 
     38 O          47.1960  116.5310   67.9260 O.2       9 ALL1        0.0000 
     39 O          49.3910  116.2160   69.6740 O.2       5 ALP1        0.0000 
     40 N          44.4640  117.8785   65.3050 N.am      2 SEC2        0.0000 
     41 N          44.6530  117.1360   66.8370 N.am     10 SEL2        0.0000 
     42 N          44.2750  118.6210   63.7730 N.am      6 SEP2        0.0000 
     43 O          43.8300  116.6585   65.5300 O.2       1 ALC1        0.0000 
     44 O          44.6530  117.1360   66.8370 O.2       9 ALL1        0.0000 
     45 O          43.0070  116.1810   64.2230 O.2       5 ALP1        0.0000 
     46 O          44.7775  116.2385   65.8570 O.2       1 ALC1        0.0000 
     47 O          44.9020  115.3410   64.8770 O.2       5 ALP1        0.0000 
     48 CA         42.8795  114.6705   66.0755 C.3       4 GLC5        0.0000 
     49 CA         42.4750  115.5640   67.9970 C.3      12 GLL5        0.0000 
     50 CA         43.2840  113.7770   64.1540 C.3       8 GLP5        0.0000 
     51 CA         41.0625  115.5605   66.7675 C.3       4 GLC5        0.0000 
     52 CA         39.6500  115.5570   65.5380 C.3       8 GLP5        0.0000 
     53 N          41.9560  113.4065   71.6850 N.am      2 SEC2        0.0000 
     54 N          41.5490  114.2690   70.6840 N.am     10 SEL2        0.0000 
     55 N          42.3630  112.5440   72.6860 N.am      6 SEP2        0.0000 
     56 NZ         38.4470  114.6140   70.9805 N.4       3 LYC4        0.0000 
     57 NZ         39.3640  115.3730   70.2420 N.4      11 LYL4        0.0000 
     58 NZ         37.2730  112.6150   71.2960 N.4       7 LYP4        0.0000 
     59 NZ         39.3725  116.4740   71.0155 N.4       3 LYC4        0.0000 
     60 NZ         39.6960  118.1080   72.9620 N.4       7 LYP4        0.0000 
     61 N          38.4470  114.6140   70.9805 N.am      2 SEC2        0.0000 
     62 N          39.3640  115.3730   70.2420 N.am     10 SEL2        0.0000 
     63 N          37.5300  113.8550   71.7190 N.am      6 SEP2        0.0000 
     64 N          39.3725  116.4740   71.0155 N.am      2 SEC2        0.0000 
     65 N          39.3810  117.5750   71.7890 N.am      6 SEP2        0.0000 
     66 NZ         39.0325  112.8405   69.5260 N.4       3 LYC4        0.0000 
     67 NZ         40.1270  113.5510   68.7900 N.4      11 LYL4        0.0000 
     68 N          39.0590  113.8860   67.7230 N.am      2 SEC2        0.0000 
     69 N          40.1270  113.5510   68.7900 N.am     10 SEL2        0.0000 
     70 N          37.9910  114.2210   66.6560 N.am      6 SEP2        0.0000 
     71 N          39.0325  112.8405   69.5260 N.am      2 SEC2        0.0000 
     72 N          37.9380  112.1300   70.2620 N.am      6 SEP2        0.0000 
     73 CA         47.1322  116.9815   71.9945 C.3       4 GLC5        0.0000 
     74 CA         47.0304  117.0019   74.5850 C.3       4 GLC5        0.0000 
     75 CA         46.9990  118.8860   73.8190 C.3      12 GLL5        0.0000 
     76 CA         48.1320  115.6040   74.3480 C.3       8 GLP5        0.0000 
     77 CA         46.2052  116.5667   72.2550 C.3       4 GLC5        0.0000 
     78 CA         44.8700  117.9250   73.1710 C.3      12 GLL5        0.0000 
     79 CA         43.8407  119.3810   72.9875 C.3       4 GLC5        0.0000 
     80 CA         45.7720  118.3270   74.1730 C.3      12 GLL5        0.0000 
     81 CA         43.2590  121.0340   72.3920 C.3       8 GLP5        0.0000 
     82 CA         44.5410  119.7035   72.0197 C.3       4 GLC5        0.0000 
     83 CA         45.2070  118.0900   71.8230 C.3      12 GLL5        0.0000 
     84 CA         46.1998  114.7295   68.1683 C.3       4 GLC5        0.0000 
     85 CA         46.9440  112.9530   67.9850 C.3       8 GLP5        0.0000 
     86 CA         41.7998  117.4297   68.5040 C.3       4 GLC5        0.0000 
     87 CA         43.5680  116.2710   68.7750 C.3      12 GLL5        0.0000 
     88 CA         40.5780  118.9420   68.6220 C.3       8 GLP5        0.0000 
@<TRIPOS>BOND
@<TRIPOS>SUBSTRUCTURE
     1 ALC1        6 GROUP        1 X    ALC  0     ROOT ALC X 1
     2 SEC2        1 GROUP        1 X    SEC  0     **** SEC X 2
     3 LYC4       56 GROUP        1 X    LYC  0     **** LYC X 4
     4 GLC5       15 GROUP        1 X    GLC  0     **** GLC X 6
     5 ALP1        8 GROUP        1 Y    ALP  0     ROOT ALP Y 8
     6 SEP2        3 GROUP        1 Y    SEP  0     **** SEP Y 9
     7 LYP4       58 GROUP        1 Y    LYP  0     **** LYP Y 11
     8 GLP5       17 GROUP        1 Y    GLP  0     **** GLP Y 13
     9 ALL1        7 GROUP        1 Z    ALL  0     ROOT ALL Z 15
    10 SEL2        2 GROUP        1 Z    SEL  0     **** SEL Z 16
    11 LYL4       57 GROUP        1 Z    LYL  0     **** LYL Z 18
    12 GLL5       16 GROUP        1 Z    GLL  0     **** GLL Z 20
@<TRIPOS>SET

