#    Name: 2j6x_FMN_8_ligand
#    Modification time : Tue Mar 25 19:25:12 2014

@<TRIPOS>MOLECULE
2j6x_FMN_8_ligand
   50    52     1     0     0
SMALL
NO_CHARGES


@<TRIPOS>ATOM
      1 N1         48.5590  119.0270   68.4980 N.2       1 FMN1375     0.0000 
      2 C2         49.8870  119.1420   68.1880 C.2       1 FMN1375     0.0000 
      3 O2         50.2480  119.0440   67.0240 O.2       1 FMN1375     0.0000 
      4 N3         50.8040  119.3660   69.1850 N.am      1 FMN1375     0.0000 
      5 C4         50.3970  119.4740   70.5040 C.2       1 FMN1375     0.0000 
      6 O4         51.2460  119.6730   71.3900 O.2       1 FMN1375     0.0000 
      7 C4A        49.0470  119.3720   70.8270 C.2       1 FMN1375     0.0000 
      8 N5         48.6470  119.3570   72.1470 N.2       1 FMN1375     0.0000 
      9 C5A        47.3460  119.0180   72.4800 C.ar      1 FMN1375     0.0000 
     10 C6         46.9990  118.8860   73.8190 C.ar      1 FMN1375     0.0000 
     11 C7         45.7720  118.3270   74.1730 C.ar      1 FMN1375     0.0000 
     12 C7M        45.4720  118.1930   75.6480 C.3       1 FMN1375     0.0000 
     13 C8         44.8700  117.9250   73.1710 C.ar      1 FMN1375     0.0000 
     14 C8M        43.5240  117.3300   73.4940 C.3       1 FMN1375     0.0000 
     15 C9         45.2070  118.0900   71.8230 C.ar      1 FMN1375     0.0000 
     16 C9A        46.4390  118.6560   71.4720 C.ar      1 FMN1375     0.0000 
     17 N10        46.8480  118.6970   70.1430 N.pl3     1 FMN1375     0.0000 
     18 C10        48.1310  119.0950   69.8150 C.2       1 FMN1375     0.0000 
     19 C1'        45.9210  118.2200   69.0670 C.3       1 FMN1375     0.0000 
     20 C2'        46.0660  116.7330   68.7480 C.3       1 FMN1375     0.0000 
     21 O2'        47.1960  116.5310   67.9260 O.3       1 FMN1375     0.0000 
     22 C3'        44.8450  116.2790   67.9550 C.3       1 FMN1375     0.0000 
     23 O3'        44.6530  117.1360   66.8370 O.3       1 FMN1375     0.0000 
     24 C4'        43.5680  116.2710   68.7750 C.3       1 FMN1375     0.0000 
     25 O4'        43.7550  115.5830   69.9870 O.3       1 FMN1375     0.0000 
     26 C5'        42.4750  115.5640   67.9970 C.3       1 FMN1375     0.0000 
     27 O5'        41.2750  115.8080   68.6690 O.3       1 FMN1375     0.0000 
     28 P          40.5850  114.7140   69.6360 P.3       1 FMN1375     0.0000 
     29 O1P        41.5490  114.2690   70.6840 O.co2     1 FMN1375     0.0000 
     30 O2P        39.3640  115.3730   70.2420 O.co2     1 FMN1375     0.0000 
     31 O3P        40.1270  113.5510   68.7900 O.co2     1 FMN1375     0.0000 
     32 H          51.8099  119.4557   68.9538 H         1 FMN1375     0.0000 
     33 H          47.6481  119.2011   74.5528 H         1 FMN1375     0.0000 
     34 H          44.5515  117.7963   71.0908 H         1 FMN1375     0.0000 
     35 H          46.0991  118.7954   68.1415 H         1 FMN1375     0.0000 
     36 H          44.8755  118.4137   69.3650 H         1 FMN1375     0.0000 
     37 H          46.1104  116.1825   69.6514 H         1 FMN1375     0.0000 
     38 H          45.0277  115.2579   67.6118 H         1 FMN1375     0.0000 
     39 H          43.2557  117.2890   68.9345 H         1 FMN1375     0.0000 
     40 H          42.7265  114.5042   67.9576 H         1 FMN1375     0.0000 
     41 H          42.4771  115.9627   66.9826 H         1 FMN1375     0.0000 
     42 H          46.1437  117.6161   76.1127 H         1 FMN1375     0.0000 
     43 H          45.4775  119.0798   76.1102 H         1 FMN1375     0.0000 
     44 H          44.5736  117.7843   75.8086 H         1 FMN1375     0.0000 
     45 H          43.6081  116.4917   74.0327 H         1 FMN1375     0.0000 
     46 H          42.9557  117.9615   74.0214 H         1 FMN1375     0.0000 
     47 H          43.0129  117.0968   72.6668 H         1 FMN1375     0.0000 
     48 H          47.9670  116.4605   68.5589 H         1 FMN1375     0.0000 
     49 H          44.7531  116.5442   66.0372 H         1 FMN1375     0.0000 
     50 H          42.8713  115.1573   70.1818 H         1 FMN1375     0.0000 
@<TRIPOS>BOND
     1    2    1 1    
     2   18    1 2    
     3    3    2 2    
     4    4    2 am   
     5    5    4 am   
     6   32    4 1    
     7    6    5 2    
     8    7    5 1    
     9    8    7 2    
    10   18    7 1    
    11    9    8 1    
    12   10    9 ar   
    13   16    9 ar   
    14   11   10 ar   
    15   33   10 1    
    16   12   11 1    
    17   13   11 ar   
    18   42   12 1    
    19   43   12 1    
    20   44   12 1    
    21   14   13 1    
    22   15   13 ar   
    23   45   14 1    
    24   46   14 1    
    25   47   14 1    
    26   16   15 ar   
    27   34   15 1    
    28   17   16 1    
    29   18   17 1    
    30   19   17 1    
    31   20   19 1    
    32   35   19 1    
    33   36   19 1    
    34   21   20 1    
    35   22   20 1    
    36   37   20 1    
    37   48   21 1    
    38   23   22 1    
    39   24   22 1    
    40   38   22 1    
    41   49   23 1    
    42   25   24 1    
    43   26   24 1    
    44   39   24 1    
    45   50   25 1    
    46   27   26 1    
    47   40   26 1    
    48   41   26 1    
    49   28   27 1    
    50   29   28 ar   
    51   30   28 ar   
    52   31   28 ar   
@<TRIPOS>SUBSTRUCTURE
     1 FMN1375     1 GROUP   
@<TRIPOS>SET

