#    Name: 1w7k_ADP_1_INTS_M
#    Modification time : Tue Mar 25 08:45:58 2014

@<TRIPOS>MOLECULE
1w7k_ADP_1_INTS_M
   75     0    15     0     0
SMALL
NO_CHARGES


@<TRIPOS>ATOM
      1 NZ          4.6105   10.3570   30.5210 N.4       3 LYC4        0.0000 
      2 NZ          5.3090    9.9760   31.5480 N.4      13 LYL4        0.0000 
      3 NZ          3.9120   10.7380   29.4940 N.4       8 LYP4        0.0000 
      4 N           6.5900   10.7480   31.8080 N.am      2 SEC2        0.0000 
      5 N           5.3090    9.9760   31.5480 N.am     12 SEL2        0.0000 
      6 N           7.8710   11.5200   32.0680 N.am      7 SEP2        0.0000 
      7 N           4.6105   10.3570   30.5210 N.am      2 SEC2        0.0000 
      8 N           3.9120   10.7380   29.4940 N.am      7 SEP2        0.0000 
      9 Zn          3.5520   11.8995   33.6350 Zn        4 ZIC7        0.0000 
     10 Zn          4.5620   11.4240   33.4150 Zn       14 ZIL7        0.0000 
     11 Zn          2.5420   12.3750   33.8550 Zn        9 ZIP7        0.0000 
     12 N           5.6370   12.3625   33.6715 N.am      2 SEC2        0.0000 
     13 N           4.5620   11.4240   33.4150 N.am     12 SEL2        0.0000 
     14 N           6.7120   13.3010   33.9280 N.am      7 SEP2        0.0000 
     15 N           7.9635   11.6880   36.0735 N.am      2 SEC2        0.0000 
     16 N           7.2790   10.1550   35.9920 N.am     12 SEL2        0.0000 
     17 N           8.6480   13.2210   36.1550 N.am      7 SEP2        0.0000 
     18 NZ          3.9305   10.7625   37.2090 N.4       3 LYC4        0.0000 
     19 NZ          4.6830    9.9050   36.0530 N.4      13 LYL4        0.0000 
     20 NZ          3.7540   11.0040   39.3730 N.4       8 LYP4        0.0000 
     21 N           4.6595    9.9835   37.5740 N.am      2 SEC2        0.0000 
     22 N           4.6830    9.9050   36.0530 N.am     12 SEL2        0.0000 
     23 N           4.6360   10.0620   39.0950 N.am      7 SEP2        0.0000 
     24 N           3.9305   10.7625   37.2090 N.am      2 SEC2        0.0000 
     25 N           3.1780   11.6200   38.3650 N.am      7 SEP2        0.0000 
     26 N           7.2055    9.1760   33.1160 N.am      2 SEC2        0.0000 
     27 N           6.2030    9.6100   33.9130 N.am     12 SEL2        0.0000 
     28 N           8.2080    8.7420   32.3190 N.am      7 SEP2        0.0000 
     29 CA          6.0315    8.0690   37.8215 C.3       5 GLC5        0.0000 
     30 CA          5.2630    7.0760   36.0810 C.3      15 GLL5        0.0000 
     31 CA          6.8000    9.0620   39.5620 C.3      10 GLP5        0.0000 
     32 CA          4.8170    3.7990   36.6765 C.3       5 GLC5        0.0000 
     33 CA          5.8400    5.6790   36.1670 C.3      15 GLL5        0.0000 
     34 CA          3.7940    1.9190   37.1860 C.3      10 GLP5        0.0000 
     35 CA          6.0235    3.7875   35.1295 C.3       5 GLC5        0.0000 
     36 CA          6.2070    1.8960   34.0920 C.3      10 GLP5        0.0000 
     37 CA          6.8575    7.3115   38.4200 C.3       5 GLC5        0.0000 
     38 CA          6.9150    5.5610   37.2780 C.3      15 GLL5        0.0000 
     39 O           6.7100    4.7520   39.5625 O.2       1 ALC1        0.0000 
     40 O           6.3480    5.4670   38.6080 O.2      11 ALL1        0.0000 
     41 O           7.0720    4.0370   40.5170 O.2       6 ALP1        0.0000 
     42 CA          9.6840    3.3935   36.8570 C.3       5 GLC5        0.0000 
     43 CA          7.7180    4.3770   36.8140 C.3      15 GLL5        0.0000 
     44 CA         11.6500    2.4100   36.9000 C.3      10 GLP5        0.0000 
     45 O           7.0080    3.6250   38.8675 O.2       1 ALC1        0.0000 
     46 O           6.9440    3.2130   37.2180 O.2      11 ALL1        0.0000 
     47 O           6.8035    2.6430   38.4485 O.2       1 ALC1        0.0000 
     48 O           6.6630    2.0730   39.6790 O.2       6 ALP1        0.0000 
     49 CA          7.6655    5.2390   33.2825 C.3       5 GLC5        0.0000 
     50 CA          7.7150    4.6260   35.2660 C.3      15 GLL5        0.0000 
     51 CA          7.6160    5.8520   31.2990 C.3      10 GLP5        0.0000 
     52 N          11.1350    8.1495   34.3190 N.am      2 SEC2        0.0000 
     53 N          10.2950    6.9100   34.1470 N.am     12 SEL2        0.0000 
     54 N          11.9750    9.3890   34.4910 N.am      7 SEP2        0.0000 
     55 CA          9.9535    7.6860   33.1620 C.3       5 GLC5        0.0000 
     56 CA         10.7170    5.7290   33.4280 C.3      15 GLL5        0.0000 
     57 CA          9.1900    9.6430   32.8960 C.3      10 GLP5        0.0000 
     58 O          13.0955    7.6410   32.3645 O.2       1 ALC1        0.0000 
     59 O          12.8400    6.1080   31.9950 O.2      11 ALL1        0.0000 
     60 O          13.3510    9.1740   32.7340 O.2       6 ALP1        0.0000 
     61 CA          9.2450    4.4790   31.8745 C.3       5 GLC5        0.0000 
     62 CA         10.8740    3.1060   32.4500 C.3      15 GLL5        0.0000 
     63 CA         10.0340    2.2070   30.8115 C.3       5 GLC5        0.0000 
     64 CA          9.1940    1.3080   29.1730 C.3      10 GLP5        0.0000 
     65 CA          9.1445    2.0395   33.0925 C.3       5 GLC5        0.0000 
     66 CA          7.4150    0.9730   33.7350 C.3      10 GLP5        0.0000 
     67 CA         11.2100    1.9560   33.7030 C.3       5 GLC5        0.0000 
     68 CA         11.5460    0.8060   34.9560 C.3      10 GLP5        0.0000 
     69 CA          8.6105    2.8475   33.7490 C.3       5 GLC5        0.0000 
     70 CA          9.8060    4.7220   33.7630 C.3      15 GLL5        0.0000 
     71 CA         10.6760    2.7640   34.3595 C.3       5 GLC5        0.0000 
     72 CA          4.0892    6.3848   37.4810 C.3       5 GLC5        0.0000 
     73 CA          2.6270    6.3920   38.8380 C.3      10 GLP5        0.0000 
     74 CA          6.9618    3.1987   35.0660 C.3       5 GLC5        0.0000 
     75 CA          9.0678    5.4908   32.3360 C.3       5 GLC5        0.0000 
@<TRIPOS>BOND
@<TRIPOS>SUBSTRUCTURE
     1 ALC1       39 GROUP        1 X    ALC  0     ROOT ALC X 1
     2 SEC2        4 GROUP        1 X    SEC  0     **** SEC X 2
     3 LYC4        1 GROUP        1 X    LYC  0     **** LYC X 4
     4 ZIC7        9 GROUP        1 X    ZIC  0     **** ZIC X 5
     5 GLC5       29 GROUP        1 X    GLC  0     **** GLC X 6
     6 ALP1       41 GROUP        1 Y    ALP  0     ROOT ALP Y 8
     7 SEP2        6 GROUP        1 Y    SEP  0     **** SEP Y 9
     8 LYP4        3 GROUP        1 Y    LYP  0     **** LYP Y 11
     9 ZIP7       11 GROUP        1 Y    ZIP  0     **** ZIP Y 12
    10 GLP5       31 GROUP        1 Y    GLP  0     **** GLP Y 13
    11 ALL1       40 GROUP        1 Z    ALL  0     ROOT ALL Z 15
    12 SEL2        5 GROUP        1 Z    SEL  0     **** SEL Z 16
    13 LYL4        2 GROUP        1 Z    LYL  0     **** LYL Z 18
    14 ZIL7       10 GROUP        1 Z    ZIL  0     **** ZIL Z 19
    15 GLL5       30 GROUP        1 Z    GLL  0     **** GLL Z 20
@<TRIPOS>SET

