#    Name: 1w7k_ADP_1_ligand
#    Modification time : Tue Mar 25 08:45:58 2014

@<TRIPOS>MOLECULE
1w7k_ADP_1_ligand
   38    40     1     0     0
SMALL
NO_CHARGES


@<TRIPOS>ATOM
      1 PB          4.9070   10.0030   32.9860 P.3       1 ADP1421     0.0000 
      2 O1B         5.3090    9.9760   31.5480 O.co2     1 ADP1421     0.0000 
      3 O2B         3.8010    9.0380   33.3220 O.co2     1 ADP1421     0.0000 
      4 O3B         4.5620   11.4240   33.4150 O.co2     1 ADP1421     0.0000 
      5 PA          6.0300    9.5230   35.4640 P.3       1 ADP1421     0.0000 
      6 O1A         7.2790   10.1550   35.9920 O.co2     1 ADP1421     0.0000 
      7 O2A         4.6830    9.9050   36.0530 O.co2     1 ADP1421     0.0000 
      8 O3A         6.2030    9.6100   33.9130 O.3       1 ADP1421     0.0000 
      9 O5'         6.2590    7.9720   35.6680 O.3       1 ADP1421     0.0000 
     10 C5'         5.2630    7.0760   36.0810 C.3       1 ADP1421     0.0000 
     11 C4'         5.8400    5.6790   36.1670 C.3       1 ADP1421     0.0000 
     12 O4'         6.5760    5.3870   34.9650 O.3       1 ADP1421     0.0000 
     13 C3'         6.9150    5.5610   37.2780 C.3       1 ADP1421     0.0000 
     14 O3'         6.3480    5.4670   38.6080 O.3       1 ADP1421     0.0000 
     15 C2'         7.7180    4.3770   36.8140 C.3       1 ADP1421     0.0000 
     16 O2'         6.9440    3.2130   37.2180 O.3       1 ADP1421     0.0000 
     17 C1'         7.7150    4.6260   35.2660 C.3       1 ADP1421     0.0000 
     18 N9          8.8880    5.2960   34.6460 N.pl3     1 ADP1421     0.0000 
     19 C8          9.2120    6.5940   34.8470 C.2       1 ADP1421     0.0000 
     20 N7         10.2950    6.9100   34.1470 N.2       1 ADP1421     0.0000 
     21 C5         10.7170    5.7290   33.4280 C.ar      1 ADP1421     0.0000 
     22 C6         11.7490    5.3450   32.5380 C.ar      1 ADP1421     0.0000 
     23 N6         12.8400    6.1080   31.9950 N.pl3     1 ADP1421     0.0000 
     24 N1         11.7600    4.0470   32.1090 N.ar      1 ADP1421     0.0000 
     25 C2         10.8740    3.1060   32.4500 C.ar      1 ADP1421     0.0000 
     26 N3          9.8960    3.4510   33.2760 N.ar      1 ADP1421     0.0000 
     27 C4          9.8060    4.7220   33.7630 C.ar      1 ADP1421     0.0000 
     28 H           4.4152    7.0448   35.3802 H         1 ADP1421     0.0000 
     29 H           4.8583    7.3319   37.0717 H         1 ADP1421     0.0000 
     30 H           5.0932    4.9621   36.3459 H         1 ADP1421     0.0000 
     31 H           7.5461    6.4465   37.1597 H         1 ADP1421     0.0000 
     32 H           8.6668    4.4330   37.1790 H         1 ADP1421     0.0000 
     33 H           7.5918    3.6245   34.7964 H         1 ADP1421     0.0000 
     34 H           8.7098    7.2027   35.4292 H         1 ADP1421     0.0000 
     35 H          10.9530    2.1451   32.0801 H         1 ADP1421     0.0000 
     36 H           6.8844    4.7598   39.0685 H         1 ADP1421     0.0000 
     37 H           7.1207    3.1119   38.1970 H         1 ADP1421     0.0000 
     38 H          12.7440    7.0187   32.3968 H         1 ADP1421     0.0000 
@<TRIPOS>BOND
     1    2    1 ar   
     2    3    1 ar   
     3    4    1 ar   
     4    8    1 1    
     5    6    5 ar   
     6    7    5 ar   
     7    8    5 1    
     8    9    5 1    
     9   10    9 1    
    10   11   10 1    
    11   28   10 1    
    12   29   10 1    
    13   12   11 1    
    14   13   11 1    
    15   30   11 1    
    16   17   12 1    
    17   14   13 1    
    18   15   13 1    
    19   31   13 1    
    20   36   14 1    
    21   16   15 1    
    22   17   15 1    
    23   32   15 1    
    24   37   16 1    
    25   18   17 1    
    26   33   17 1    
    27   19   18 1    
    28   27   18 1    
    29   20   19 2    
    30   34   19 1    
    31   21   20 1    
    32   22   21 ar   
    33   27   21 ar   
    34   23   22 1    
    35   24   22 ar   
    36   38   23 1    
    37   25   24 ar   
    38   26   25 ar   
    39   35   25 1    
    40   27   26 ar   
@<TRIPOS>SUBSTRUCTURE
     1 ADP1421     1 GROUP   
@<TRIPOS>SET

