#    Name: 3tmz_06X_1_INTS_M
#    Modification time : Mon Mar 24 20:23:32 2014

@<TRIPOS>MOLECULE
3tmz_06X_1_INTS_M
   57     0     6     0     0
SMALL
NO_CHARGES


@<TRIPOS>ATOM
      1 CA         28.8620   -4.2470    6.9845 C.3       2 GLC5        0.0000 
      2 CA         30.6200   -5.0280    6.3530 C.3       6 GLL5        0.0000 
      3 CA         27.1040   -3.4660    7.6160 C.3       4 GLP5        0.0000 
      4 CA         29.4895   -6.3065    5.5135 C.3       2 GLC5        0.0000 
      5 CA         28.3590   -7.5850    4.6740 C.3       4 GLP5        0.0000 
      6 CA         32.9180   -2.5665    2.8005 C.3       2 GLC5        0.0000 
      7 CA         33.6830   -2.1880    4.6300 C.3       6 GLL5        0.0000 
      8 CA         32.1530   -2.9450    0.9710 C.3       4 GLP5        0.0000 
      9 CA         31.7440   -5.0215   11.1520 C.3       2 GLC5        0.0000 
     10 CA         32.5440   -4.1640    9.5330 C.3       6 GLL5        0.0000 
     11 CA         30.9440   -5.8790   12.7710 C.3       4 GLP5        0.0000 
     12 CA         30.5965   -2.2340    8.9950 C.3       2 GLC5        0.0000 
     13 CA         32.4240   -2.6590    9.3930 C.3       6 GLL5        0.0000 
     14 CA         28.7690   -1.8090    8.5970 C.3       4 GLP5        0.0000 
     15 CA         33.5275   -1.3560    8.8775 C.3       2 GLC5        0.0000 
     16 CA         34.6310   -0.0530    8.3620 C.3       4 GLP5        0.0000 
     17 CA         33.0510   -9.5630    3.9295 C.3       2 GLC5        0.0000 
     18 CA         32.6370   -8.5100    2.5990 C.3       6 GLL5        0.0000 
     19 CA         33.4650  -10.6160    5.2600 C.3       4 GLP5        0.0000 
     20 CA         31.2040   -8.5200    1.1605 C.3       2 GLC5        0.0000 
     21 CA         29.7710   -8.5300   -0.2780 C.3       4 GLP5        0.0000 
     22 CA         35.1335   -9.0050    5.2225 C.3       2 GLC5        0.0000 
     23 CA         36.0960   -7.8170    4.0870 C.3       6 GLL5        0.0000 
     24 CA         34.1710  -10.1930    6.3580 C.3       4 GLP5        0.0000 
     25 CA         36.5900   -9.4675    3.7425 C.3       2 GLC5        0.0000 
     26 CA         37.0840  -11.1180    3.3980 C.3       4 GLP5        0.0000 
     27 O          37.9940   -6.8590    5.3425 O.2       1 ALC1        0.0000 
     28 O          36.4950   -6.6800    6.1560 O.2       5 ALL1        0.0000 
     29 O          39.4930   -7.0380    4.5290 O.2       3 ALP1        0.0000 
     30 CA         36.7355   -4.6450    9.7905 C.3       2 GLC5        0.0000 
     31 CA         36.8070   -6.0480    8.3190 C.3       6 GLL5        0.0000 
     32 CA         36.6640   -3.2420   11.2620 C.3       4 GLP5        0.0000 
     33 CA         37.6450   -6.8785    9.5530 C.3       2 GLC5        0.0000 
     34 CA         38.4830   -7.7090   10.7870 C.3       4 GLP5        0.0000 
     35 O          40.4200   -6.4130    8.9580 O.2       1 ALC1        0.0000 
     36 O          40.5260   -4.8760    8.6110 O.2       5 ALL1        0.0000 
     37 O          40.3140   -7.9500    9.3050 O.2       3 ALP1        0.0000 
     38 CA         31.9582   -0.3913    5.7412 C.3       2 GLC5        0.0000 
     39 CA         31.4260   -2.7320    5.2440 C.3       6 GLL5        0.0000 
     40 CA         32.0320    1.5020    6.5050 C.3       4 GLP5        0.0000 
     41 CA         31.5207   -2.0738    3.0558 C.3       2 GLC5        0.0000 
     42 CA         32.3430   -1.8370    4.7110 C.3       6 GLL5        0.0000 
     43 CA         31.1570   -1.8630    1.1340 C.3       4 GLP5        0.0000 
     44 CA         30.4464   -1.9074    6.1950 C.3       2 GLC5        0.0000 
     45 CA         28.9040   -1.2170    7.2990 C.3       4 GLP5        0.0000 
     46 CA         33.2823   -0.3175    5.5405 C.3       2 GLC5        0.0000 
     47 CA         35.2228   -1.7705    5.8985 C.3       2 GLC5        0.0000 
     48 CA         36.5510   -0.7300    6.9420 C.3       4 GLP5        0.0000 
     49 CA         34.0835   -3.1317   10.8870 C.3       2 GLC5        0.0000 
     50 CA         35.6830   -2.8520   12.3110 C.3       4 GLP5        0.0000 
     51 CA         38.9535   -6.5772    9.0290 C.3       2 GLC5        0.0000 
     52 CA         38.7790   -5.5370    7.2130 C.3       6 GLL5        0.0000 
     53 CA         40.1480   -6.5027    5.8715 C.3       2 GLC5        0.0000 
     54 CA         40.8720   -7.5600    4.4720 C.3       4 GLP5        0.0000 
     55 CA         38.9095   -4.4603    5.4605 C.3       2 GLC5        0.0000 
     56 CA         40.0690   -5.3540    7.3290 C.3       6 GLL5        0.0000 
     57 CA         38.3950   -3.4750    3.6500 C.3       4 GLP5        0.0000 
@<TRIPOS>BOND
@<TRIPOS>SUBSTRUCTURE
     1 ALC1       27 GROUP        1 X    ALC  0     ROOT ALC X 1
     2 GLC5        1 GROUP        1 X    GLC  0     **** GLC X 6
     3 ALP1       29 GROUP        1 Y    ALP  0     ROOT ALP Y 8
     4 GLP5        3 GROUP        1 Y    GLP  0     **** GLP Y 13
     5 ALL1       28 GROUP        1 Z    ALL  0     ROOT ALL Z 15
     6 GLL5        2 GROUP        1 Z    GLL  0     **** GLL Z 20
@<TRIPOS>SET

