#    Name: 3tmz_06X_1_ligand
#    Modification time : Mon Mar 24 20:23:32 2014

@<TRIPOS>MOLECULE
3tmz_06X_1_ligand
   54    55     1     0     0
SMALL
NO_CHARGES


@<TRIPOS>ATOM
      1 CLAG       30.6200   -5.0280    6.3530 Cl        1 06X503      0.0000 
      2 CAZ        31.8430   -3.9850    5.6980 C.ar      1 06X503      0.0000 
      3 CAJ        31.4260   -2.7320    5.2440 C.ar      1 06X503      0.0000 
      4 CAH        32.3430   -1.8370    4.7110 C.ar      1 06X503      0.0000 
      5 CAI        33.6830   -2.1880    4.6300 C.ar      1 06X503      0.0000 
      6 CAK        34.1060   -3.4340    5.0800 C.ar      1 06X503      0.0000 
      7 CBA        33.2020   -4.3670    5.6230 C.ar      1 06X503      0.0000 
      8 CBB        34.1420   -5.4360    5.8400 C.3       1 06X503      0.0000 
      9 CAY        34.6380   -5.6110    7.2210 C.2       1 06X503      0.0000 
     10 CAV        34.0290   -5.1080    8.3590 C.2       1 06X503      0.0000 
     11 OAF        34.6230   -5.1910    9.3930 O.2       1 06X503      0.0000 
     12 OAS        32.7890   -4.6990    8.3240 O.3       1 06X503      0.0000 
     13 CAL        32.5440   -4.1640    9.5330 C.3       1 06X503      0.0000 
     14 CAA        32.4240   -2.6590    9.3930 C.3       1 06X503      0.0000 
     15 CAX        34.3330   -6.5300    4.9770 C.2       1 06X503      0.0000 
     16 CAU        33.4070   -7.0440    3.9250 C.2       1 06X503      0.0000 
     17 OAE        32.2580   -6.6530    3.8960 O.2       1 06X503      0.0000 
     18 OAQ        33.8000   -7.9900    3.0920 O.3       1 06X503      0.0000 
     19 CAB        32.6370   -8.5100    2.5990 C.3       1 06X503      0.0000 
     20 CAT        35.6400   -6.9460    5.0500 C.2       1 06X503      0.0000 
     21 CAC        36.0960   -7.8170    4.0870 C.3       1 06X503      0.0000 
     22 NAP        36.4950   -6.6800    6.1560 N.pl3     1 06X503      0.0000 
     23 CAW        35.9470   -6.0120    7.1300 C.2       1 06X503      0.0000 
     24 CAO        36.8070   -6.0480    8.3190 C.3       1 06X503      0.0000 
     25 OAR        38.0300   -6.4480    8.0400 O.3       1 06X503      0.0000 
     26 CAN        38.7790   -5.5370    7.2130 C.3       1 06X503      0.0000 
     27 CAM        40.0690   -5.3540    7.3290 C.3       1 06X503      0.0000 
     28 NAD        40.5260   -4.8760    8.6110 N.4       1 06X503      0.0000 
     29 H          30.4302   -2.4738    5.3068 H         1 06X503      0.0000 
     30 H          32.0302   -0.9164    4.3771 H         1 06X503      0.0000 
     31 H          34.3661   -1.5260    4.2364 H         1 06X503      0.0000 
     32 H          35.1085   -3.6889    5.0175 H         1 06X503      0.0000 
     33 H          35.2291   -4.7455    5.4457 H         1 06X503      0.0000 
     34 H          33.3442   -4.3520   10.2726 H         1 06X503      0.0000 
     35 H          31.6023   -4.5170    9.9926 H         1 06X503      0.0000 
     36 H          37.4450   -7.0103    6.1289 H         1 06X503      0.0000 
     37 H          36.2910   -6.7002    9.0801 H         1 06X503      0.0000 
     38 H          36.7724   -5.0210    8.7828 H         1 06X503      0.0000 
     39 H          38.2052   -4.5082    7.2703 H         1 06X503      0.0000 
     40 H          38.4947   -5.8078    6.1009 H         1 06X503      0.0000 
     41 H          40.4781   -4.6325    6.5381 H         1 06X503      0.0000 
     42 H          40.6652   -6.3043    7.0948 H         1 06X503      0.0000 
     43 H          33.2611   -2.2521    9.0274 H         1 06X503      0.0000 
     44 H          31.6796   -2.4015    8.7769 H         1 06X503      0.0000 
     45 H          32.2431   -2.2175   10.2718 H         1 06X503      0.0000 
     46 H          32.8075   -9.2496    1.9479 H         1 06X503      0.0000 
     47 H          32.0609   -8.8856    3.3250 H         1 06X503      0.0000 
     48 H          32.0940   -7.8189    2.1220 H         1 06X503      0.0000 
     49 H          37.0562   -8.0578    4.2287 H         1 06X503      0.0000 
     50 H          35.5769   -8.6717    4.0835 H         1 06X503      0.0000 
     51 H          36.0241   -7.4266    3.1691 H         1 06X503      0.0000 
     52 H          41.5191   -4.7603    8.6317 H         1 06X503      0.0000 
     53 H          40.1228   -3.9906    8.8425 H         1 06X503      0.0000 
     54 H          40.2891   -5.5079    9.3490 H         1 06X503      0.0000 
@<TRIPOS>BOND
     1    2    1 1    
     2    3    2 ar   
     3    7    2 ar   
     4    4    3 ar   
     5   29    3 1    
     6    5    4 ar   
     7   30    4 1    
     8    6    5 ar   
     9   31    5 1    
    10    7    6 ar   
    11   32    6 1    
    12    8    7 1    
    13    9    8 1    
    14   15    8 1    
    15   33    8 1    
    16   10    9 1    
    17   23    9 2    
    18   11   10 2    
    19   12   10 1    
    20   13   12 1    
    21   14   13 1    
    22   34   13 1    
    23   35   13 1    
    24   43   14 1    
    25   44   14 1    
    26   45   14 1    
    27   16   15 1    
    28   20   15 2    
    29   17   16 2    
    30   18   16 1    
    31   19   18 1    
    32   46   19 1    
    33   47   19 1    
    34   48   19 1    
    35   21   20 1    
    36   22   20 1    
    37   49   21 1    
    38   50   21 1    
    39   51   21 1    
    40   23   22 1    
    41   36   22 1    
    42   24   23 1    
    43   25   24 1    
    44   37   24 1    
    45   38   24 1    
    46   26   25 1    
    47   27   26 1    
    48   39   26 1    
    49   40   26 1    
    50   28   27 1    
    51   41   27 1    
    52   42   27 1    
    53   52   28 1    
    54   53   28 1    
    55   54   28 1    
@<TRIPOS>SUBSTRUCTURE
     1 06X503      1 GROUP   
@<TRIPOS>SET

