#    Name: 1f8f_NAD_1_INTS_M
#    Modification time : Tue Mar 25 00:57:23 2014

@<TRIPOS>MOLECULE
1f8f_NAD_1_INTS_M
   79     0     9     0     0
SMALL
NO_CHARGES


@<TRIPOS>ATOM
      1 N          22.2145   26.6285   11.3340 N.am      2 SEC2        0.0000 
      2 N          21.6600   27.6680   12.3440 N.am      8 SEL2        0.0000 
      3 N          22.7690   25.5890   10.3240 N.am      5 SEP2        0.0000 
      4 CA         22.8255   29.4875    6.3180 C.3       3 GLC5        0.0000 
      5 CA         23.6710   29.0380    8.2760 C.3       9 GLL5        0.0000 
      6 CA         21.9800   29.9370    4.3600 C.3       6 GLP5        0.0000 
      7 CA         22.3080   27.3090    8.8860 C.3       3 GLC5        0.0000 
      8 CA         24.4420   27.7440    8.5890 C.3       9 GLL5        0.0000 
      9 CA         20.1740   26.8740    9.1830 C.3       6 GLP5        0.0000 
     10 CA         23.9030   25.5925    8.3695 C.3       3 GLC5        0.0000 
     11 CA         23.3640   23.4410    8.1500 C.3       6 GLP5        0.0000 
     12 N          23.2525   26.0875    9.2435 N.am      2 SEC2        0.0000 
     13 N          23.7360   26.5860    8.1630 N.am      8 SEL2        0.0000 
     14 O          23.6525   26.5820    6.6725 O.2       1 ALC1        0.0000 
     15 O          23.7360   26.5860    8.1630 O.2       7 ALL1        0.0000 
     16 O          23.5690   26.5780    5.1820 O.2       4 ALP1        0.0000 
     17 O          25.8535   26.2560    5.9375 O.2       1 ALC1        0.0000 
     18 O          26.1640   26.6360    7.1540 O.2       7 ALL1        0.0000 
     19 O          25.5430   25.8760    4.7210 O.2       4 ALP1        0.0000 
     20 O          24.8665   26.6070    6.1680 O.2       1 ALC1        0.0000 
     21 CA         23.7085   29.4385    5.5785 C.3       3 GLC5        0.0000 
     22 CA         25.4370   28.9400    6.7970 C.3       9 GLL5        0.0000 
     23 CA         25.1250   30.7660    5.8210 C.3       3 GLC5        0.0000 
     24 CA         24.8130   32.5920    4.8450 C.3       6 GLP5        0.0000 
     25 CA         29.6630   28.9245    4.0795 C.3       3 GLC5        0.0000 
     26 CA         28.6200   30.8550    3.6770 C.3       9 GLL5        0.0000 
     27 CA         30.7060   26.9940    4.4820 C.3       6 GLP5        0.0000 
     28 CA         28.1430   32.5045    2.3830 C.3       3 GLC5        0.0000 
     29 CA         27.6660   34.1540    1.0890 C.3       6 GLP5        0.0000 
     30 CA         25.7055   28.1670    2.2970 C.3       3 GLC5        0.0000 
     31 CA         26.8120   29.6470    2.7920 C.3       9 GLL5        0.0000 
     32 CA         24.5990   26.6870    1.8020 C.3       6 GLP5        0.0000 
     33 CA         28.2650   28.2650    2.2230 C.3       3 GLC5        0.0000 
     34 CA         29.7180   26.8830    1.6540 C.3       6 GLP5        0.0000 
     35 CA         25.8125   31.1195    3.8185 C.3       3 GLC5        0.0000 
     36 N          18.2590   29.7430   11.0880 N.am      2 SEC2        0.0000 
     37 N          19.6780   30.0460   11.4020 N.am      8 SEL2        0.0000 
     38 N          16.8400   29.4400   10.7740 N.am      5 SEP2        0.0000 
     39 CA         20.2330   33.2260    9.3560 C.3       3 GLC5        0.0000 
     40 CA         20.7310   32.8540   11.5120 C.3       9 GLL5        0.0000 
     41 CA         19.7350   33.5980    7.2000 C.3       6 GLP5        0.0000 
     42 CA         21.5100   36.0230   10.5600 C.3       3 GLC5        0.0000 
     43 CA         21.2580   34.2280   11.7150 C.3       9 GLL5        0.0000 
     44 CA         21.7620   37.8180    9.4050 C.3       6 GLP5        0.0000 
     45 CA         23.4370   33.3945   14.1050 C.3       3 GLC5        0.0000 
     46 CA         22.3750   34.5470   12.7160 C.3       9 GLL5        0.0000 
     47 CA         24.4990   32.2420   15.4940 C.3       6 GLP5        0.0000 
     48 CA         22.3235   33.4920   14.9460 C.3       3 GLC5        0.0000 
     49 CA         21.5340   35.0470   13.8990 C.3       9 GLL5        0.0000 
     50 CA         23.1130   31.9370   15.9930 C.3       6 GLP5        0.0000 
     51 O          21.6220   35.8685   16.3445 O.2       1 ALC1        0.0000 
     52 O          22.2780   35.7140   14.9070 O.2       7 ALL1        0.0000 
     53 O          20.9660   36.0230   17.7820 O.2       4 ALP1        0.0000 
     54 CA         21.2015   36.9030   11.2410 C.3       3 GLC5        0.0000 
     55 CA         20.6410   35.9880   13.0770 C.3       9 GLL5        0.0000 
     56 N          14.4920   39.7315   14.0765 N.am      2 SEC2        0.0000 
     57 N          15.7540   39.3040   14.3710 N.am      8 SEL2        0.0000 
     58 N          13.2300   40.1590   13.7820 N.am      5 SEP2        0.0000 
     59 O          18.4655   39.2640   11.7350 O.2       1 ALC1        0.0000 
     60 O          17.3390   39.8690   12.7670 O.2       7 ALL1        0.0000 
     61 O          19.5920   38.6590   10.7030 O.2       4 ALP1        0.0000 
     62 O          16.4330   40.6960   11.6730 O.2       1 ALC1        0.0000 
     63 O          15.5270   41.5230   10.5790 O.2       4 ALP1        0.0000 
     64 CA         21.8062   28.1645    9.0257 C.3       3 GLC5        0.0000 
     65 CA         23.2060   29.8720    9.4610 C.3       9 GLL5        0.0000 
     66 CA         28.4245   28.3300    4.5258 C.3       3 GLC5        0.0000 
     67 CA         26.9290   29.8130    4.9670 C.3       9 GLL5        0.0000 
     68 CA         29.3420   26.4700    4.0950 C.3       6 GLP5        0.0000 
     69 CA         26.2269   31.4270    4.7421 C.3       3 GLC5        0.0000 
     70 CA         28.0850   30.5670    4.9460 C.3       9 GLL5        0.0000 
     71 CA         19.1668   32.9295   11.7473 C.3       3 GLC5        0.0000 
     72 CA         17.3390   32.3180   11.8810 C.3       6 GLP5        0.0000 
     73 CA         16.2972   35.5743   16.4503 C.3       3 GLC5        0.0000 
     74 CA         17.0170   36.8830   15.0320 C.3       9 GLL5        0.0000 
     75 CA         15.3620   34.9300   17.9710 C.3       6 GLP5        0.0000 
     76 CA         15.9299   36.3683   13.3137 C.3       3 GLC5        0.0000 
     77 CA         17.4480   35.5540   14.8270 C.3       9 GLL5        0.0000 
     78 CA         14.4800   36.2960   11.9350 C.3       6 GLP5        0.0000 
     79 CA         17.6917   33.8420   13.2088 C.3       3 GLC5        0.0000 
@<TRIPOS>BOND
@<TRIPOS>SUBSTRUCTURE
     1 ALC1       14 GROUP        1 X    ALC  0     ROOT ALC X 1
     2 SEC2        1 GROUP        1 X    SEC  0     **** SEC X 2
     3 GLC5        4 GROUP        1 X    GLC  0     **** GLC X 6
     4 ALP1       16 GROUP        1 Y    ALP  0     ROOT ALP Y 8
     5 SEP2        3 GROUP        1 Y    SEP  0     **** SEP Y 9
     6 GLP5        6 GROUP        1 Y    GLP  0     **** GLP Y 13
     7 ALL1       15 GROUP        1 Z    ALL  0     ROOT ALL Z 15
     8 SEL2        2 GROUP        1 Z    SEL  0     **** SEL Z 16
     9 GLL5        5 GROUP        1 Z    GLL  0     **** GLL Z 20
@<TRIPOS>SET

