#    Name: 1f8f_NAD_1_ligand
#    Modification time : Tue Mar 25 00:57:23 2014

@<TRIPOS>MOLECULE
1f8f_NAD_1_ligand
   70    74     1     0     0
SMALL
NO_CHARGES


@<TRIPOS>ATOM
      1 PA         22.5840   28.7710   11.9280 P.3       1 NAD375      0.0000 
      2 O1A        21.6600   27.6680   12.3440 O.co2     1 NAD375      0.0000 
      3 O2A        23.9910   28.6780   12.3430 O.co2     1 NAD375      0.0000 
      4 O5B        22.4200   29.0740   10.3790 O.3       1 NAD375      0.0000 
      5 C5B        23.2060   29.8720    9.4610 C.3       1 NAD375      0.0000 
      6 C4B        23.6710   29.0380    8.2760 C.3       1 NAD375      0.0000 
      7 O4B        24.5680   29.8500    7.4460 O.3       1 NAD375      0.0000 
      8 C3B        24.4420   27.7440    8.5890 C.3       1 NAD375      0.0000 
      9 O3B        23.7360   26.5860    8.1630 O.3       1 NAD375      0.0000 
     10 C2B        25.7580   27.8380    7.8210 C.3       1 NAD375      0.0000 
     11 O2B        26.1640   26.6360    7.1540 O.3       1 NAD375      0.0000 
     12 C1B        25.4370   28.9400    6.7970 C.3       1 NAD375      0.0000 
     13 N9A        26.5990   29.6710    6.3020 N.pl3     1 NAD375      0.0000 
     14 C8A        27.5740   30.3250    7.0100 C.2       1 NAD375      0.0000 
     15 N7A        28.4930   30.8920    6.2280 N.2       1 NAD375      0.0000 
     16 C5A        28.0850   30.5670    4.9460 C.ar      1 NAD375      0.0000 
     17 C6A        28.6200   30.8550    3.6770 C.ar      1 NAD375      0.0000 
     18 N6A        29.7160   31.5730    3.4490 N.pl3     1 NAD375      0.0000 
     19 N1A        27.9470   30.3860    2.5950 N.ar      1 NAD375      0.0000 
     20 C2A        26.8120   29.6470    2.7920 C.ar      1 NAD375      0.0000 
     21 N3A        26.2400   29.3330    3.9160 N.ar      1 NAD375      0.0000 
     22 C4A        26.9290   29.8130    4.9670 C.ar      1 NAD375      0.0000 
     23 O3         21.9350   30.1370   12.5380 O.3       1 NAD375      0.0000 
     24 PN         20.3810   30.4840   12.6220 P.3       1 NAD375      0.0000 
     25 O1N        19.6780   30.0460   11.4020 O.co2     1 NAD375      0.0000 
     26 O2N        19.8270   29.9180   13.8600 O.co2     1 NAD375      0.0000 
     27 O5D        20.4990   32.1040   12.7160 O.3       1 NAD375      0.0000 
     28 C5D        20.7310   32.8540   11.5120 C.3       1 NAD375      0.0000 
     29 C4D        21.2580   34.2280   11.7150 C.3       1 NAD375      0.0000 
     30 O4D        20.1980   35.2090   11.9540 O.3       1 NAD375      0.0000 
     31 C3D        22.3750   34.5470   12.7160 C.3       1 NAD375      0.0000 
     32 O3D        23.1210   35.6770   12.2240 O.3       1 NAD375      0.0000 
     33 C2D        21.5340   35.0470   13.8990 C.3       1 NAD375      0.0000 
     34 O2D        22.2780   35.7140   14.9070 O.3       1 NAD375      0.0000 
     35 C1D        20.6410   35.9880   13.0770 C.3       1 NAD375      0.0000 
     36 N1N        19.4150   36.2960   13.8060 N.pl3     1 NAD375      0.0000 
     37 C2N        18.8000   37.4570   13.4640 C.ar      1 NAD375      0.0000 
     38 C3N        17.6060   37.7710   14.0840 C.ar      1 NAD375      0.0000 
     39 C7N        16.7940   39.0740   13.7560 C.2       1 NAD375      0.0000 
     40 O7N        15.7540   39.3040   14.3710 O.2       1 NAD375      0.0000 
     41 N7N        17.3390   39.8690   12.7670 N.am      1 NAD375      0.0000 
     42 C4N        17.0170   36.8830   15.0320 C.ar      1 NAD375      0.0000 
     43 C5N        17.4480   35.5540   14.8270 C.ar      1 NAD375      0.0000 
     44 C6N        18.6410   35.1780   14.2460 C.ar      1 NAD375      0.0000 
     45 H          24.0952   30.2848    9.9581 H         1 NAD375      0.0000 
     46 H          22.6220   30.7191    9.0743 H         1 NAD375      0.0000 
     47 H          22.8050   28.7704    7.6656 H         1 NAD375      0.0000 
     48 H          24.6709   27.7348    9.6318 H         1 NAD375      0.0000 
     49 H          26.4981   28.2407    8.4793 H         1 NAD375      0.0000 
     50 H          24.9101   28.4653    5.9700 H         1 NAD375      0.0000 
     51 H          27.5776   30.3612    8.0035 H         1 NAD375      0.0000 
     52 H          30.2045   31.8994    4.2582 H         1 NAD375      0.0000 
     53 H          29.9528   31.7217    2.4889 H         1 NAD375      0.0000 
     54 H          26.3410   29.2826    1.8618 H         1 NAD375      0.0000 
     55 H          19.7848   32.9254   10.9125 H         1 NAD375      0.0000 
     56 H          21.4415   32.3004   10.8424 H         1 NAD375      0.0000 
     57 H          21.7033   34.5661   10.6905 H         1 NAD375      0.0000 
     58 H          22.8898   33.7270   12.9640 H         1 NAD375      0.0000 
     59 H          20.9273   34.2434   14.2123 H         1 NAD375      0.0000 
     60 H          21.1637   36.8281   12.7906 H         1 NAD375      0.0000 
     61 H          19.2008   38.0899   12.7672 H         1 NAD375      0.0000 
     62 H          16.8039   40.6714   12.5027 H         1 NAD375      0.0000 
     63 H          18.2214   39.5732   12.4010 H         1 NAD375      0.0000 
     64 H          16.4077   37.1602   15.7174 H         1 NAD375      0.0000 
     65 H          16.7856   34.7847   15.1536 H         1 NAD375      0.0000 
     66 H          18.9457   34.2607   14.1356 H         1 NAD375      0.0000 
     67 H          23.6912   26.6622    7.1669 H         1 NAD375      0.0000 
     68 H          25.7271   26.6785    6.2555 H         1 NAD375      0.0000 
     69 H          23.0339   36.3742   12.9356 H         1 NAD375      0.0000 
     70 H          21.6869   35.7050   15.7135 H         1 NAD375      0.0000 
@<TRIPOS>BOND
     1    2    1 ar   
     2    3    1 ar   
     3    4    1 1    
     4   23    1 1    
     5    5    4 1    
     6    6    5 1    
     7   45    5 1    
     8   46    5 1    
     9    7    6 1    
    10    8    6 1    
    11   47    6 1    
    12   12    7 1    
    13    9    8 1    
    14   10    8 1    
    15   48    8 1    
    16   67    9 1    
    17   11   10 1    
    18   12   10 1    
    19   49   10 1    
    20   68   11 1    
    21   13   12 1    
    22   50   12 1    
    23   14   13 1    
    24   22   13 1    
    25   15   14 2    
    26   51   14 1    
    27   16   15 1    
    28   17   16 ar   
    29   22   16 ar   
    30   18   17 1    
    31   19   17 ar   
    32   52   18 1    
    33   53   18 1    
    34   20   19 ar   
    35   21   20 ar   
    36   54   20 1    
    37   22   21 ar   
    38   24   23 1    
    39   25   24 ar   
    40   26   24 ar   
    41   27   24 1    
    42   28   27 1    
    43   29   28 1    
    44   55   28 1    
    45   56   28 1    
    46   30   29 1    
    47   31   29 1    
    48   57   29 1    
    49   35   30 1    
    50   32   31 1    
    51   33   31 1    
    52   58   31 1    
    53   69   32 1    
    54   34   33 1    
    55   35   33 1    
    56   59   33 1    
    57   70   34 1    
    58   36   35 1    
    59   60   35 1    
    60   37   36 ar   
    61   44   36 ar   
    62   38   37 ar   
    63   61   37 1    
    64   39   38 1    
    65   42   38 ar   
    66   40   39 2    
    67   41   39 am   
    68   62   41 1    
    69   63   41 1    
    70   43   42 ar   
    71   64   42 1    
    72   44   43 ar   
    73   65   43 1    
    74   66   44 1    
@<TRIPOS>SUBSTRUCTURE
     1 NAD375      1 GROUP   
@<TRIPOS>SET

