#    Name: 4gj2_0XH_1_INTS_M
#    Modification time : Mon Mar 24 22:17:22 2014

@<TRIPOS>MOLECULE
4gj2_0XH_1_INTS_M
   64     0     9     0     0
SMALL
NO_CHARGES


@<TRIPOS>ATOM
      1 CA         -5.3415   -2.6820  -17.9835 C.3       3 GLC5        0.0000 
      2 CA         -5.2860   -3.8540  -16.2350 C.3       9 GLL5        0.0000 
      3 CA         -5.3970   -1.5100  -19.7320 C.3       6 GLP5        0.0000 
      4 CA         -8.2690   -2.5480  -16.7210 C.3       3 GLC5        0.0000 
      5 CA         -6.6500   -3.7700  -15.9880 C.3       9 GLL5        0.0000 
      6 CA         -9.8880   -1.3260  -17.4540 C.3       6 GLP5        0.0000 
      7 CA         -9.4920   -3.0540  -16.4240 C.3       3 GLC5        0.0000 
      8 CA         -9.0960   -4.7820  -15.3940 C.3       9 GLL5        0.0000 
      9 CA        -10.5120   -5.9715  -15.7445 C.3       3 GLC5        0.0000 
     10 CA        -11.9280   -7.1610  -16.0950 C.3       6 GLP5        0.0000 
     11 CA        -10.7040   -4.4465  -14.6010 C.3       3 GLC5        0.0000 
     12 CA        -12.3120   -4.1110  -13.8080 C.3       6 GLP5        0.0000 
     13 CA         -8.6715   -3.3730  -14.1220 C.3       3 GLC5        0.0000 
     14 CA         -8.2470   -1.9640  -12.8500 C.3       6 GLP5        0.0000 
     15 CA        -11.4545  -12.5890  -15.0150 C.3       3 GLC5        0.0000 
     16 CA        -10.3820  -10.8040  -15.2610 C.3       9 GLL5        0.0000 
     17 CA        -12.5270  -14.3740  -14.7690 C.3       6 GLP5        0.0000 
     18 CA        -12.3465  -10.5045  -15.6255 C.3       3 GLC5        0.0000 
     19 CA        -14.3110  -10.2050  -15.9900 C.3       6 GLP5        0.0000 
     20 N         -11.8245  -12.1500  -16.4425 N.am      2 SEC2        0.0000 
     21 N         -10.4170  -11.5000  -16.3940 N.am      8 SEL2        0.0000 
     22 N         -13.2320  -12.8000  -16.4910 N.am      5 SEP2        0.0000 
     23 CA        -11.8855  -10.9180  -17.4425 C.3       3 GLC5        0.0000 
     24 CA         -9.6680  -11.1780  -17.4470 C.3       9 GLL5        0.0000 
     25 CA        -14.1030  -10.6580  -17.4380 C.3       6 GLP5        0.0000 
     26 O         -11.0845  -12.1595  -18.9255 O.2       1 ALC1        0.0000 
     27 O          -9.7970  -11.9140  -18.6300 O.2       7 ALL1        0.0000 
     28 O         -12.3720  -12.4050  -19.2210 O.2       4 ALP1        0.0000 
     29 CA         -4.5330   -9.6895  -16.2435 C.3       3 GLC5        0.0000 
     30 CA         -4.5540   -7.7650  -15.8680 C.3       9 GLL5        0.0000 
     31 CA         -4.5120  -11.6140  -16.6190 C.3       6 GLP5        0.0000 
     32 CA         -2.8855   -8.0775  -16.3850 C.3       3 GLC5        0.0000 
     33 CA         -1.2170   -8.3900  -16.9020 C.3       6 GLP5        0.0000 
     34 CA         -4.4300   -8.5925  -14.3800 C.3       3 GLC5        0.0000 
     35 CA         -4.3060   -9.4200  -12.8920 C.3       6 GLP5        0.0000 
     36 CA         -3.9143   -4.0650  -14.3835 C.3       3 GLC5        0.0000 
     37 CA         -4.6470   -5.0880  -16.1850 C.3       9 GLL5        0.0000 
     38 CA         -2.8620   -3.6590  -12.5570 C.3       6 GLP5        0.0000 
     39 CA         -5.3305   -7.1427  -13.9842 C.3       3 GLC5        0.0000 
     40 CA         -5.3670   -6.2390  -15.8860 C.3       9 GLL5        0.0000 
     41 CA         -4.6040   -8.0860  -12.2140 C.3       6 GLP5        0.0000 
     42 CA         -7.6327   -3.1515  -14.3440 C.3       3 GLC5        0.0000 
     43 CA         -7.3870   -4.9080  -15.6880 C.3       9 GLL5        0.0000 
     44 CA         -9.5012  -11.5293  -13.9705 C.3       3 GLC5        0.0000 
     45 CA         -9.5510   -9.6970  -15.1270 C.3       9 GLL5        0.0000 
     46 CA         -9.0360  -12.8080  -12.7470 C.3       6 GLP5        0.0000 
     47 CA        -11.3157   -9.5048  -14.0020 C.3       3 GLC5        0.0000 
     48 CA        -12.6650   -8.7590  -12.8100 C.3       6 GLP5        0.0000 
     49 CA        -10.9473   -8.7057  -15.6445 C.3       3 GLC5        0.0000 
     50 CA         -8.1926  -11.4575  -15.6541 C.3       3 GLC5        0.0000 
     51 CA         -6.6200  -12.7610  -15.8420 C.3       6 GLP5        0.0000 
     52 CA         -7.9408  -11.6862  -16.6310 C.3       3 GLC5        0.0000 
     53 CA         -8.8550  -10.0450  -17.3930 C.3       9 GLL5        0.0000 
     54 CA         -9.9456   -8.6505  -17.6769 C.3       3 GLC5        0.0000 
     55 CA        -10.6570   -6.8730  -18.2280 C.3       6 GLP5        0.0000 
     56 CA         -9.7787  -11.3010  -21.5383 C.3       3 GLC5        0.0000 
     57 CA         -9.2720  -12.8790  -20.8070 C.3       9 GLL5        0.0000 
     58 CA        -10.6860   -9.7830  -21.6190 C.3       6 GLP5        0.0000 
     59 CA         -6.6222  -13.8525  -19.4040 C.3       3 GLC5        0.0000 
     60 CA         -8.3730  -14.0260  -21.2580 C.3       9 GLL5        0.0000 
     61 CA         -5.4590  -13.5760  -17.9110 C.3       6 GLP5        0.0000 
     62 CA         -8.9771  -14.7191  -19.5406 C.3       3 GLC5        0.0000 
     63 CA         -7.1980  -14.2320  -20.5360 C.3       9 GLL5        0.0000 
     64 CA         -9.9440  -15.5960  -18.2970 C.3       6 GLP5        0.0000 
@<TRIPOS>BOND
@<TRIPOS>SUBSTRUCTURE
     1 ALC1       26 GROUP        1 X    ALC  0     ROOT ALC X 1
     2 SEC2       20 GROUP        1 X    SEC  0     **** SEC X 2
     3 GLC5        1 GROUP        1 X    GLC  0     **** GLC X 6
     4 ALP1       28 GROUP        1 Y    ALP  0     ROOT ALP Y 8
     5 SEP2       22 GROUP        1 Y    SEP  0     **** SEP Y 9
     6 GLP5        3 GROUP        1 Y    GLP  0     **** GLP Y 13
     7 ALL1       27 GROUP        1 Z    ALL  0     ROOT ALL Z 15
     8 SEL2       21 GROUP        1 Z    SEL  0     **** SEL Z 16
     9 GLL5        2 GROUP        1 Z    GLL  0     **** GLL Z 20
@<TRIPOS>SET

