#    Name: 4gj2_0XH_1_ligand
#    Modification time : Mon Mar 24 22:17:22 2014

@<TRIPOS>MOLECULE
4gj2_0XH_1_ligand
   36    38     1     0     0
SMALL
NO_CHARGES


@<TRIPOS>ATOM
      1 C1         -5.2860   -3.8540  -16.2350 C.ar      1 0XH1201     0.0000 
      2 C2         -4.6470   -5.0880  -16.1850 C.ar      1 0XH1201     0.0000 
      3 C3         -5.3670   -6.2390  -15.8860 C.ar      1 0XH1201     0.0000 
      4 C4         -6.7470   -6.1600  -15.6230 C.ar      1 0XH1201     0.0000 
      5 C5         -7.3870   -4.9080  -15.6880 C.ar      1 0XH1201     0.0000 
      6 C6         -6.6500   -3.7700  -15.9880 C.ar      1 0XH1201     0.0000 
      7 CL1        -9.0960   -4.7820  -15.3940 Cl        1 0XH1201     0.0000 
      8 C8         -7.5530   -7.3530  -15.2770 C.2       1 0XH1201     0.0000 
      9 O9         -7.8710   -7.5290  -14.1130 O.2       1 0XH1201     0.0000 
     10 N10        -7.9380   -8.1720  -16.2750 N.am      1 0XH1201     0.0000 
     11 C11        -8.7460   -9.3110  -16.2160 C.ar      1 0XH1201     0.0000 
     12 C12        -9.5510   -9.6970  -15.1270 C.ar      1 0XH1201     0.0000 
     13 C13       -10.3820  -10.8040  -15.2610 C.ar      1 0XH1201     0.0000 
     14 N14       -10.4170  -11.5000  -16.3940 N.ar      1 0XH1201     0.0000 
     15 C15        -9.6680  -11.1780  -17.4470 C.ar      1 0XH1201     0.0000 
     16 C16        -8.8550  -10.0450  -17.3930 C.ar      1 0XH1201     0.0000 
     17 N17        -9.7970  -11.9140  -18.6300 N.am      1 0XH1201     0.0000 
     18 C18        -8.8640  -12.0620  -19.6070 C.2       1 0XH1201     0.0000 
     19 O19        -7.7560  -11.5560  -19.5500 O.2       1 0XH1201     0.0000 
     20 C20        -9.2720  -12.8790  -20.8070 C.3       1 0XH1201     0.0000 
     21 C22        -8.4710  -12.7590  -22.1080 C.3       1 0XH1201     0.0000 
     22 C23        -8.3730  -14.0260  -21.2580 C.3       1 0XH1201     0.0000 
     23 F1         -7.1980  -14.2320  -20.5360 F         1 0XH1201     0.0000 
     24 CL2        -4.5540   -7.7650  -15.8680 Cl        1 0XH1201     0.0000 
     25 H          -4.7488   -3.0055  -16.4546 H         1 0XH1201     0.0000 
     26 H          -3.6353   -5.1494  -16.3704 H         1 0XH1201     0.0000 
     27 H          -7.1214   -2.8510  -16.0279 H         1 0XH1201     0.0000 
     28 H          -7.5760   -7.9257  -17.2820 H         1 0XH1201     0.0000 
     29 H          -9.5194   -9.1679  -14.2572 H         1 0XH1201     0.0000 
     30 H         -10.9773  -11.0714  -14.4445 H         1 0XH1201     0.0000 
     31 H          -8.3327   -9.7516  -18.2314 H         1 0XH1201     0.0000 
     32 H         -10.7467  -12.4131  -18.7676 H         1 0XH1201     0.0000 
     33 H         -10.1722  -13.1278  -21.0742 H         1 0XH1201     0.0000 
     34 H          -7.7093  -12.2330  -21.9223 H         1 0XH1201     0.0000 
     35 H          -9.0628  -12.9405  -22.8209 H         1 0XH1201     0.0000 
     36 H          -8.9799  -14.6598  -21.6888 H         1 0XH1201     0.0000 
@<TRIPOS>BOND
     1    2    1 ar   
     2    6    1 ar   
     3   25    1 1    
     4    3    2 ar   
     5   26    2 1    
     6    4    3 ar   
     7   24    3 1    
     8    5    4 ar   
     9    8    4 1    
    10    6    5 ar   
    11    7    5 1    
    12   27    6 1    
    13    9    8 2    
    14   10    8 am   
    15   11   10 1    
    16   28   10 1    
    17   12   11 ar   
    18   16   11 ar   
    19   13   12 ar   
    20   29   12 1    
    21   14   13 ar   
    22   30   13 1    
    23   15   14 ar   
    24   16   15 ar   
    25   17   15 1    
    26   31   16 1    
    27   18   17 am   
    28   32   17 1    
    29   19   18 2    
    30   20   18 1    
    31   21   20 1    
    32   22   20 1    
    33   33   20 1    
    34   22   21 1    
    35   34   21 1    
    36   35   21 1    
    37   23   22 1    
    38   36   22 1    
@<TRIPOS>SUBSTRUCTURE
     1 0XH1201     1 GROUP   
@<TRIPOS>SET

