#    Name: 3bsa_1PD_2_INTS_M
#    Modification time : Mon Mar 24 20:01:39 2014

@<TRIPOS>MOLECULE
3bsa_1PD_2_INTS_M
   52     0     9     0     0
SMALL
NO_CHARGES


@<TRIPOS>ATOM
      1 CA         54.0550   -5.9775   44.6515 C.3       3 GLC5        0.0000 
      2 CA         52.8870   -7.6090   45.1400 C.3       9 GLL5        0.0000 
      3 CA         55.2230   -4.3460   44.1630 C.3       6 GLP5        0.0000 
      4 CA         51.0440   -8.3350   41.7055 C.3       3 GLC5        0.0000 
      5 CA         52.8050   -7.8960   42.3150 C.3       9 GLL5        0.0000 
      6 CA         49.2830   -8.7740   41.0960 C.3       6 GLP5        0.0000 
      7 N          53.4460   -8.0840   38.7885 N.am      2 SEC2        0.0000 
      8 N          53.6830   -7.8180   40.0720 N.am      8 SEL2        0.0000 
      9 N          53.2090   -8.3500   37.5050 N.am      5 SEP2        0.0000 
     10 O          52.7405  -11.0990   41.5320 O.2       1 ALC1        0.0000 
     11 O          53.4080   -9.8650   41.0670 O.2       7 ALL1        0.0000 
     12 O          52.0730  -12.3330   41.9970 O.2       4 ALP1        0.0000 
     13 CA         50.1770  -11.3430   44.9925 C.3       3 GLC5        0.0000 
     14 CA         51.4630   -9.5750   45.2150 C.3       9 GLL5        0.0000 
     15 CA         48.8910  -13.1110   44.7700 C.3       6 GLP5        0.0000 
     16 CA         49.7140  -10.3405   47.4665 C.3       3 GLC5        0.0000 
     17 CA         51.1800   -9.3260   46.5540 C.3       9 GLL5        0.0000 
     18 CA         48.2480  -11.3550   48.3790 C.3       6 GLP5        0.0000 
     19 N          52.9530   -4.2615   51.0040 N.am      2 SEC2        0.0000 
     20 N          53.3760   -5.6190   51.3690 N.am      8 SEL2        0.0000 
     21 N          52.5300   -2.9040   50.6390 N.am      5 SEP2        0.0000 
     22 CA         49.8355  -11.3285   51.4010 C.3       3 GLC5        0.0000 
     23 CA         50.9250  -10.4180   52.9280 C.3       9 GLL5        0.0000 
     24 CA         48.7460  -12.2390   49.8740 C.3       6 GLP5        0.0000 
     25 CA         49.4135  -12.3845   54.2730 C.3       3 GLC5        0.0000 
     26 CA         49.8910  -10.2530   54.0370 C.3       9 GLL5        0.0000 
     27 CA         48.9360  -14.5160   54.5090 C.3       6 GLP5        0.0000 
     28 CA         46.1065   -9.8440   52.5015 C.3       3 GLC5        0.0000 
     29 CA         47.9150   -9.3380   52.7120 C.3       9 GLL5        0.0000 
     30 CA         44.2980  -10.3500   52.2910 C.3       6 GLP5        0.0000 
     31 CA         48.3305  -10.7885   51.2930 C.3       3 GLC5        0.0000 
     32 CA         46.5790  -10.4740   54.1120 C.3       3 GLC5        0.0000 
     33 CA         45.2430  -11.6100   55.5120 C.3       6 GLP5        0.0000 
     34 CA         48.3985   -7.4765   51.7760 C.3       3 GLC5        0.0000 
     35 CA         48.8820   -5.6150   50.8400 C.3       6 GLP5        0.0000 
     36 CA         47.0455   -8.0955   56.4775 C.3       3 GLC5        0.0000 
     37 CA         48.0830   -8.9680   55.1780 C.3       9 GLL5        0.0000 
     38 CA         46.0080   -7.2230   57.7770 C.3       6 GLP5        0.0000 
     39 CA         46.6630  -10.2890   55.3450 C.3       3 GLC5        0.0000 
     40 CA         54.1350   -3.7830   53.2125 C.3       3 GLC5        0.0000 
     41 CA         54.6860   -5.7930   53.9150 C.3       9 GLL5        0.0000 
     42 CA         53.5840   -1.7730   52.5100 C.3       6 GLP5        0.0000 
     43 CA         49.3953   -9.3532   45.7223 C.3       3 GLC5        0.0000 
     44 CA         47.4690   -9.2560   45.5600 C.3       6 GLP5        0.0000 
     45 CA         51.1690  -11.0462   55.0667 C.3       3 GLC5        0.0000 
     46 CA         51.9300  -11.7570   56.6510 C.3       6 GLP5        0.0000 
     47 CA         49.1640   -7.0397   54.6007 C.3       3 GLC5        0.0000 
     48 CA         48.8770   -9.1030   53.8790 C.3       9 GLL5        0.0000 
     49 CA         49.8480   -5.0440   54.6730 C.3       6 GLP5        0.0000 
     50 CA         53.2133   -6.2351   55.2832 C.3       3 GLC5        0.0000 
     51 CA         54.0790   -7.0220   53.8620 C.3       9 GLL5        0.0000 
     52 CA         51.8840   -5.8030   56.3790 C.3       6 GLP5        0.0000 
@<TRIPOS>BOND
@<TRIPOS>SUBSTRUCTURE
     1 ALC1       10 GROUP        1 X    ALC  0     ROOT ALC X 1
     2 SEC2        7 GROUP        1 X    SEC  0     **** SEC X 2
     3 GLC5        1 GROUP        1 X    GLC  0     **** GLC X 6
     4 ALP1       12 GROUP        1 Y    ALP  0     ROOT ALP Y 8
     5 SEP2        9 GROUP        1 Y    SEP  0     **** SEP Y 9
     6 GLP5        3 GROUP        1 Y    GLP  0     **** GLP Y 13
     7 ALL1       11 GROUP        1 Z    ALL  0     ROOT ALL Z 15
     8 SEL2        8 GROUP        1 Z    SEL  0     **** SEL Z 16
     9 GLL5        2 GROUP        1 Z    GLL  0     **** GLL Z 20
@<TRIPOS>SET

