#    Name: 3bsa_1PD_2_ligand
#    Modification time : Mon Mar 24 20:01:40 2014

@<TRIPOS>MOLECULE
3bsa_1PD_2_ligand
   57    60     1     0     0
SMALL
NO_CHARGES


@<TRIPOS>ATOM
      1 O31        52.5880   -4.8020   46.8310 O.2       1 1PD579      0.0000 
      2 S35        53.3260   -5.9590   47.2700 S.o2      1 1PD579      0.0000 
      3 O30        54.7630   -6.0260   47.1290 O.2       1 1PD579      0.0000 
      4 C8         52.6040   -7.3640   46.4850 C.ar      1 1PD579      0.0000 
      5 C3         52.8870   -7.6090   45.1400 C.ar      1 1PD579      0.0000 
      6 C7         52.3090   -8.7160   44.5170 C.ar      1 1PD579      0.0000 
      7 O33        52.5640   -8.9820   43.2100 O.3       1 1PD579      0.0000 
      8 C18        52.8050   -7.8960   42.3150 C.3       1 1PD579      0.0000 
      9 C15        53.3440   -8.4880   41.0360 C.2       1 1PD579      0.0000 
     10 O29        53.6830   -7.8180   40.0720 O.2       1 1PD579      0.0000 
     11 N27        53.4080   -9.8650   41.0670 N.am      1 1PD579      0.0000 
     12 C2         51.4630   -9.5750   45.2150 C.ar      1 1PD579      0.0000 
     13 N25        52.9550   -6.2540   48.8900 N.pl3     1 1PD579      0.0000 
     14 C13        52.1290   -7.3290   49.3100 C.2       1 1PD579      0.0000 
     15 N23        51.4080   -8.0510   48.5390 N.2       1 1PD579      0.0000 
     16 C6         51.7500   -8.2150   47.2000 C.ar      1 1PD579      0.0000 
     17 C1         51.1800   -9.3260   46.5540 C.ar      1 1PD579      0.0000 
     18 C11        52.1290   -7.5750   50.7540 C.2       1 1PD579      0.0000 
     19 C12        52.8600   -6.8710   51.6380 C.2       1 1PD579      0.0000 
     20 O32        53.3760   -5.6190   51.3690 O.3       1 1PD579      0.0000 
     21 C14        51.2450   -8.6680   51.2500 C.2       1 1PD579      0.0000 
     22 O28        50.2940   -9.0970   50.5910 O.2       1 1PD579      0.0000 
     23 N26        51.5280   -9.1710   52.4930 N.am      1 1PD579      0.0000 
     24 C20        50.9250  -10.4180   52.9280 C.3       1 1PD579      0.0000 
     25 C19        49.8910  -10.2530   54.0370 C.3       1 1PD579      0.0000 
     26 C21        48.8770   -9.1030   53.8790 C.3       1 1PD579      0.0000 
     27 C17        47.9150   -9.3380   52.7120 C.3       1 1PD579      0.0000 
     28 C16        48.0830   -8.9680   55.1780 C.3       1 1PD579      0.0000 
     29 N24        52.4780   -8.6360   53.3080 N.2       1 1PD579      0.0000 
     30 C10        53.0540   -7.5320   52.9560 C.2       1 1PD579      0.0000 
     31 C9         54.0790   -7.0220   53.8620 C.2       1 1PD579      0.0000 
     32 S34        54.7190   -8.0610   55.0580 S.3       1 1PD579      0.0000 
     33 C5         55.7460   -6.7870   55.5480 C.2       1 1PD579      0.0000 
     34 N22        55.6420   -5.6550   54.8880 N.2       1 1PD579      0.0000 
     35 C4         54.6860   -5.7930   53.9150 C.2       1 1PD579      0.0000 
     36 H          53.5070   -6.9880   44.6206 H         1 1PD579      0.0000 
     37 H          53.5427   -7.2028   42.7113 H         1 1PD579      0.0000 
     38 H          51.8919   -7.3526   42.0850 H         1 1PD579      0.0000 
     39 H          53.1138  -10.3001   41.9179 H         1 1PD579      0.0000 
     40 H          53.7431  -10.3087   40.2358 H         1 1PD579      0.0000 
     41 H          51.0511  -10.3871   44.7429 H         1 1PD579      0.0000 
     42 H          53.3878   -5.5821   49.4977 H         1 1PD579      0.0000 
     43 H          50.5552   -9.9501   47.0767 H         1 1PD579      0.0000 
     44 H          51.7030  -11.1231   53.2926 H         1 1PD579      0.0000 
     45 H          50.4288  -10.9313   52.0762 H         1 1PD579      0.0000 
     46 H          50.4226  -10.1173   55.0070 H         1 1PD579      0.0000 
     47 H          49.3228  -11.2058   54.1435 H         1 1PD579      0.0000 
     48 H          49.4174   -8.1870   53.7151 H         1 1PD579      0.0000 
     49 H          56.3136   -7.0675   56.2955 H         1 1PD579      0.0000 
     50 H          54.4474   -5.0493   53.2872 H         1 1PD579      0.0000 
     51 H          48.4001   -9.4181   51.8412 H         1 1PD579      0.0000 
     52 H          47.3853  -10.1778   52.8307 H         1 1PD579      0.0000 
     53 H          47.2594   -8.5892   52.6146 H         1 1PD579      0.0000 
     54 H          48.6768   -8.7668   55.9570 H         1 1PD579      0.0000 
     55 H          47.4082   -8.2319   55.1260 H         1 1PD579      0.0000 
     56 H          47.5852   -9.8070   55.3979 H         1 1PD579      0.0000 
     57 H          54.3152   -5.6473   51.7113 H         1 1PD579      0.0000 
@<TRIPOS>BOND
     1    2    1 2    
     2    3    2 2    
     3    4    2 1    
     4   13    2 1    
     5    5    4 ar   
     6   16    4 ar   
     7    6    5 ar   
     8   36    5 1    
     9    7    6 1    
    10   12    6 ar   
    11    8    7 1    
    12    9    8 1    
    13   37    8 1    
    14   38    8 1    
    15   10    9 2    
    16   11    9 am   
    17   39   11 1    
    18   40   11 1    
    19   17   12 ar   
    20   41   12 1    
    21   14   13 1    
    22   42   13 1    
    23   15   14 2    
    24   18   14 1    
    25   16   15 1    
    26   17   16 ar   
    27   43   17 1    
    28   19   18 2    
    29   21   18 1    
    30   20   19 1    
    31   30   19 1    
    32   57   20 1    
    33   22   21 2    
    34   23   21 am   
    35   24   23 1    
    36   29   23 1    
    37   25   24 1    
    38   44   24 1    
    39   45   24 1    
    40   26   25 1    
    41   46   25 1    
    42   47   25 1    
    43   27   26 1    
    44   28   26 1    
    45   48   26 1    
    46   51   27 1    
    47   52   27 1    
    48   53   27 1    
    49   54   28 1    
    50   55   28 1    
    51   56   28 1    
    52   30   29 2    
    53   31   30 1    
    54   32   31 1    
    55   35   31 2    
    56   33   32 1    
    57   34   33 2    
    58   49   33 1    
    59   35   34 1    
    60   50   35 1    
@<TRIPOS>SUBSTRUCTURE
     1 1PD579      1 GROUP   
@<TRIPOS>SET

