#    Name: 3b2w_9NH_1_INTS_M
#    Modification time : Mon Mar 24 18:50:13 2014

@<TRIPOS>MOLECULE
3b2w_9NH_1_INTS_M
  107     0     9     0     0
SMALL
NO_CHARGES


@<TRIPOS>ATOM
      1 CA          5.4980  -10.3720    8.5415 C.3       3 GLC5        0.0000 
      2 CA          6.9020   -8.7700    8.9420 C.3       9 GLL5        0.0000 
      3 CA          4.0940  -11.9740    8.1410 C.3       6 GLP5        0.0000 
      4 CA         17.1255   -7.3575   15.5080 C.3       3 GLC5        0.0000 
      5 CA         15.3390   -8.1580   15.6400 C.3       9 GLL5        0.0000 
      6 CA         18.9120   -6.5570   15.3760 C.3       6 GLP5        0.0000 
      7 CA         16.6365   -9.0030   17.0990 C.3       3 GLC5        0.0000 
      8 CA         17.9340   -9.8480   18.5580 C.3       6 GLP5        0.0000 
      9 CA         16.1285   -4.1700   16.7225 C.3       3 GLC5        0.0000 
     10 CA         16.4360   -3.4860   14.7090 C.3       9 GLL5        0.0000 
     11 CA         15.8210   -4.8540   18.7360 C.3       6 GLP5        0.0000 
     12 CA         18.6180   -4.4695   14.7150 C.3       3 GLC5        0.0000 
     13 CA         18.3240   -2.3820   14.0540 C.3       9 GLL5        0.0000 
     14 CA         19.0000   -2.0935   12.0610 C.3       3 GLC5        0.0000 
     15 CA         19.6760   -1.8050   10.0680 C.3       6 GLP5        0.0000 
     16 CA         16.9425   -1.3255   12.9610 C.3       3 GLC5        0.0000 
     17 CA         15.5610   -0.2690   11.8680 C.3       6 GLP5        0.0000 
     18 CA         15.5170   -3.6880   17.6125 C.3       3 GLC5        0.0000 
     19 CA         15.2130   -2.5220   16.4890 C.3       9 GLL5        0.0000 
     20 CA         19.1560   -1.5210   16.7350 C.3       3 GLC5        0.0000 
     21 CA         19.0780   -0.2210   14.9330 C.3       9 GLL5        0.0000 
     22 CA         19.2340   -2.8210   18.5370 C.3       6 GLP5        0.0000 
     23 CA         11.5855  -10.4880   12.4285 C.3       3 GLC5        0.0000 
     24 CA         12.1750   -9.0510   13.6580 C.3       9 GLL5        0.0000 
     25 CA         10.9960  -11.9250   11.1990 C.3       6 GLP5        0.0000 
     26 O           9.5430   -9.1425   13.0810 O.2       1 ALC1        0.0000 
     27 O           9.9160   -8.5310   11.9460 O.2       7 ALL1        0.0000 
     28 O           9.1700   -9.7540   14.2160 O.2       4 ALP1        0.0000 
     29 CA          9.9875  -10.2745   11.0735 C.3       3 GLC5        0.0000 
     30 CA          8.9790   -8.6240   10.9480 C.3       9 GLL5        0.0000 
     31 CA          6.4950  -10.0870    5.3330 C.3       3 GLC5        0.0000 
     32 CA          7.6230   -8.7210    6.2490 C.3       9 GLL5        0.0000 
     33 CA          5.3670  -11.4530    4.4170 C.3       6 GLP5        0.0000 
     34 CA          6.1585   -8.0785    6.0430 C.3       3 GLC5        0.0000 
     35 CA          4.6940   -7.4360    5.8370 C.3       6 GLP5        0.0000 
     36 CA          9.8105  -10.9040    8.2105 C.3       3 GLC5        0.0000 
     37 CA          9.5020   -9.6040    6.7670 C.3       9 GLL5        0.0000 
     38 CA         10.1190  -12.2040    9.6540 C.3       6 GLP5        0.0000 
     39 CA          8.5630  -10.8445    5.2160 C.3       3 GLC5        0.0000 
     40 CA          7.6240  -12.0850    3.6650 C.3       6 GLP5        0.0000 
     41 CA          9.6705   -5.6060    8.0565 C.3       3 GLC5        0.0000 
     42 CA          9.2900   -7.3990    6.7540 C.3       9 GLL5        0.0000 
     43 CA         10.0510   -3.8130    9.3590 C.3       6 GLP5        0.0000 
     44 N          19.9130   -3.2700   12.2720 N.am      2 SEC2        0.0000 
     45 N          18.6700   -3.3050   13.1440 N.am      8 SEL2        0.0000 
     46 N          21.1560   -3.2350   11.4000 N.am      5 SEP2        0.0000 
     47 CA         19.9765   -4.7860   12.7255 C.3       3 GLC5        0.0000 
     48 CA         17.8930   -4.3660   12.9690 C.3       9 GLL5        0.0000 
     49 CA         22.0600   -5.2060   12.4820 C.3       6 GLP5        0.0000 
     50 CA         18.4215   -3.6430   11.1325 C.3       3 GLC5        0.0000 
     51 CA         18.9500   -2.9200    9.2960 C.3       6 GLP5        0.0000 
     52 O          20.1530   -0.8725   13.1420 O.2       1 ALC1        0.0000 
     53 O          19.1220   -1.3010   14.0840 O.2       7 ALL1        0.0000 
     54 O          21.1840   -0.4440   12.2000 O.2       4 ALP1        0.0000 
     55 CA         12.0245   -7.7065    8.8580 C.3       3 GLC5        0.0000 
     56 CA         10.5520   -8.4690    9.2270 C.3       9 GLL5        0.0000 
     57 CA         13.4970   -6.9440    8.4890 C.3       6 GLP5        0.0000 
     58 N          16.7175   -7.2865   12.6615 N.am      2 SEC2        0.0000 
     59 N          16.0150   -6.2550   12.5000 N.am      8 SEL2        0.0000 
     60 N          17.4200   -8.3180   12.8230 N.am      5 SEP2        0.0000 
     61 N           9.7115   -5.6015   11.2010 N.am      2 SEC2        0.0000 
     62 N          10.7770   -6.5320   11.3110 N.am      8 SEL2        0.0000 
     63 N           8.6460   -4.6710   11.0910 N.am      5 SEP2        0.0000 
     64 CA         16.7085    0.0185   13.7210 C.3       3 GLC5        0.0000 
     65 CA         17.8560    0.3060   15.5740 C.3       9 GLL5        0.0000 
     66 CA         19.4830    0.9750   19.4020 C.3       3 GLC5        0.0000 
     67 CA         18.7520    2.9650   18.8430 C.3       9 GLL5        0.0000 
     68 CA         20.2140   -1.0150   19.9610 C.3       6 GLP5        0.0000 
     69 CA         18.2930    1.7343   14.5030 C.3       3 GLC5        0.0000 
     70 CA         17.9380    1.4070   16.4560 C.3       9 GLL5        0.0000 
     71 CA         18.6890    2.6120   12.9910 C.3       6 GLP5        0.0000 
     72 CA          5.1137   -7.7545    9.7828 C.3       3 GLC5        0.0000 
     73 CA          6.5610   -8.8180   10.3370 C.3       9 GLL5        0.0000 
     74 CA          3.4960   -6.7150    9.9260 C.3       6 GLP5        0.0000 
     75 CA         13.3133   -7.4830   11.3090 C.3       3 GLC5        0.0000 
     76 CA         11.9580   -7.7510   12.9840 C.3       9 GLL5        0.0000 
     77 CA         14.2330   -7.7810    9.5310 C.3       6 GLP5        0.0000 
     78 CA          7.1625   -7.2075    6.7397 C.3       3 GLC5        0.0000 
     79 CA          8.6800   -8.5810    7.0250 C.3       9 GLL5        0.0000 
     80 CA          5.3400   -6.4250    6.5900 C.3       6 GLP5        0.0000 
     81 CA         13.9773   -8.8688   16.8540 C.3       3 GLC5        0.0000 
     82 CA         14.1540   -8.0490   14.7320 C.3       9 GLL5        0.0000 
     83 CA         13.2080   -9.6340   18.5220 C.3       6 GLP5        0.0000 
     84 CA         15.2622   -8.8831   13.5404 C.3       3 GLC5        0.0000 
     85 CA         15.8350   -9.9780   12.0600 C.3       6 GLP5        0.0000 
     86 CA         12.9725  -10.9198   14.4158 C.3       3 GLC5        0.0000 
     87 CA         13.2950   -9.2120   14.5530 C.3       9 GLL5        0.0000 
     88 CA         13.2100  -12.7080   14.7260 C.3       6 GLP5        0.0000 
     89 CA         14.2850   -9.5547   13.0828 C.3       3 GLC5        0.0000 
     90 CA         11.4298   -8.6901   15.2839 C.3       3 GLC5        0.0000 
     91 CA         10.5130   -8.9390   17.0230 C.3       6 GLP5        0.0000 
     92 CA         19.2843    2.1562   14.6698 C.3       3 GLC5        0.0000 
     93 CA         19.2670    1.9490   16.6610 C.3       9 GLL5        0.0000 
     94 CA         19.2102    1.3353   14.0158 C.3       3 GLC5        0.0000 
     95 CA         20.3850    0.3380   15.1480 C.3       9 GLL5        0.0000 
     96 CA          7.8476  -10.0527   12.1250 C.3       3 GLC5        0.0000 
     97 CA          7.6640  -11.4030   13.3620 C.3       6 GLP5        0.0000 
     98 CA          7.7676   -6.7687   11.4420 C.3       3 GLC5        0.0000 
     99 CA          7.6060   -8.7440   11.3190 C.3       9 GLL5        0.0000 
    100 CA          7.5040   -4.8350   11.9960 C.3       6 GLP5        0.0000 
    101 CA          9.0047   -8.1206    5.0465 C.3       3 GLC5        0.0000 
    102 CA          8.9510   -7.9780    3.3650 C.3       6 GLP5        0.0000 
    103 CA         18.0731   -5.3651   14.4896 C.3       3 GLC5        0.0000 
    104 CA         16.7150   -4.4750   13.7660 C.3       9 GLL5        0.0000 
    105 CA         16.2591   -3.4091   12.3656 C.3       3 GLC5        0.0000 
    106 CA         15.2840   -2.6450   11.1280 C.3       6 GLP5        0.0000 
    107 CA          9.8919  -10.3731    9.3914 C.3       3 GLC5        0.0000 
@<TRIPOS>BOND
@<TRIPOS>SUBSTRUCTURE
     1 ALC1       26 GROUP        1 X    ALC  0     ROOT ALC X 1
     2 SEC2       44 GROUP        1 X    SEC  0     **** SEC X 2
     3 GLC5        1 GROUP        1 X    GLC  0     **** GLC X 6
     4 ALP1       28 GROUP        1 Y    ALP  0     ROOT ALP Y 8
     5 SEP2       46 GROUP        1 Y    SEP  0     **** SEP Y 9
     6 GLP5        3 GROUP        1 Y    GLP  0     **** GLP Y 13
     7 ALL1       27 GROUP        1 Z    ALL  0     ROOT ALL Z 15
     8 SEL2       45 GROUP        1 Z    SEL  0     **** SEL Z 16
     9 GLL5        2 GROUP        1 Z    GLL  0     **** GLL Z 20
@<TRIPOS>SET

