#    Name: 3b2w_9NH_1_ligand
#    Modification time : Mon Mar 24 18:50:13 2014

@<TRIPOS>MOLECULE
3b2w_9NH_1_ligand
   73    77     1     0     0
SMALL
NO_CHARGES


@<TRIPOS>ATOM
      1 C1         19.7580    3.5410   19.8200 C.3       1 9NH601      0.0000 
      2 C2         17.9380    1.4070   16.4560 C.ar      1 9NH601      0.0000 
      3 C3         20.9130    4.8100   18.1490 C.3       1 9NH601      0.0000 
      4 N6         14.7510   -5.7290   14.2800 N.am      1 9NH601      0.0000 
      5 C7          7.6060   -8.7440   11.3190 C.ar      1 9NH601      0.0000 
      6 C8          6.5610   -8.8180   10.3370 C.ar      1 9NH601      0.0000 
      7 C9          6.9020   -8.7700    8.9420 C.ar      1 9NH601      0.0000 
      8 C10         8.2740   -8.6490    8.5090 C.ar      1 9NH601      0.0000 
      9 C11         9.2810   -8.5820    9.5520 C.ar      1 9NH601      0.0000 
     10 C12        12.8290   -6.6190   13.1900 C.ar      1 9NH601      0.0000 
     11 C13        13.9260   -6.7880   14.0710 C.ar      1 9NH601      0.0000 
     12 C14         8.6800   -8.5810    7.0250 C.3       1 9NH601      0.0000 
     13 C15        14.1540   -8.0490   14.7320 C.ar      1 9NH601      0.0000 
     14 C16        15.3390   -8.1580   15.6400 C.3       1 9NH601      0.0000 
     15 C19        16.4360   -3.4860   14.7090 C.ar      1 9NH601      0.0000 
     16 C20        18.3240   -2.3820   14.0540 C.ar      1 9NH601      0.0000 
     17 C21        15.2130   -2.5220   16.4890 C.3       1 9NH601      0.0000 
     18 C22        13.2950   -9.2120   14.5530 C.ar      1 9NH601      0.0000 
     19 C24        11.9580   -7.7510   12.9840 C.ar      1 9NH601      0.0000 
     20 C27        15.8140   -5.5530   13.4730 C.2       1 9NH601      0.0000 
     21 C30        20.4920    1.4520   16.0360 C.ar      1 9NH601      0.0000 
     22 C31        19.0780   -0.2210   14.9330 C.ar      1 9NH601      0.0000 
     23 C23        12.1750   -9.0510   13.6580 C.ar      1 9NH601      0.0000 
     24 C25        10.8430   -7.5340   12.0170 C.2       1 9NH601      0.0000 
     25 N3          9.9160   -8.5310   11.9460 N.am      1 9NH601      0.0000 
     26 C26         8.9790   -8.6240   10.9480 C.ar      1 9NH601      0.0000 
     27 F1          7.6230   -8.7210    6.2490 F         1 9NH601      0.0000 
     28 F3          9.5020   -9.6040    6.7670 F         1 9NH601      0.0000 
     29 F2          9.2900   -7.3990    6.7540 F         1 9NH601      0.0000 
     30 N1         18.6700   -3.3050   13.1440 N.ar      1 9NH601      0.0000 
     31 C17        17.8930   -4.3660   12.9690 C.ar      1 9NH601      0.0000 
     32 C18        16.7150   -4.4750   13.7660 C.ar      1 9NH601      0.0000 
     33 N4         17.2330   -2.4520   14.8440 N.ar      1 9NH601      0.0000 
     34 N7         19.1220   -1.3010   14.0840 N.pl3     1 9NH601      0.0000 
     35 F4         10.5520   -8.4690    9.2270 F         1 9NH601      0.0000 
     36 O1         16.0150   -6.2550   12.5000 O.2       1 9NH601      0.0000 
     37 O2         10.7770   -6.5320   11.3110 O.2       1 9NH601      0.0000 
     38 O3         15.3690   -3.5760   15.5370 O.3       1 9NH601      0.0000 
     39 C28        17.8560    0.3060   15.5740 C.ar      1 9NH601      0.0000 
     40 C29        19.2670    1.9490   16.6610 C.ar      1 9NH601      0.0000 
     41 C5         20.3850    0.3380   15.1480 C.ar      1 9NH601      0.0000 
     42 N2         19.9790    4.9220   19.3120 N.4       1 9NH601      0.0000 
     43 C4         20.0920    4.2150   17.0130 C.3       1 9NH601      0.0000 
     44 N5         19.3620    3.0120   17.4910 N.3       1 9NH601      0.0000 
     45 C6         18.7520    2.9650   18.8430 C.3       1 9NH601      0.0000 
     46 H          19.3336    3.5629   20.7961 H         1 9NH601      0.0000 
     47 H          20.6593    2.9760   19.7772 H         1 9NH601      0.0000 
     48 H          17.1555    1.7934   16.9098 H         1 9NH601      0.0000 
     49 H          21.7248    4.1497   18.3836 H         1 9NH601      0.0000 
     50 H          21.2681    5.7797   17.8598 H         1 9NH601      0.0000 
     51 H          14.5592   -5.0671   15.0538 H         1 9NH601      0.0000 
     52 H           7.3549   -8.7787   12.3147 H         1 9NH601      0.0000 
     53 H           5.5981   -8.9027   10.6228 H         1 9NH601      0.0000 
     54 H           6.1616   -8.8223    8.2408 H         1 9NH601      0.0000 
     55 H          12.6549   -5.7545   12.7237 H         1 9NH601      0.0000 
     56 H          13.4746  -10.0577   15.0199 H         1 9NH601      0.0000 
     57 H          21.3650    1.8866   16.2330 H         1 9NH601      0.0000 
     58 H          11.5383   -9.8045   13.4826 H         1 9NH601      0.0000 
     59 H           9.9160   -9.2760   12.7004 H         1 9NH601      0.0000 
     60 H          18.0914   -5.1078   12.2963 H         1 9NH601      0.0000 
     61 H          19.9232   -1.2654   13.3305 H         1 9NH601      0.0000 
     62 H          16.9740   -0.1408   15.3634 H         1 9NH601      0.0000 
     63 H          21.1862   -0.0416   14.6913 H         1 9NH601      0.0000 
     64 H          20.7633    3.9496   16.1958 H         1 9NH601      0.0000 
     65 H          19.3879    4.9674   16.6567 H         1 9NH601      0.0000 
     66 H          17.8492    3.5601   18.8711 H         1 9NH601      0.0000 
     67 H          18.5307    1.9438   19.1224 H         1 9NH601      0.0000 
     68 H          16.1963   -7.9884   15.1538 H         1 9NH601      0.0000 
     69 H          15.2930   -7.4997   16.3913 H         1 9NH601      0.0000 
     70 H          15.4098   -9.0670   16.0507 H         1 9NH601      0.0000 
     71 H          15.9991   -2.4574   17.1037 H         1 9NH601      0.0000 
     72 H          15.1145   -1.6316   16.0445 H         1 9NH601      0.0000 
     73 H          14.4037   -2.6551   17.0611 H         1 9NH601      0.0000 
@<TRIPOS>BOND
     1   42    1 1    
     2   45    1 1    
     3   46    1 1    
     4   47    1 1    
     5   39    2 ar   
     6   40    2 ar   
     7   48    2 1    
     8   42    3 1    
     9   43    3 1    
    10   49    3 1    
    11   50    3 1    
    12   11    4 1    
    13   20    4 am   
    14   51    4 1    
    15    6    5 ar   
    16   26    5 ar   
    17   52    5 1    
    18    7    6 ar   
    19   53    6 1    
    20    8    7 ar   
    21   54    7 1    
    22    9    8 ar   
    23   12    8 1    
    24   26    9 ar   
    25   35    9 1    
    26   11   10 ar   
    27   19   10 ar   
    28   55   10 1    
    29   13   11 ar   
    30   27   12 1    
    31   28   12 1    
    32   29   12 1    
    33   14   13 1    
    34   18   13 ar   
    35   68   14 1    
    36   69   14 1    
    37   70   14 1    
    38   32   15 ar   
    39   33   15 ar   
    40   38   15 1    
    41   30   16 ar   
    42   33   16 ar   
    43   34   16 1    
    44   38   17 1    
    45   71   17 1    
    46   72   17 1    
    47   73   17 1    
    48   23   18 ar   
    49   56   18 1    
    50   23   19 ar   
    51   24   19 1    
    52   32   20 1    
    53   36   20 2    
    54   40   21 ar   
    55   41   21 ar   
    56   57   21 1    
    57   34   22 1    
    58   39   22 ar   
    59   41   22 ar   
    60   58   23 1    
    61   25   24 am   
    62   37   24 2    
    63   26   25 1    
    64   59   25 1    
    65   31   30 ar   
    66   32   31 ar   
    67   60   31 1    
    68   61   34 1    
    69   62   39 1    
    70   44   40 1    
    71   63   41 1    
    72   44   43 1    
    73   64   43 1    
    74   65   43 1    
    75   45   44 1    
    76   66   45 1    
    77   67   45 1    
@<TRIPOS>SUBSTRUCTURE
     1 9NH601      1 GROUP   
@<TRIPOS>SET

