#    Name: 2f3e_AXQ_3_INTS_M
#    Modification time : Tue Mar 25 12:15:56 2014

@<TRIPOS>MOLECULE
2f3e_AXQ_3_INTS_M
  108     0     9     0     0
SMALL
NO_CHARGES


@<TRIPOS>ATOM
      1 CA          8.8250  -44.2845   51.4755 C.3       3 GLC5        0.0000 
      2 CA          7.4000  -43.0480   50.4500 C.3       9 GLL5        0.0000 
      3 CA         10.2500  -45.5210   52.5010 C.3       6 GLP5        0.0000 
      4 CA          7.9745  -45.2540   48.5790 C.3       3 GLC5        0.0000 
      5 CA          8.5890  -43.1960   49.0680 C.3       9 GLL5        0.0000 
      6 CA          7.3600  -47.3120   48.0900 C.3       6 GLP5        0.0000 
      7 O           8.9165  -40.6875   48.1625 O.2       1 ALC1        0.0000 
      8 O           9.6240  -41.0160   49.4840 O.2       7 ALL1        0.0000 
      9 O           8.2090  -40.3590   46.8410 O.2       4 ALP1        0.0000 
     10 CA          9.7490  -38.4605   48.2245 C.3       3 GLC5        0.0000 
     11 CA          9.6870  -38.7150   50.3080 C.3       9 GLL5        0.0000 
     12 CA          9.8110  -38.2060   46.1410 C.3       6 GLP5        0.0000 
     13 CA          6.4855  -35.9085   47.9580 C.3       3 GLC5        0.0000 
     14 CA          6.2220  -37.3970   49.5890 C.3       9 GLL5        0.0000 
     15 CA          6.7490  -34.4200   46.3270 C.3       6 GLP5        0.0000 
     16 CA          3.3925  -40.1430   46.0160 C.3       3 GLC5        0.0000 
     17 CA          4.0670  -40.2510   47.7300 C.3       9 GLL5        0.0000 
     18 CA          2.7180  -40.0350   44.3020 C.3       6 GLP5        0.0000 
     19 CA          3.7405  -41.8360   46.3670 C.3       3 GLC5        0.0000 
     20 CA          3.4140  -43.4210   45.0040 C.3       6 GLP5        0.0000 
     21 CA          2.8740  -40.6350   49.6540 C.3       3 GLC5        0.0000 
     22 CA          4.3880  -41.3860   48.6770 C.3       9 GLL5        0.0000 
     23 CA          1.3600  -39.8840   50.6310 C.3       6 GLP5        0.0000 
     24 CA          3.9070  -44.0090   49.7470 C.3       3 GLC5        0.0000 
     25 CA          5.7990  -43.1870   49.6040 C.3       9 GLL5        0.0000 
     26 CA          2.0150  -44.8310   49.8900 C.3       6 GLP5        0.0000 
     27 O           5.7350  -35.7040   47.9550 O.2       1 ALC1        0.0000 
     28 O           5.7560  -36.0360   49.3210 O.2       7 ALL1        0.0000 
     29 O           5.7140  -35.3720   46.5890 O.2       4 ALP1        0.0000 
     30 N           8.4145  -36.3680   47.5740 N.am      2 SEC2        0.0000 
     31 N           8.3660  -36.5490   49.1010 N.am      8 SEL2        0.0000 
     32 N           8.4630  -36.1870   46.0470 N.am      5 SEP2        0.0000 
     33 CA          9.9480  -37.7130   53.2415 C.3       3 GLC5        0.0000 
     34 CA         10.3230  -37.7870   51.3850 C.3       9 GLL5        0.0000 
     35 CA          9.5730  -37.6390   55.0980 C.3       6 GLP5        0.0000 
     36 N          10.5715  -40.5725   53.0610 N.am      2 SEC2        0.0000 
     37 N          10.4570  -40.6010   51.5720 N.am      8 SEL2        0.0000 
     38 N          10.6860  -40.5440   54.5500 N.am      5 SEP2        0.0000 
     39 CA         10.9575  -44.4240   50.0245 C.3       3 GLC5        0.0000 
     40 CA         11.1570  -42.9040   48.7730 C.3       9 GLL5        0.0000 
     41 CA         10.7580  -45.9440   51.2760 C.3       6 GLP5        0.0000 
     42 N          10.6820  -43.3775   46.3200 N.am      2 SEC2        0.0000 
     43 N          11.0160  -42.6580   47.3610 N.am      8 SEL2        0.0000 
     44 N          10.3480  -44.0970   45.2790 N.am      5 SEP2        0.0000 
     45 O          11.9155  -41.8605   46.7820 O.2       1 ALC1        0.0000 
     46 O          11.0160  -42.6580   47.3610 O.2       7 ALL1        0.0000 
     47 O          12.8150  -41.0630   46.2030 O.2       4 ALP1        0.0000 
     48 CA         12.7830  -40.9100   50.9760 C.3       3 GLC5        0.0000 
     49 CA         12.4270  -42.1300   49.1870 C.3       9 GLL5        0.0000 
     50 CA         13.1390  -39.6900   52.7650 C.3       6 GLP5        0.0000 
     51 CA         16.5520  -43.6005   48.2310 C.3       3 GLC5        0.0000 
     52 CA         14.9160  -42.2860   48.6360 C.3       9 GLL5        0.0000 
     53 CA         18.1880  -44.9150   47.8260 C.3       6 GLP5        0.0000 
     54 CA         16.2525  -41.7715   47.1645 C.3       3 GLC5        0.0000 
     55 CA         17.5890  -41.2570   45.6930 C.3       6 GLP5        0.0000 
     56 N          13.1835  -42.7470   52.3790 N.am      2 SEC2        0.0000 
     57 N          13.6440  -43.4920   51.2140 N.am      8 SEL2        0.0000 
     58 N          12.7230  -42.0020   53.5440 N.am      5 SEP2        0.0000 
     59 O          14.5155  -45.4265   48.4590 O.2       1 ALC1        0.0000 
     60 O          14.3320  -45.1580   49.8340 O.2       7 ALL1        0.0000 
     61 O          14.6990  -45.6950   47.0840 O.2       4 ALP1        0.0000 
     62 CA         13.6230  -47.7900   49.0870 C.3       3 GLC5        0.0000 
     63 CA         14.8560  -47.4890   50.5390 C.3       9 GLL5        0.0000 
     64 CA         12.3900  -48.0910   47.6350 C.3       6 GLP5        0.0000 
     65 CA         14.8430  -47.8525   48.1615 C.3       3 GLC5        0.0000 
     66 CA         16.1550  -47.5760   49.7190 C.3       9 GLL5        0.0000 
     67 CA         13.5310  -48.1290   46.6040 C.3       6 GLP5        0.0000 
     68 CA         17.0065  -48.0385   48.0635 C.3       3 GLC5        0.0000 
     69 CA         17.8580  -48.5010   46.4080 C.3       6 GLP5        0.0000 
     70 CA         17.1715  -46.2455   48.7725 C.3       3 GLC5        0.0000 
     71 CA         13.3685  -49.2700   52.4180 C.3       3 GLC5        0.0000 
     72 CA         15.0190  -48.4080   51.7710 C.3       9 GLL5        0.0000 
     73 CA         11.7180  -50.1320   53.0650 C.3       6 GLP5        0.0000 
     74 N          17.8600  -45.0290   50.5625 N.am      2 SEC2        0.0000 
     75 N          16.6990  -44.8660   51.0830 N.am      8 SEL2        0.0000 
     76 N          19.0210  -45.1920   50.0420 N.am      5 SEP2        0.0000 
     77 O          14.6645  -46.1845   53.6440 O.2       1 ALC1        0.0000 
     78 O          15.8810  -45.6610   53.0550 O.2       7 ALL1        0.0000 
     79 O          13.4480  -46.7080   54.2330 O.2       4 ALP1        0.0000 
     80 CA         15.6745  -46.3195   55.9805 C.3       3 GLC5        0.0000 
     81 CA         16.6430  -44.8080   55.2320 C.3       9 GLL5        0.0000 
     82 CA         14.7060  -47.8310   56.7290 C.3       6 GLP5        0.0000 
     83 CA         13.9875  -43.8775   54.5820 C.3       3 GLC5        0.0000 
     84 CA         15.9480  -43.4480   55.2960 C.3       9 GLL5        0.0000 
     85 CA         12.0270  -44.3070   53.8680 C.3       6 GLP5        0.0000 
     86 CA         14.4910  -42.0475   54.6355 C.3       3 GLC5        0.0000 
     87 CA         13.0340  -40.6470   53.9750 C.3       6 GLP5        0.0000 
     88 CA         14.6110  -45.0685   57.0630 C.3       3 GLC5        0.0000 
     89 CA         15.5860  -43.1490   56.7620 C.3       9 GLL5        0.0000 
     90 CA         13.6360  -46.9880   57.3640 C.3       6 GLP5        0.0000 
     91 CA          6.1022  -44.9363   51.0285 C.3       3 GLC5        0.0000 
     92 CA          5.6050  -46.7550   52.0300 C.3       6 GLP5        0.0000 
     93 CA          9.9950  -44.3847   50.2952 C.3       3 GLC5        0.0000 
     94 CA         11.5720  -38.9705   51.8058 C.3       3 GLC5        0.0000 
     95 CA          2.4272  -38.7010   47.4975 C.3       3 GLC5        0.0000 
     96 CA          4.0660  -38.6550   48.6160 C.3       9 GLL5        0.0000 
     97 CA          0.7880  -37.9490   46.8220 C.3       6 GLP5        0.0000 
     98 CA          2.7133  -39.6685   49.4020 C.3       3 GLC5        0.0000 
     99 CA          3.2791  -42.5826   48.7836 C.3       3 GLC5        0.0000 
    100 CA          5.5690  -42.0220   48.6770 C.3       9 GLL5        0.0000 
    101 CA          1.6600  -43.7450   49.1270 C.3       6 GLP5        0.0000 
    102 CA          5.1654  -43.4822   47.8867 C.3       3 GLC5        0.0000 
    103 CA          4.9420  -44.5190   46.6330 C.3       6 GLP5        0.0000 
    104 CA         14.1415  -43.6853   46.8685 C.3       3 GLC5        0.0000 
    105 CA         13.6080  -43.0610   48.8660 C.3       9 GLL5        0.0000 
    106 CA         14.0210  -44.6970   44.9860 C.3       6 GLP5        0.0000 
    107 CA         12.7495  -46.3525   51.0165 C.3       3 GLC5        0.0000 
    108 CA         14.6260  -46.0330   50.9750 C.3       9 GLL5        0.0000 
@<TRIPOS>BOND
@<TRIPOS>SUBSTRUCTURE
     1 ALC1        7 GROUP        1 X    ALC  0     ROOT ALC X 1
     2 SEC2       30 GROUP        1 X    SEC  0     **** SEC X 2
     3 GLC5        1 GROUP        1 X    GLC  0     **** GLC X 6
     4 ALP1        9 GROUP        1 Y    ALP  0     ROOT ALP Y 8
     5 SEP2       32 GROUP        1 Y    SEP  0     **** SEP Y 9
     6 GLP5        3 GROUP        1 Y    GLP  0     **** GLP Y 13
     7 ALL1        8 GROUP        1 Z    ALL  0     ROOT ALL Z 15
     8 SEL2       31 GROUP        1 Z    SEL  0     **** SEL Z 16
     9 GLL5        2 GROUP        1 Z    GLL  0     **** GLL Z 20
@<TRIPOS>SET

