#    Name: 2f3e_AXQ_3_ligand
#    Modification time : Tue Mar 25 12:15:56 2014

@<TRIPOS>MOLECULE
2f3e_AXQ_3_ligand
  100   100     1     0     0
SMALL
NO_CHARGES


@<TRIPOS>ATOM
      1 S1          7.4000  -43.0480   50.4500 S.3       1 AXQ603      0.0000 
      2 C2          8.5890  -43.1960   49.0680 C.3       1 AXQ603      0.0000 
      3 C5          9.8750  -42.4550   49.5610 C.3       1 AXQ603      0.0000 
      4 N7          9.6240  -41.0160   49.4840 N.am      1 AXQ603      0.0000 
      5 C9          9.9610  -40.2010   50.5260 C.2       1 AXQ603      0.0000 
      6 C10         9.6870  -38.7150   50.3080 C.3       1 AXQ603      0.0000 
      7 N12         8.2370  -38.5320   50.2380 N.am      1 AXQ603      0.0000 
      8 C14         7.7180  -37.4480   49.6190 C.2       1 AXQ603      0.0000 
      9 C15         6.2220  -37.3970   49.5890 C.3       1 AXQ603      0.0000 
     10 C17         5.8180  -38.3980   48.5090 C.3       1 AXQ603      0.0000 
     11 S20         4.0660  -38.6550   48.6160 S.3       1 AXQ603      0.0000 
     12 C21         4.0670  -40.2510   47.7300 C.3       1 AXQ603      0.0000 
     13 C24         4.3880  -41.3860   48.6770 C.2       1 AXQ603      0.0000 
     14 C26         5.5690  -42.0220   48.6770 C.2       1 AXQ603      0.0000 
     15 C28         5.7990  -43.1870   49.6040 C.3       1 AXQ603      0.0000 
     16 N31         5.7560  -36.0360   49.3210 N.am      1 AXQ603      0.0000 
     17 C33         5.9740  -35.0910   50.2720 C.2       1 AXQ603      0.0000 
     18 O34         6.5030  -35.3300   51.3530 O.2       1 AXQ603      0.0000 
     19 O35         5.5460  -33.8440   49.8900 O.3       1 AXQ603      0.0000 
     20 C36         5.8130  -32.7760   50.8790 C.3       1 AXQ603      0.0000 
     21 C37         5.3070  -31.4310   50.3060 C.3       1 AXQ603      0.0000 
     22 C41         5.0680  -33.0330   52.2200 C.3       1 AXQ603      0.0000 
     23 C45         7.3390  -32.6300   51.1350 C.3       1 AXQ603      0.0000 
     24 O49         8.3660  -36.5490   49.1010 O.2       1 AXQ603      0.0000 
     25 C50        10.3230  -37.7870   51.3850 C.3       1 AXQ603      0.0000 
     26 O54        10.4570  -40.6010   51.5720 O.2       1 AXQ603      0.0000 
     27 C55        11.1570  -42.9040   48.7730 C.3       1 AXQ603      0.0000 
     28 O57        11.0160  -42.6580   47.3610 O.3       1 AXQ603      0.0000 
     29 C59        12.4270  -42.1300   49.1870 C.3       1 AXQ603      0.0000 
     30 C62        13.6080  -43.0610   48.8660 C.3       1 AXQ603      0.0000 
     31 C64        14.9160  -42.2860   48.6360 C.3       1 AXQ603      0.0000 
     32 C68        13.8670  -43.9290   50.0840 C.2       1 AXQ603      0.0000 
     33 O69        13.6440  -43.4920   51.2140 O.2       1 AXQ603      0.0000 
     34 N70        14.3320  -45.1580   49.8340 N.am      1 AXQ603      0.0000 
     35 C72        14.6260  -46.0330   50.9750 C.3       1 AXQ603      0.0000 
     36 C74        14.8560  -47.4890   50.5390 C.3       1 AXQ603      0.0000 
     37 C76        16.1550  -47.5760   49.7190 C.3       1 AXQ603      0.0000 
     38 C80        15.0190  -48.4080   51.7710 C.3       1 AXQ603      0.0000 
     39 C84        15.8360  -45.4710   51.7180 C.2       1 AXQ603      0.0000 
     40 O85        16.6990  -44.8660   51.0830 O.2       1 AXQ603      0.0000 
     41 N86        15.8810  -45.6610   53.0550 N.am      1 AXQ603      0.0000 
     42 C88        17.0290  -45.1290   53.7790 C.3       1 AXQ603      0.0000 
     43 C91        16.6430  -44.8080   55.2320 C.3       1 AXQ603      0.0000 
     44 C94        15.9480  -43.4480   55.2960 C.3       1 AXQ603      0.0000 
     45 C97        15.5860  -43.1490   56.7620 C.3       1 AXQ603      0.0000 
     46 H           8.1043  -42.7040   48.2981 H         1 AXQ603      0.0000 
     47 H           8.7141  -44.2193   48.9850 H         1 AXQ603      0.0000 
     48 H          10.0144  -42.7473   50.6090 H         1 AXQ603      0.0000 
     49 H           9.1920  -40.6604   48.6268 H         1 AXQ603      0.0000 
     50 H          10.1220  -38.4389   49.3374 H         1 AXQ603      0.0000 
     51 H           7.6555  -39.2547   50.6742 H         1 AXQ603      0.0000 
     52 H           5.8556  -37.7633   50.5330 H         1 AXQ603      0.0000 
     53 H           6.2178  -39.3635   48.6644 H         1 AXQ603      0.0000 
     54 H           5.9527  -38.0302   47.5278 H         1 AXQ603      0.0000 
     55 H           4.8056  -40.0856   46.9802 H         1 AXQ603      0.0000 
     56 H           3.0797  -40.2812   47.3307 H         1 AXQ603      0.0000 
     57 H           3.6149  -41.6305   49.3275 H         1 AXQ603      0.0000 
     58 H           6.3565  -41.7731   48.0778 H         1 AXQ603      0.0000 
     59 H           5.1164  -43.2339   50.4260 H         1 AXQ603      0.0000 
     60 H           5.8908  -44.1299   49.1078 H         1 AXQ603      0.0000 
     61 H           5.2934  -35.8552   48.4442 H         1 AXQ603      0.0000 
     62 H          11.3303  -43.9474   48.9599 H         1 AXQ603      0.0000 
     63 H          12.3979  -41.9351   50.2338 H         1 AXQ603      0.0000 
     64 H          12.5042  -41.2396   48.6075 H         1 AXQ603      0.0000 
     65 H          13.3958  -43.6675   48.0396 H         1 AXQ603      0.0000 
     66 H          14.4969  -45.5306   48.9064 H         1 AXQ603      0.0000 
     67 H          13.7817  -46.0179   51.6682 H         1 AXQ603      0.0000 
     68 H          14.0470  -47.8277   49.9505 H         1 AXQ603      0.0000 
     69 H          15.1697  -46.1476   53.5804 H         1 AXQ603      0.0000 
     70 H          17.3952  -44.2079   53.3161 H         1 AXQ603      0.0000 
     71 H          17.8511  -45.8504   53.8001 H         1 AXQ603      0.0000 
     72 H          17.5389  -44.7851   55.8408 H         1 AXQ603      0.0000 
     73 H          15.9712  -45.5748   55.5989 H         1 AXQ603      0.0000 
     74 H          15.0457  -43.4742   54.7063 H         1 AXQ603      0.0000 
     75 H          16.6150  -42.6829   54.9324 H         1 AXQ603      0.0000 
     76 H           5.4615  -30.6748   50.9418 H         1 AXQ603      0.0000 
     77 H           5.7688  -31.1942   49.4512 H         1 AXQ603      0.0000 
     78 H           4.3262  -31.4553   50.1123 H         1 AXQ603      0.0000 
     79 H           5.3436  -33.8987   52.6380 H         1 AXQ603      0.0000 
     80 H           5.2499  -32.3131   52.8898 H         1 AXQ603      0.0000 
     81 H           4.0769  -33.0713   52.0928 H         1 AXQ603      0.0000 
     82 H           7.7386  -33.4753   51.4897 H         1 AXQ603      0.0000 
     83 H           7.8356  -32.3996   50.2982 H         1 AXQ603      0.0000 
     84 H           7.5367  -31.9105   51.8007 H         1 AXQ603      0.0000 
     85 H          11.3187  -37.8760   51.4107 H         1 AXQ603      0.0000 
     86 H          10.1192  -36.8234   51.2121 H         1 AXQ603      0.0000 
     87 H           9.9861  -37.9978   52.3026 H         1 AXQ603      0.0000 
     88 H          15.6778  -42.8979   48.4234 H         1 AXQ603      0.0000 
     89 H          14.8369  -41.6413   47.8757 H         1 AXQ603      0.0000 
     90 H          15.1811  -41.7572   49.4423 H         1 AXQ603      0.0000 
     91 H          16.9493  -47.2790   50.2490 H         1 AXQ603      0.0000 
     92 H          16.3393  -48.5101   49.4132 H         1 AXQ603      0.0000 
     93 H          16.1170  -47.0019   48.9011 H         1 AXQ603      0.0000 
     94 H          15.1687  -49.3607   51.5065 H         1 AXQ603      0.0000 
     95 H          15.7968  -48.1354   52.3374 H         1 AXQ603      0.0000 
     96 H          14.2091  -48.3904   52.3572 H         1 AXQ603      0.0000 
     97 H          16.3965  -43.1250   57.3472 H         1 AXQ603      0.0000 
     98 H          15.1284  -42.2651   56.8587 H         1 AXQ603      0.0000 
     99 H          14.9711  -43.8405   57.1412 H         1 AXQ603      0.0000 
    100 H          11.7996  -42.0860   47.1186 H         1 AXQ603      0.0000 
@<TRIPOS>BOND
     1    2    1 1    
     2   15    1 1    
     3    3    2 1    
     4   46    2 1    
     5   47    2 1    
     6    4    3 1    
     7   27    3 1    
     8   48    3 1    
     9    5    4 am   
    10   49    4 1    
    11    6    5 1    
    12   26    5 2    
    13    7    6 1    
    14   25    6 1    
    15   50    6 1    
    16    8    7 am   
    17   51    7 1    
    18    9    8 1    
    19   24    8 2    
    20   10    9 1    
    21   16    9 1    
    22   52    9 1    
    23   11   10 1    
    24   53   10 1    
    25   54   10 1    
    26   12   11 1    
    27   13   12 1    
    28   55   12 1    
    29   56   12 1    
    30   14   13 2    
    31   57   13 1    
    32   15   14 1    
    33   58   14 1    
    34   59   15 1    
    35   60   15 1    
    36   17   16 am   
    37   61   16 1    
    38   18   17 2    
    39   19   17 1    
    40   20   19 1    
    41   21   20 1    
    42   22   20 1    
    43   23   20 1    
    44   76   21 1    
    45   77   21 1    
    46   78   21 1    
    47   79   22 1    
    48   80   22 1    
    49   81   22 1    
    50   82   23 1    
    51   83   23 1    
    52   84   23 1    
    53   85   25 1    
    54   86   25 1    
    55   87   25 1    
    56   28   27 1    
    57   29   27 1    
    58   62   27 1    
    59  100   28 1    
    60   30   29 1    
    61   63   29 1    
    62   64   29 1    
    63   31   30 1    
    64   32   30 1    
    65   65   30 1    
    66   88   31 1    
    67   89   31 1    
    68   90   31 1    
    69   33   32 2    
    70   34   32 am   
    71   35   34 1    
    72   66   34 1    
    73   36   35 1    
    74   39   35 1    
    75   67   35 1    
    76   37   36 1    
    77   38   36 1    
    78   68   36 1    
    79   91   37 1    
    80   92   37 1    
    81   93   37 1    
    82   94   38 1    
    83   95   38 1    
    84   96   38 1    
    85   40   39 2    
    86   41   39 am   
    87   42   41 1    
    88   69   41 1    
    89   43   42 1    
    90   70   42 1    
    91   71   42 1    
    92   44   43 1    
    93   72   43 1    
    94   73   43 1    
    95   45   44 1    
    96   74   44 1    
    97   75   44 1    
    98   97   45 1    
    99   98   45 1    
   100   99   45 1    
@<TRIPOS>SUBSTRUCTURE
     1 AXQ603      1 GROUP   
@<TRIPOS>SET

