#    Name: 2x3k_AMP_1_INTS_M
#    Modification time : Tue Mar 25 05:03:54 2014

@<TRIPOS>MOLECULE
2x3k_AMP_1_INTS_M
   27     0     6     0     0
SMALL
NO_CHARGES


@<TRIPOS>ATOM
      1 CA          0.9080   32.9300   53.7815 C.3       2 GLC5        0.0000 
      2 CA          2.6700   33.5920   52.6600 C.3       6 GLL5        0.0000 
      3 CA         -0.8540   32.2680   54.9030 C.3       4 GLP5        0.0000 
      4 N           4.6755   29.6980   51.1480 N.am      1 SEC2        0.0000 
      5 N           4.0660   30.9450   50.5620 N.am      5 SEL2        0.0000 
      6 N           5.2850   28.4510   51.7340 N.am      3 SEP2        0.0000 
      7 CA          4.6545   33.4975   46.5875 C.3       2 GLC5        0.0000 
      8 CA          3.3230   34.5670   47.3360 C.3       6 GLL5        0.0000 
      9 CA          5.9860   32.4280   45.8390 C.3       4 GLP5        0.0000 
     10 CA          5.4185   34.3715   46.6950 C.3       2 GLC5        0.0000 
     11 CA          4.0990   35.6090   46.6740 C.3       6 GLL5        0.0000 
     12 CA          6.7380   33.1340   46.7160 C.3       4 GLP5        0.0000 
     13 CA          2.8390   37.1380   45.9465 C.3       2 GLC5        0.0000 
     14 CA          1.5790   38.6670   45.2190 C.3       4 GLP5        0.0000 
     15 N           6.0250   36.8920   46.4550 N.am      1 SEC2        0.0000 
     16 N           4.9890   36.2990   47.4280 N.am      5 SEL2        0.0000 
     17 N           7.0610   37.4850   45.4820 N.am      3 SEP2        0.0000 
     18 CA          5.9545   34.6055   47.7250 C.3       2 GLC5        0.0000 
     19 CA          5.1710   36.0770   48.7340 C.3       6 GLL5        0.0000 
     20 CA          5.1995   37.7155   49.1095 C.3       2 GLC5        0.0000 
     21 CA          5.2280   39.3540   49.4850 C.3       4 GLP5        0.0000 
     22 CA          5.1345   33.7515   47.7415 C.3       2 GLC5        0.0000 
     23 CA          3.5310   34.3690   48.7670 C.3       6 GLL5        0.0000 
     24 CA          2.0720   35.6400   49.4475 C.3       2 GLC5        0.0000 
     25 CA          0.6130   36.9110   50.1280 C.3       4 GLP5        0.0000 
     26 CA          1.3745   35.2875   52.1187 C.3       2 GLC5        0.0000 
     27 CA         -0.2400   36.3540   51.2930 C.3       4 GLP5        0.0000 
@<TRIPOS>BOND
@<TRIPOS>SUBSTRUCTURE
     1 SEC2        4 GROUP        1 X    SEC  0     ROOT SEC X 2
     2 GLC5        1 GROUP        1 X    GLC  0     **** GLC X 6
     3 SEP2        6 GROUP        1 Y    SEP  0     ROOT SEP Y 9
     4 GLP5        3 GROUP        1 Y    GLP  0     **** GLP Y 13
     5 SEL2        5 GROUP        1 Z    SEL  0     ROOT SEL Z 16
     6 GLL5        2 GROUP        1 Z    GLL  0     **** GLL Z 20
@<TRIPOS>SET

