#    Name: 2x3k_AMP_1_ligand
#    Modification time : Tue Mar 25 05:03:54 2014

@<TRIPOS>MOLECULE
2x3k_AMP_1_ligand
   35    37     1     0     0
SMALL
NO_CHARGES


@<TRIPOS>ATOM
      1 P           5.2560   35.7770   54.8150 P.3       1 AMP1588     0.0000 
      2 O1P         4.1230   36.7860   54.9270 O.co2     1 AMP1588     0.0000 
      3 O2P         6.3980   36.2150   53.9040 O.co2     1 AMP1588     0.0000 
      4 O3P         5.6990   35.1710   56.1280 O.co2     1 AMP1588     0.0000 
      5 O5'         4.4790   34.5970   54.0210 O.3       1 AMP1588     0.0000 
      6 C5'         3.3080   34.8500   53.2290 C.3       1 AMP1588     0.0000 
      7 C4'         2.6700   33.5920   52.6600 C.3       1 AMP1588     0.0000 
      8 O4'         2.1060   33.8560   51.3590 O.3       1 AMP1588     0.0000 
      9 C3'         3.6860   32.4710   52.4660 C.3       1 AMP1588     0.0000 
     10 O3'         3.1180   31.3220   53.0500 O.3       1 AMP1588     0.0000 
     11 C2'         3.8330   32.2930   50.9730 C.3       1 AMP1588     0.0000 
     12 O2'         4.0660   30.9450   50.5620 O.3       1 AMP1588     0.0000 
     13 C1'         2.5070   32.8030   50.4530 C.3       1 AMP1588     0.0000 
     14 N9          2.6930   33.3800   49.1130 N.pl3     1 AMP1588     0.0000 
     15 C8          1.9920   32.9980   48.0430 C.2       1 AMP1588     0.0000 
     16 N7          2.3690   33.7150   46.9660 N.2       1 AMP1588     0.0000 
     17 C5          3.3230   34.5670   47.3360 C.ar      1 AMP1588     0.0000 
     18 C6          4.0990   35.6090   46.6740 C.ar      1 AMP1588     0.0000 
     19 N6          3.9210   35.8340   45.3430 N.pl3     1 AMP1588     0.0000 
     20 N1          4.9890   36.2990   47.4280 N.ar      1 AMP1588     0.0000 
     21 C2          5.1710   36.0770   48.7340 C.ar      1 AMP1588     0.0000 
     22 N3          4.4520   35.1580   49.4000 N.ar      1 AMP1588     0.0000 
     23 C4          3.5310   34.3690   48.7670 C.ar      1 AMP1588     0.0000 
     24 H           3.5427   35.5240   52.3753 H         1 AMP1588     0.0000 
     25 H           2.5321   35.3813   53.8239 H         1 AMP1588     0.0000 
     26 H           1.9083   33.2411   53.3335 H         1 AMP1588     0.0000 
     27 H           4.5954   32.7630   52.8912 H         1 AMP1588     0.0000 
     28 H           4.5901   32.9773   50.6317 H         1 AMP1588     0.0000 
     29 H           1.8084   32.0163   50.4438 H         1 AMP1588     0.0000 
     30 H           1.3047   32.3013   48.0345 H         1 AMP1588     0.0000 
     31 H           4.4703   36.5679   44.9435 H         1 AMP1588     0.0000 
     32 H           3.2566   35.2455   44.8822 H         1 AMP1588     0.0000 
     33 H           5.8977   36.6368   49.2577 H         1 AMP1588     0.0000 
     34 H           3.2549   30.5951   52.3770 H         1 AMP1588     0.0000 
     35 H           3.4358   30.7942   49.8004 H         1 AMP1588     0.0000 
@<TRIPOS>BOND
     1    2    1 ar   
     2    3    1 ar   
     3    4    1 ar   
     4    5    1 1    
     5    6    5 1    
     6    7    6 1    
     7   24    6 1    
     8   25    6 1    
     9    8    7 1    
    10    9    7 1    
    11   26    7 1    
    12   13    8 1    
    13   10    9 1    
    14   11    9 1    
    15   27    9 1    
    16   34   10 1    
    17   12   11 1    
    18   13   11 1    
    19   28   11 1    
    20   35   12 1    
    21   14   13 1    
    22   29   13 1    
    23   15   14 1    
    24   23   14 1    
    25   16   15 2    
    26   30   15 1    
    27   17   16 1    
    28   18   17 ar   
    29   23   17 ar   
    30   19   18 1    
    31   20   18 ar   
    32   31   19 1    
    33   32   19 1    
    34   21   20 ar   
    35   22   21 ar   
    36   33   21 1    
    37   23   22 ar   
@<TRIPOS>SUBSTRUCTURE
     1 AMP1588     1 GROUP   
@<TRIPOS>SET

