#    Name: 3ggp_NAD_3_INTS_M
#    Modification time : Tue Mar 25 12:30:04 2014

@<TRIPOS>MOLECULE
3ggp_NAD_3_INTS_M
   97     0     9     0     0
SMALL
NO_CHARGES


@<TRIPOS>ATOM
      1 N          26.5815  -77.7410   45.0910 N.am      2 SEC2        0.0000 
      2 N          27.8100  -77.1800   44.7280 N.am      8 SEL2        0.0000 
      3 N          25.3530  -78.3020   45.4540 N.am      5 SEP2        0.0000 
      4 N          27.4940  -76.1335   45.5590 N.am      2 SEC2        0.0000 
      5 N          27.1780  -75.0870   46.3900 N.am      5 SEP2        0.0000 
      6 CA         29.9085  -82.7780   44.9915 C.3       3 GLC5        0.0000 
      7 CA         30.3310  -80.6720   44.9480 C.3       9 GLL5        0.0000 
      8 CA         29.4860  -84.8840   45.0350 C.3       6 GLP5        0.0000 
      9 N          30.7075  -80.4845   48.7785 N.am      2 SEC2        0.0000 
     10 N          30.3790  -80.6180   47.3760 N.am      8 SEL2        0.0000 
     11 N          31.0360  -80.3510   50.1810 N.am      5 SEP2        0.0000 
     12 O          30.5175  -81.9690   47.6820 O.2       1 ALC1        0.0000 
     13 O          30.3790  -80.6180   47.3760 O.2       7 ALL1        0.0000 
     14 O          30.6560  -83.3200   47.9880 O.2       4 ALP1        0.0000 
     15 N          31.9575  -80.5625   48.8295 N.am      2 SEC2        0.0000 
     16 N          32.8790  -80.7740   47.4780 N.am      8 SEL2        0.0000 
     17 O          32.7815  -81.8595   48.0955 O.2       1 ALC1        0.0000 
     18 O          32.8790  -80.7740   47.4780 O.2       7 ALL1        0.0000 
     19 O          32.6840  -82.9450   48.7130 O.2       4 ALP1        0.0000 
     20 O          31.7675  -82.0470   47.7330 O.2       1 ALC1        0.0000 
     21 CA         30.8610  -83.4100   45.2645 C.3       3 GLC5        0.0000 
     22 CA         32.2360  -81.9360   45.4940 C.3       9 GLL5        0.0000 
     23 CA         32.0820  -83.1475   43.6775 C.3       3 GLC5        0.0000 
     24 CA         31.9280  -84.3590   41.8610 C.3       6 GLP5        0.0000 
     25 CA         34.9895  -86.7185   43.0515 C.3       3 GLC5        0.0000 
     26 CA         35.7990  -84.9530   44.1340 C.3       9 GLL5        0.0000 
     27 CA         34.1800  -88.4840   41.9690 C.3       6 GLP5        0.0000 
     28 CA         33.2600  -86.0990   46.9860 C.3       3 GLC5        0.0000 
     29 CA         34.0780  -86.0730   45.3050 C.3       9 GLL5        0.0000 
     30 CA         32.4420  -86.1250   48.6670 C.3       6 GLP5        0.0000 
     31 CA         35.2735  -84.7885   46.2685 C.3       3 GLC5        0.0000 
     32 CA         36.4690  -83.5040   47.2320 C.3       6 GLP5        0.0000 
     33 CA         33.0030  -85.2160   43.5830 C.3       3 GLC5        0.0000 
     34 CA         34.1290  -87.2785   43.6370 C.3       3 GLC5        0.0000 
     35 N          34.1055  -85.0815   46.9560 N.am      2 SEC2        0.0000 
     36 N          33.4090  -84.8620   45.4130 N.am      8 SEL2        0.0000 
     37 N          34.8020  -85.3010   48.4990 N.am      5 SEP2        0.0000 
     38 N          25.1525  -79.0220   42.6650 N.am      2 SEC2        0.0000 
     39 N          26.4250  -78.8280   42.3550 N.am      8 SEL2        0.0000 
     40 N          23.8800  -79.2160   42.9750 N.am      5 SEP2        0.0000 
     41 CA         25.9605  -80.2775   40.4270 C.3       3 GLC5        0.0000 
     42 CA         28.0790  -80.2920   40.1230 C.3       9 GLL5        0.0000 
     43 CA         23.8420  -80.2630   40.7310 C.3       6 GLP5        0.0000 
     44 CA         29.4435  -81.8705   40.7160 C.3       3 GLC5        0.0000 
     45 CA         30.8080  -83.4490   41.3090 C.3       6 GLP5        0.0000 
     46 CA         25.9120  -79.9005   39.3140 C.3       3 GLC5        0.0000 
     47 CA         27.8570  -80.8300   38.7000 C.3       9 GLL5        0.0000 
     48 CA         23.9670  -78.9710   39.9280 C.3       6 GLP5        0.0000 
     49 CA         30.7730  -80.8740   38.1310 C.3       3 GLC5        0.0000 
     50 CA         28.8890  -80.4000   37.6480 C.3       9 GLL5        0.0000 
     51 CA         32.6570  -81.3480   38.6140 C.3       6 GLP5        0.0000 
     52 O          29.8650  -82.2995   37.9030 O.2       1 ALC1        0.0000 
     53 O          29.2880  -81.5300   36.8730 O.2       7 ALL1        0.0000 
     54 O          30.4420  -83.0690   38.9330 O.2       4 ALP1        0.0000 
     55 CA         28.4465  -77.4800   36.9925 C.3       3 GLC5        0.0000 
     56 CA         28.1300  -79.4580   36.7480 C.3       9 GLL5        0.0000 
     57 CA         28.7630  -75.5020   37.2370 C.3       6 GLP5        0.0000 
     58 N          28.0560  -80.3320   34.1565 N.am      2 SEC2        0.0000 
     59 N          28.6090  -79.4660   35.4130 N.am      8 SEL2        0.0000 
     60 N          27.5030  -81.1980   32.9000 N.am      5 SEP2        0.0000 
     61 O          27.8575  -78.9155   34.3960 O.2       1 ALC1        0.0000 
     62 O          28.6090  -79.4660   35.4130 O.2       7 ALL1        0.0000 
     63 O          27.1060  -78.3650   33.3790 O.2       4 ALP1        0.0000 
     64 CA         25.3395  -79.4770   38.4090 C.3       3 GLC5        0.0000 
     65 CA         26.7120  -79.9830   36.8900 C.3       9 GLL5        0.0000 
     66 CA         27.0955  -81.6065   35.5460 C.3       3 GLC5        0.0000 
     67 CA         27.4790  -83.2300   34.2020 C.3       6 GLP5        0.0000 
     68 CA         24.7605  -78.3705   38.5980 C.3       3 GLC5        0.0000 
     69 CA         25.5540  -77.7700   37.2680 C.3       9 GLL5        0.0000 
     70 CA         23.4325  -77.5530   38.2175 C.3       3 GLC5        0.0000 
     71 CA         24.5280  -76.8360   36.8770 C.3       9 GLL5        0.0000 
     72 CA         22.3370  -78.2700   39.5580 C.3       6 GLP5        0.0000 
     73 CA         22.0550  -75.7390   36.4095 C.3       3 GLC5        0.0000 
     74 CA         23.6390  -77.1410   35.8150 C.3       9 GLL5        0.0000 
     75 CA         20.4710  -74.3370   37.0040 C.3       6 GLP5        0.0000 
     76 CA         26.3140  -79.0625   33.8900 C.3       3 GLC5        0.0000 
     77 CA         24.8120  -79.2520   35.5040 C.3       9 GLL5        0.0000 
     78 CA         27.8160  -78.8730   32.2760 C.3       6 GLP5        0.0000 
     79 CA         28.7265  -80.0635   46.1205 C.3       3 GLC5        0.0000 
     80 CA         26.8040  -79.7720   46.6570 C.3       6 GLP5        0.0000 
     81 CA         33.2313  -84.0475   43.2230 C.3       3 GLC5        0.0000 
     82 CA         35.1310  -83.7490   44.2530 C.3       9 GLL5        0.0000 
     83 CA         33.8218  -82.7530   42.7705 C.3       3 GLC5        0.0000 
     84 CA         33.9380  -83.7230   44.9170 C.3       9 GLL5        0.0000 
     85 CA         33.1090  -81.7700   40.9560 C.3       6 GLP5        0.0000 
     86 CA         35.9985  -84.1940   42.3073 C.3       3 GLC5        0.0000 
     87 CA         36.5320  -84.0370   40.4210 C.3       6 GLP5        0.0000 
     88 CA         35.5853  -83.7705   45.8936 C.3       3 GLC5        0.0000 
     89 CA         27.6465  -82.5810   40.0348 C.3       3 GLC5        0.0000 
     90 CA         27.3250  -84.6010   40.6580 C.3       6 GLP5        0.0000 
     91 CA         26.4680  -76.3745   36.3413 C.3       3 GLC5        0.0000 
     92 CA         27.8950  -75.4460   35.6100 C.3       6 GLP5        0.0000 
     93 CA         23.8930  -79.7135   33.6107 C.3       3 GLC5        0.0000 
     94 CA         23.7880  -78.3580   35.1390 C.3       9 GLL5        0.0000 
     95 CA         23.4860  -80.6220   31.9000 C.3       6 GLP5        0.0000 
     96 CA         23.0004  -79.0104   36.9607 C.3       3 GLC5        0.0000 
     97 CA         21.7380  -79.5200   38.4310 C.3       6 GLP5        0.0000 
@<TRIPOS>BOND
@<TRIPOS>SUBSTRUCTURE
     1 ALC1       12 GROUP        1 X    ALC  0     ROOT ALC X 1
     2 SEC2        1 GROUP        1 X    SEC  0     **** SEC X 2
     3 GLC5        6 GROUP        1 X    GLC  0     **** GLC X 6
     4 ALP1       14 GROUP        1 Y    ALP  0     ROOT ALP Y 8
     5 SEP2        3 GROUP        1 Y    SEP  0     **** SEP Y 9
     6 GLP5        8 GROUP        1 Y    GLP  0     **** GLP Y 13
     7 ALL1       13 GROUP        1 Z    ALL  0     ROOT ALL Z 15
     8 SEL2        2 GROUP        1 Z    SEL  0     **** SEL Z 16
     9 GLL5        7 GROUP        1 Z    GLL  0     **** GLL Z 20
@<TRIPOS>SET

