#    Name: 3ggp_NAD_3_ligand
#    Modification time : Tue Mar 25 12:30:04 2014

@<TRIPOS>MOLECULE
3ggp_NAD_3_ligand
   70    74     1     0     0
SMALL
NO_CHARGES


@<TRIPOS>ATOM
      1 PA         28.8720  -77.4530   43.7460 P.3       1 NAD312      0.0000 
      2 O1A        30.0130  -76.5370   43.6910 O.co2     1 NAD312      0.0000 
      3 O2A        27.8100  -77.1800   44.7280 O.co2     1 NAD312      0.0000 
      4 O5B        29.2550  -78.8990   44.3230 O.3       1 NAD312      0.0000 
      5 C5B        30.2990  -79.6670   43.8070 C.3       1 NAD312      0.0000 
      6 C4B        30.3310  -80.6720   44.9480 C.3       1 NAD312      0.0000 
      7 O4B        31.1850  -81.7440   44.5360 O.3       1 NAD312      0.0000 
      8 C3B        30.9670  -80.0380   46.2200 C.3       1 NAD312      0.0000 
      9 O3B        30.3790  -80.6180   47.3760 O.3       1 NAD312      0.0000 
     10 C2B        32.4160  -80.5270   46.1730 C.3       1 NAD312      0.0000 
     11 O2B        32.8790  -80.7740   47.4780 O.3       1 NAD312      0.0000 
     12 C1B        32.2360  -81.9360   45.4940 C.3       1 NAD312      0.0000 
     13 N9A        33.4900  -82.4330   44.8890 N.pl3     1 NAD312      0.0000 
     14 C8A        34.4330  -81.6860   44.2140 C.2       1 NAD312      0.0000 
     15 N7A        35.4480  -82.4750   43.8370 N.2       1 NAD312      0.0000 
     16 C5A        35.1310  -83.7490   44.2530 C.ar      1 NAD312      0.0000 
     17 C6A        35.7990  -84.9530   44.1340 C.ar      1 NAD312      0.0000 
     18 N6A        36.9650  -85.0040   43.5120 N.pl3     1 NAD312      0.0000 
     19 N1A        35.2850  -86.0950   44.6340 N.ar      1 NAD312      0.0000 
     20 C2A        34.0780  -86.0730   45.3050 C.ar      1 NAD312      0.0000 
     21 N3A        33.4090  -84.8620   45.4130 N.ar      1 NAD312      0.0000 
     22 C4A        33.9380  -83.7230   44.9170 C.ar      1 NAD312      0.0000 
     23 O3         28.5800  -77.7310   42.1730 O.3       1 NAD312      0.0000 
     24 PN         27.1630  -78.0220   41.3840 P.3       1 NAD312      0.0000 
     25 O1N        26.6840  -76.7610   40.6910 O.co2     1 NAD312      0.0000 
     26 O2N        26.4250  -78.8280   42.3550 O.co2     1 NAD312      0.0000 
     27 O5D        27.7480  -78.8950   40.1360 O.3       1 NAD312      0.0000 
     28 C5D        28.0790  -80.2920   40.1230 C.3       1 NAD312      0.0000 
     29 C4D        27.8570  -80.8300   38.7000 C.3       1 NAD312      0.0000 
     30 O4D        26.6150  -80.3660   38.2260 O.3       1 NAD312      0.0000 
     31 C3D        28.8890  -80.4000   37.6480 C.3       1 NAD312      0.0000 
     32 O3D        29.2880  -81.5300   36.8730 O.3       1 NAD312      0.0000 
     33 C2D        28.1300  -79.4580   36.7480 C.3       1 NAD312      0.0000 
     34 O2D        28.6090  -79.4660   35.4130 O.3       1 NAD312      0.0000 
     35 C1D        26.7120  -79.9830   36.8900 C.3       1 NAD312      0.0000 
     36 N1N        25.6730  -78.9810   36.5600 N.pl3     1 NAD312      0.0000 
     37 C2N        25.5540  -77.7700   37.2680 C.ar      1 NAD312      0.0000 
     38 C3N        24.5280  -76.8360   36.8770 C.ar      1 NAD312      0.0000 
     39 C7N        24.4560  -75.4570   37.5090 C.2       1 NAD312      0.0000 
     40 O7N        25.0160  -75.3020   38.7930 O.2       1 NAD312      0.0000 
     41 N7N        23.8880  -74.4730   36.8250 N.am      1 NAD312      0.0000 
     42 C4N        23.6390  -77.1410   35.8150 C.ar      1 NAD312      0.0000 
     43 C5N        23.7880  -78.3580   35.1390 C.ar      1 NAD312      0.0000 
     44 C6N        24.8120  -79.2520   35.5040 C.ar      1 NAD312      0.0000 
     45 H          31.2197  -79.1636   43.7853 H         1 NAD312      0.0000 
     46 H          30.0485  -80.1776   42.9249 H         1 NAD312      0.0000 
     47 H          29.3595  -80.9986   45.1739 H         1 NAD312      0.0000 
     48 H          30.9340  -79.0203   46.1590 H         1 NAD312      0.0000 
     49 H          32.9817  -79.9443   45.5714 H         1 NAD312      0.0000 
     50 H          31.8999  -82.5993   46.2846 H         1 NAD312      0.0000 
     51 H          34.3525  -80.7336   44.0487 H         1 NAD312      0.0000 
     52 H          37.4127  -85.8979   43.4891 H         1 NAD312      0.0000 
     53 H          37.2931  -84.1441   43.1211 H         1 NAD312      0.0000 
     54 H          33.6869  -86.9209   45.7106 H         1 NAD312      0.0000 
     55 H          27.4457  -80.8655   40.7977 H         1 NAD312      0.0000 
     56 H          29.1216  -80.4646   40.3847 H         1 NAD312      0.0000 
     57 H          27.8537  -81.9170   38.7374 H         1 NAD312      0.0000 
     58 H          29.6699  -79.8965   38.1125 H         1 NAD312      0.0000 
     59 H          28.1550  -78.4854   37.2113 H         1 NAD312      0.0000 
     60 H          26.6196  -80.8445   36.2407 H         1 NAD312      0.0000 
     61 H          26.1672  -77.5459   38.0362 H         1 NAD312      0.0000 
     62 H          23.9003  -73.5718   37.2582 H         1 NAD312      0.0000 
     63 H          23.4988  -74.7213   35.9379 H         1 NAD312      0.0000 
     64 H          22.9115  -76.4843   35.5563 H         1 NAD312      0.0000 
     65 H          23.1497  -78.6022   34.3739 H         1 NAD312      0.0000 
     66 H          24.9199  -80.1324   34.9666 H         1 NAD312      0.0000 
     67 H          30.6144  -81.5887   47.3266 H         1 NAD312      0.0000 
     68 H          32.6231  -81.7218   47.6682 H         1 NAD312      0.0000 
     69 H          29.7567  -82.1336   37.5180 H         1 NAD312      0.0000 
     70 H          27.9225  -78.9619   34.8889 H         1 NAD312      0.0000 
@<TRIPOS>BOND
     1    2    1 ar   
     2    3    1 ar   
     3    4    1 1    
     4   23    1 1    
     5    5    4 1    
     6    6    5 1    
     7   45    5 1    
     8   46    5 1    
     9    7    6 1    
    10    8    6 1    
    11   47    6 1    
    12   12    7 1    
    13    9    8 1    
    14   10    8 1    
    15   48    8 1    
    16   67    9 1    
    17   11   10 1    
    18   12   10 1    
    19   49   10 1    
    20   68   11 1    
    21   13   12 1    
    22   50   12 1    
    23   14   13 1    
    24   22   13 1    
    25   15   14 2    
    26   51   14 1    
    27   16   15 1    
    28   17   16 ar   
    29   22   16 ar   
    30   18   17 1    
    31   19   17 ar   
    32   52   18 1    
    33   53   18 1    
    34   20   19 ar   
    35   21   20 ar   
    36   54   20 1    
    37   22   21 ar   
    38   24   23 1    
    39   25   24 ar   
    40   26   24 ar   
    41   27   24 1    
    42   28   27 1    
    43   29   28 1    
    44   55   28 1    
    45   56   28 1    
    46   30   29 1    
    47   31   29 1    
    48   57   29 1    
    49   35   30 1    
    50   32   31 1    
    51   33   31 1    
    52   58   31 1    
    53   69   32 1    
    54   34   33 1    
    55   35   33 1    
    56   59   33 1    
    57   70   34 1    
    58   36   35 1    
    59   60   35 1    
    60   37   36 ar   
    61   44   36 ar   
    62   38   37 ar   
    63   61   37 1    
    64   39   38 1    
    65   42   38 ar   
    66   40   39 2    
    67   41   39 am   
    68   62   41 1    
    69   63   41 1    
    70   43   42 ar   
    71   64   42 1    
    72   44   43 ar   
    73   65   43 1    
    74   66   44 1    
@<TRIPOS>SUBSTRUCTURE
     1 NAD312      1 GROUP   
@<TRIPOS>SET

