#    Name: 1d7a_AIR_4_INTS_M
#    Modification time : Mon Mar 24 21:32:57 2014

@<TRIPOS>MOLECULE
1d7a_AIR_4_INTS_M
   46     0    12     0     0
SMALL
NO_CHARGES


@<TRIPOS>ATOM
      1 CA         42.4040    8.6465   48.7370 C.3       4 GLC5        0.0000 
      2 CA         41.0050   10.0430   48.4970 C.3      12 GLL5        0.0000 
      3 CA         43.8030    7.2500   48.9770 C.3       8 GLP5        0.0000 
      4 CA         42.9955   10.9100   48.5690 C.3       4 GLC5        0.0000 
      5 CA         44.9860   11.7770   48.6410 C.3       8 GLP5        0.0000 
      6 CA         41.1800   10.9860   50.0690 C.3       4 GLC5        0.0000 
      7 CA         41.3550   11.9290   51.6410 C.3       8 GLP5        0.0000 
      8 CA         39.0905   10.6035   49.4575 C.3       4 GLC5        0.0000 
      9 CA         37.1760   11.1640   50.4180 C.3       8 GLP5        0.0000 
     10 CA         41.2740    8.7215   45.8895 C.3       4 GLC5        0.0000 
     11 CA         40.4990   10.1030   47.1540 C.3      12 GLL5        0.0000 
     12 CA         42.0490    7.3400   44.6250 C.3       8 GLP5        0.0000 
     13 CA         40.2280    7.9755   44.7315 C.3       4 GLC5        0.0000 
     14 CA         38.4070    8.6110   44.8380 C.3      12 GLL5        0.0000 
     15 CA         38.9510    9.6625   42.9540 C.3       4 GLC5        0.0000 
     16 CA         39.4950   10.7140   41.0700 C.3       8 GLP5        0.0000 
     17 CA         36.4810    9.9375   43.0620 C.3       4 GLC5        0.0000 
     18 CA         37.0500    8.1580   44.2860 C.3      12 GLL5        0.0000 
     19 CA         35.9120   11.7170   41.8380 C.3       8 GLP5        0.0000 
     20 N          38.2130   10.2010   42.8475 N.am      2 SEC2        0.0000 
     21 N          39.1690    9.2340   43.8070 N.am     10 SEL2        0.0000 
     22 N          37.2570   11.1680   41.8880 N.am      6 SEP2        0.0000 
     23 O          39.0460    8.0105   43.0485 O.2       1 ALC1        0.0000 
     24 O          39.1690    9.2340   43.8070 O.2       9 ALL1        0.0000 
     25 O          38.9230    6.7870   42.2900 O.2       5 ALP1        0.0000 
     26 N          37.0255    9.9310   42.4370 N.am      2 SEC2        0.0000 
     27 N          36.7940    8.6940   42.9860 N.am     10 SEL2        0.0000 
     28 O          36.9000    7.6475   42.1190 O.2       1 ALC1        0.0000 
     29 O          36.7940    8.6940   42.9860 O.2       9 ALL1        0.0000 
     30 O          37.0060    6.6010   41.2520 O.2       5 ALP1        0.0000 
     31 NZ         36.5875    6.1125   49.7350 N.4       3 LYC4        0.0000 
     32 NZ         36.2580    5.8150   48.0520 N.4      11 LYL4        0.0000 
     33 NZ         38.1820    6.0530   51.2140 N.4       7 LYP4        0.0000 
     34 N          37.3740    5.6755   47.1065 N.am      2 SEC2        0.0000 
     35 N          36.2580    5.8150   48.0520 N.am     10 SEL2        0.0000 
     36 N          38.4900    5.5360   46.1610 N.am      6 SEP2        0.0000 
     37 N          37.4370    5.8205   49.0120 N.am      2 SEC2        0.0000 
     38 N          38.6160    5.8260   49.9720 N.am      6 SEP2        0.0000 
     39 N          36.5875    6.1125   49.7350 N.am      2 SEC2        0.0000 
     40 N          36.9170    6.4100   51.4180 N.am      6 SEP2        0.0000 
     41 NZ         35.7785    6.5850   50.5035 N.4       3 LYC4        0.0000 
     42 NZ         34.6400    6.7600   49.5890 N.4      11 LYL4        0.0000 
     43 N          35.7785    6.5850   50.5035 N.am      2 SEC2        0.0000 
     44 N          34.6400    6.7600   49.5890 N.am     10 SEL2        0.0000 
     45 CA         38.1857    6.3573   45.0065 C.3       4 GLC5        0.0000 
     46 CA         38.6430    4.3300   45.4510 C.3       8 GLP5        0.0000 
@<TRIPOS>BOND
@<TRIPOS>SUBSTRUCTURE
     1 ALC1       23 GROUP        1 X    ALC  0     ROOT ALC X 1
     2 SEC2       20 GROUP        1 X    SEC  0     **** SEC X 2
     3 LYC4       31 GROUP        1 X    LYC  0     **** LYC X 4
     4 GLC5        1 GROUP        1 X    GLC  0     **** GLC X 6
     5 ALP1       25 GROUP        1 Y    ALP  0     ROOT ALP Y 8
     6 SEP2       22 GROUP        1 Y    SEP  0     **** SEP Y 9
     7 LYP4       33 GROUP        1 Y    LYP  0     **** LYP Y 11
     8 GLP5        3 GROUP        1 Y    GLP  0     **** GLP Y 13
     9 ALL1       24 GROUP        1 Z    ALL  0     ROOT ALL Z 15
    10 SEL2       21 GROUP        1 Z    SEL  0     **** SEL Z 16
    11 LYL4       32 GROUP        1 Z    LYL  0     **** LYL Z 18
    12 GLL5        2 GROUP        1 Z    GLL  0     **** GLL Z 20
@<TRIPOS>SET

