#    Name: 1d7a_AIR_4_ligand
#    Modification time : Mon Mar 24 21:32:57 2014

@<TRIPOS>MOLECULE
1d7a_AIR_4_ligand
   31    32     1     0     0
SMALL
NO_CHARGES


@<TRIPOS>ATOM
      1 N1         39.1250    9.6320   47.0940 N.pl3     1 AIR450      0.0000 
      2 C2         38.9990    9.3300   48.5470 C.2       1 AIR450      0.0000 
      3 N3         40.0730    9.5520   49.4120 N.2       1 AIR450      0.0000 
      4 C4         41.0050   10.0430   48.4970 C.2       1 AIR450      0.0000 
      5 C5         40.4990   10.1030   47.1540 C.2       1 AIR450      0.0000 
      6 N6         41.2680   10.5900   45.9920 N.pl3     1 AIR450      0.0000 
      7 C1'        38.0410    9.5910   45.9630 C.3       1 AIR450      0.0000 
      8 C2'        38.4070    8.6110   44.8380 C.3       1 AIR450      0.0000 
      9 C3'        37.0500    8.1580   44.2860 C.3       1 AIR450      0.0000 
     10 C4'        36.0120    8.6850   45.3010 C.3       1 AIR450      0.0000 
     11 O4'        36.7700    9.1320   46.4420 O.3       1 AIR450      0.0000 
     12 O2'        39.1690    9.2340   43.8070 O.3       1 AIR450      0.0000 
     13 O3'        36.7940    8.6940   42.9860 O.3       1 AIR450      0.0000 
     14 C5'        34.9470    7.6570   45.7440 C.3       1 AIR450      0.0000 
     15 O5'        34.7070    7.6870   47.1710 O.3       1 AIR450      0.0000 
     16 P          34.8650    6.4050   48.1350 P.3       1 AIR450      0.0000 
     17 O6         36.2580    5.8150   48.0520 O.co2     1 AIR450      0.0000 
     18 O7         33.8590    5.3230   47.7710 O.co2     1 AIR450      0.0000 
     19 O8         34.6400    6.7600   49.5890 O.co2     1 AIR450      0.0000 
     20 H          38.1105    8.9618   48.8711 H         1 AIR450      0.0000 
     21 H          41.9081   10.3212   48.7236 H         1 AIR450      0.0000 
     22 H          40.8112   10.5276   45.1046 H         1 AIR450      0.0000 
     23 H          42.1832   10.9428   46.1866 H         1 AIR450      0.0000 
     24 H          37.9563   10.5706   45.5285 H         1 AIR450      0.0000 
     25 H          38.8799    7.7660   45.2722 H         1 AIR450      0.0000 
     26 H          37.0163    7.0919   44.3182 H         1 AIR450      0.0000 
     27 H          35.5097    9.5337   44.8470 H         1 AIR450      0.0000 
     28 H          35.2942    6.6614   45.4175 H         1 AIR450      0.0000 
     29 H          34.0243    7.8740   45.1784 H         1 AIR450      0.0000 
     30 H          39.2596    8.5373   43.0954 H         1 AIR450      0.0000 
     31 H          36.8818    7.9162   42.3636 H         1 AIR450      0.0000 
@<TRIPOS>BOND
     1    2    1 1    
     2    5    1 1    
     3    7    1 1    
     4    3    2 2    
     5   20    2 1    
     6    4    3 1    
     7    5    4 2    
     8   21    4 1    
     9    6    5 1    
    10   22    6 1    
    11   23    6 1    
    12    8    7 1    
    13   11    7 1    
    14   24    7 1    
    15    9    8 1    
    16   12    8 1    
    17   25    8 1    
    18   10    9 1    
    19   13    9 1    
    20   26    9 1    
    21   11   10 1    
    22   14   10 1    
    23   27   10 1    
    24   30   12 1    
    25   31   13 1    
    26   15   14 1    
    27   28   14 1    
    28   29   14 1    
    29   16   15 1    
    30   17   16 ar   
    31   18   16 ar   
    32   19   16 ar   
@<TRIPOS>SUBSTRUCTURE
     1 AIR450      1 GROUP   
@<TRIPOS>SET

