#    Name: 4i0t_1B6_1_INTS_M
#    Modification time : Tue Mar 25 02:10:02 2014

@<TRIPOS>MOLECULE
4i0t_1B6_1_INTS_M
   73     0     9     0     0
SMALL
NO_CHARGES


@<TRIPOS>ATOM
      1 N           3.2960   -2.5785   17.4065 N.am      2 SEC2        0.0000 
      2 N           3.0170   -1.8210   16.0550 N.am      8 SEL2        0.0000 
      3 N           3.5750   -3.3360   18.7580 N.am      5 SEP2        0.0000 
      4 CA          3.3775   -2.4250   14.6780 C.3       3 GLC5        0.0000 
      5 CA          1.7270   -1.8220   15.7100 C.3       9 GLL5        0.0000 
      6 CA          5.0280   -3.0280   13.6460 C.3       6 GLP5        0.0000 
      7 CA          2.0935   -3.6920   15.8955 C.3       3 GLC5        0.0000 
      8 CA          2.4600   -5.5620   16.0810 C.3       6 GLP5        0.0000 
      9 CA          2.1945   -1.6010   17.7960 C.3       3 GLC5        0.0000 
     10 CA          2.6620   -1.3800   19.8820 C.3       6 GLP5        0.0000 
     11 CA          3.2415   -1.1120   17.7835 C.3       3 GLC5        0.0000 
     12 CA          3.8210   -0.8440   15.6850 C.3       9 GLL5        0.0000 
     13 CA          6.3020    1.2505   13.4425 C.3       3 GLC5        0.0000 
     14 CA          4.4820    1.1440   14.7150 C.3       9 GLL5        0.0000 
     15 CA          8.1220    1.3570   12.1700 C.3       6 GLP5        0.0000 
     16 CA          7.1185    1.0310   16.6030 C.3       3 GLC5        0.0000 
     17 CA          5.5500    0.5900   15.3370 C.3       9 GLL5        0.0000 
     18 CA          8.6870    1.4720   17.8690 C.3       6 GLP5        0.0000 
     19 CA          7.1950    1.1885   14.5455 C.3       3 GLC5        0.0000 
     20 CA          8.8400    1.7870   13.7540 C.3       6 GLP5        0.0000 
     21 O           6.0580   -1.5345   16.5270 O.2       1 ALC1        0.0000 
     22 O           5.1690   -0.5870   15.8910 O.2       7 ALL1        0.0000 
     23 O           6.9470   -2.4820   17.1630 O.2       4 ALP1        0.0000 
     24 CA         -1.1245   -0.5815   16.5550 C.3       3 GLC5        0.0000 
     25 CA         -0.2380   -0.7500   14.5900 C.3       9 GLL5        0.0000 
     26 CA         -2.0110   -0.4130   18.5200 C.3       6 GLP5        0.0000 
     27 N           6.2080    3.7755   15.1135 N.am      2 SEC2        0.0000 
     28 N           5.4630    3.1660   14.1050 N.am      8 SEL2        0.0000 
     29 N           6.9530    4.3850   16.1220 N.am      5 SEP2        0.0000 
     30 CA          2.4420    6.6985   15.5560 C.3       3 GLC5        0.0000 
     31 CA          3.1120    5.2860   13.9450 C.3       9 GLL5        0.0000 
     32 CA          1.7720    8.1110   17.1670 C.3       6 GLP5        0.0000 
     33 CA          4.5880    5.1175   15.5295 C.3       3 GLC5        0.0000 
     34 CA          6.0640    4.9490   17.1140 C.3       6 GLP5        0.0000 
     35 CA          4.3245    6.8175   13.8085 C.3       3 GLC5        0.0000 
     36 CA          5.5370    8.3490   13.6720 C.3       6 GLP5        0.0000 
     37 CA          2.7105    4.5250   10.0025 C.3       3 GLC5        0.0000 
     38 CA          3.7650    4.5200   11.7260 C.3       9 GLL5        0.0000 
     39 CA          1.6560    4.5300    8.2790 C.3       6 GLP5        0.0000 
     40 CA          3.4085    2.8260   10.6440 C.3       3 GLC5        0.0000 
     41 CA          3.0520    1.1320    9.5620 C.3       6 GLP5        0.0000 
     42 CA          5.0070    4.2025   10.1850 C.3       3 GLC5        0.0000 
     43 CA          6.2490    3.8850    8.6440 C.3       6 GLP5        0.0000 
     44 CA         -0.9425   -1.5665   12.3515 C.3       3 GLC5        0.0000 
     45 CA         -0.8750    0.0580   13.7140 C.3       9 GLL5        0.0000 
     46 CA         -1.0100   -3.1910   10.9890 C.3       6 GLP5        0.0000 
     47 CA          1.5560    4.3270   10.4240 C.3       3 GLC5        0.0000 
     48 CA          1.4560    4.1240   12.5690 C.3       9 GLL5        0.0000 
     49 CA         -2.9190    0.9990   14.6965 C.3       3 GLC5        0.0000 
     50 CA         -3.2570    0.3150   12.8580 C.3       9 GLL5        0.0000 
     51 CA         -2.5810    1.6830   16.5350 C.3       6 GLP5        0.0000 
     52 CA         -2.5725    2.2625   13.9685 C.3       3 GLC5        0.0000 
     53 CA         -2.7120    1.4970   12.0060 C.3       9 GLL5        0.0000 
     54 CA         -2.4330    3.0280   15.9310 C.3       6 GLP5        0.0000 
     55 CA         -0.9660    2.7470   10.1575 C.3       3 GLC5        0.0000 
     56 CA         -1.2400    1.3450   11.6510 C.3       9 GLL5        0.0000 
     57 CA         -0.6920    4.1490    8.6640 C.3       6 GLP5        0.0000 
     58 CA          0.5590    0.5430   10.5785 C.3       3 GLC5        0.0000 
     59 CA          2.3580   -0.2590    9.5060 C.3       6 GLP5        0.0000 
     60 CA         -1.3810    2.1060   14.4090 C.3       3 GLC5        0.0000 
     61 CA         -0.3290    1.1840   12.8870 C.3       9 GLL5        0.0000 
     62 CA          0.6798   -2.4146   13.7580 C.3       3 GLC5        0.0000 
     63 CA          1.2110   -0.7470   14.9500 C.3       9 GLL5        0.0000 
     64 CA          0.7440   -3.8120   12.5560 C.3       6 GLP5        0.0000 
     65 CA         -1.5688    0.6685   15.3435 C.3       3 GLC5        0.0000 
     66 CA          0.9543    0.4944   16.2205 C.3       3 GLC5        0.0000 
     67 CA          1.2930    2.0060   17.4810 C.3       6 GLP5        0.0000 
     68 CA         -2.3390    0.6130   10.0003 C.3       3 GLC5        0.0000 
     69 CA         -2.7020   -0.1950    8.1720 C.3       6 GLP5        0.0000 
     70 CA          4.6611   -1.3724   14.4065 C.3       3 GLC5        0.0000 
     71 CA          3.3240    0.2430   14.9310 C.3       9 GLL5        0.0000 
     72 CA          4.0166    1.2956   16.4660 C.3       3 GLC5        0.0000 
     73 CA          3.7390    2.3080   17.7650 C.3       6 GLP5        0.0000 
@<TRIPOS>BOND
@<TRIPOS>SUBSTRUCTURE
     1 ALC1       21 GROUP        1 X    ALC  0     ROOT ALC X 1
     2 SEC2        1 GROUP        1 X    SEC  0     **** SEC X 2
     3 GLC5        4 GROUP        1 X    GLC  0     **** GLC X 6
     4 ALP1       23 GROUP        1 Y    ALP  0     ROOT ALP Y 8
     5 SEP2        3 GROUP        1 Y    SEP  0     **** SEP Y 9
     6 GLP5        6 GROUP        1 Y    GLP  0     **** GLP Y 13
     7 ALL1       22 GROUP        1 Z    ALL  0     ROOT ALL Z 15
     8 SEL2        2 GROUP        1 Z    SEL  0     **** SEL Z 16
     9 GLL5        5 GROUP        1 Z    GLL  0     **** GLL Z 20
@<TRIPOS>SET

