#    Name: 4i0t_1B6_1_ligand
#    Modification time : Tue Mar 25 02:10:02 2014

@<TRIPOS>MOLECULE
4i0t_1B6_1_ligand
   47    50     1     0     0
SMALL
NO_CHARGES


@<TRIPOS>ATOM
      1 N1          3.0170   -1.8210   16.0550 N.ar      1 1B6701      0.0000 
      2 C2          1.7270   -1.8220   15.7100 C.ar      1 1B6701      0.0000 
      3 C3          1.2110   -0.7470   14.9500 C.ar      1 1B6701      0.0000 
      4 N4          2.0450    0.2590   14.5790 N.ar      1 1B6701      0.0000 
      5 C5          3.3240    0.2430   14.9310 C.ar      1 1B6701      0.0000 
      6 C6          3.8210   -0.8440   15.6850 C.ar      1 1B6701      0.0000 
      7 C7          4.4820    1.1440   14.7150 C.2       1 1B6701      0.0000 
      8 C8          5.5500    0.5900   15.3370 C.2       1 1B6701      0.0000 
      9 N9          5.1690   -0.5870   15.8910 N.pl3     1 1B6701      0.0000 
     10 C10        -0.2380   -0.7500   14.5900 C.2       1 1B6701      0.0000 
     11 C11         4.4460    2.4760   14.0500 C.2       1 1B6701      0.0000 
     12 N12         3.2430    2.8630   13.5690 N.am      1 1B6701      0.0000 
     13 O13         5.4630    3.1660   14.1050 O.2       1 1B6701      0.0000 
     14 C14         2.9220    4.1610   12.9430 C.3       1 1B6701      0.0000 
     15 C15         3.1120    5.2860   13.9450 C.3       1 1B6701      0.0000 
     16 C16         3.7650    4.5200   11.7260 C.3       1 1B6701      0.0000 
     17 N17        -1.1990   -1.6020   15.0920 N.2       1 1B6701      0.0000 
     18 C18        -2.3590   -1.3460   14.5930 C.2       1 1B6701      0.0000 
     19 N19        -2.2150   -0.3100   13.7140 N.pl3     1 1B6701      0.0000 
     20 C20        -0.8750    0.0580   13.7140 C.2       1 1B6701      0.0000 
     21 C21         1.4560    4.1240   12.5690 C.3       1 1B6701      0.0000 
     22 C22        -3.2570    0.3150   12.8580 C.3       1 1B6701      0.0000 
     23 C23        -2.7120    1.4970   12.0060 C.3       1 1B6701      0.0000 
     24 C24        -1.2400    1.3450   11.6510 C.3       1 1B6701      0.0000 
     25 C25        -0.3290    1.1840   12.8870 C.3       1 1B6701      0.0000 
     26 H           1.0848   -2.5816   15.9773 H         1 1B6701      0.0000 
     27 H           6.4366    0.9701   15.3792 H         1 1B6701      0.0000 
     28 H           5.7608   -1.1952   16.3812 H         1 1B6701      0.0000 
     29 H           2.4100    2.1949   13.6259 H         1 1B6701      0.0000 
     30 H          -3.2068   -1.7817   14.7772 H         1 1B6701      0.0000 
     31 H          -4.0816    0.6999   13.4753 H         1 1B6701      0.0000 
     32 H          -3.6828   -0.4270   12.1671 H         1 1B6701      0.0000 
     33 H          -2.8605    2.4246   12.5702 H         1 1B6701      0.0000 
     34 H          -3.3070    1.5621   11.0881 H         1 1B6701      0.0000 
     35 H          -0.9083    2.2258   11.0853 H         1 1B6701      0.0000 
     36 H          -1.1094    0.4671   11.0045 H         1 1B6701      0.0000 
     37 H           0.6697    0.9565   12.5528 H         1 1B6701      0.0000 
     38 H          -0.3415    2.1040   13.4476 H         1 1B6701      0.0000 
     39 H           4.0531    5.3296   14.2804 H         1 1B6701      0.0000 
     40 H           2.9014    6.1784   13.5458 H         1 1B6701      0.0000 
     41 H           2.5209    5.1755   14.7440 H         1 1B6701      0.0000 
     42 H           4.7382    4.5705   11.9502 H         1 1B6701      0.0000 
     43 H           3.6674    3.8452   10.9944 H         1 1B6701      0.0000 
     44 H           3.5060    5.4068   11.3433 H         1 1B6701      0.0000 
     45 H           1.1622    4.9750   12.1337 H         1 1B6701      0.0000 
     46 H           1.2546    3.3826   11.9289 H         1 1B6701      0.0000 
     47 H           0.8719    3.9872   13.3691 H         1 1B6701      0.0000 
@<TRIPOS>BOND
     1    2    1 ar   
     2    6    1 ar   
     3    3    2 ar   
     4   26    2 1    
     5    4    3 ar   
     6   10    3 1    
     7    5    4 ar   
     8    6    5 ar   
     9    7    5 1    
    10    9    6 1    
    11    8    7 2    
    12   11    7 1    
    13    9    8 1    
    14   27    8 1    
    15   28    9 1    
    16   17   10 1    
    17   20   10 2    
    18   12   11 am   
    19   13   11 2    
    20   14   12 1    
    21   29   12 1    
    22   15   14 1    
    23   16   14 1    
    24   21   14 1    
    25   39   15 1    
    26   40   15 1    
    27   41   15 1    
    28   42   16 1    
    29   43   16 1    
    30   44   16 1    
    31   18   17 2    
    32   19   18 1    
    33   30   18 1    
    34   20   19 1    
    35   22   19 1    
    36   25   20 1    
    37   45   21 1    
    38   46   21 1    
    39   47   21 1    
    40   23   22 1    
    41   31   22 1    
    42   32   22 1    
    43   24   23 1    
    44   33   23 1    
    45   34   23 1    
    46   25   24 1    
    47   35   24 1    
    48   36   24 1    
    49   37   25 1    
    50   38   25 1    
@<TRIPOS>SUBSTRUCTURE
     1 1B6701      1 GROUP   
@<TRIPOS>SET

