#    Name: 2qzx_VAL_VAL_ALA_IVA_STA_STA_1_INTS_M
#    Modification time : Mon Mar 24 23:00:34 2014

@<TRIPOS>MOLECULE
2qzx_VAL_VAL_ALA_IVA_STA_STA_1_INTS_M
  102     0    12     0     0
SMALL
NO_CHARGES


@<TRIPOS>ATOM
      1 O          33.8305   14.4165   58.7490 O.2       1 ALC1        0.0000 
      2 O          35.2070   13.8490   59.0350 O.2       9 ALL1        0.0000 
      3 O          32.4540   14.9840   58.4630 O.2       5 ALP1        0.0000 
      4 CA         37.1270   11.3595   60.1465 C.3       4 GLC5        0.0000 
      5 CA         35.4950   12.8740   60.0900 C.3      12 GLL5        0.0000 
      6 CA         38.7590    9.8450   60.2030 C.3       8 GLP5        0.0000 
      7 N          32.2675   12.1520   58.8025 N.am      2 SEC2        0.0000 
      8 N          33.6860   11.6120   59.1500 N.am     10 SEL2        0.0000 
      9 N          30.8490   12.6920   58.4550 N.am      6 SEP2        0.0000 
     10 CA         35.7820   16.6785   61.0665 C.3       4 GLC5        0.0000 
     11 CA         36.2750   14.6060   61.7380 C.3      12 GLL5        0.0000 
     12 CA         35.2890   18.7510   60.3950 C.3       8 GLP5        0.0000 
     13 CA         37.3835   15.8045   60.3565 C.3       4 GLC5        0.0000 
     14 CA         38.4920   17.0030   58.9750 C.3       8 GLP5        0.0000 
     15 CA         36.8435   16.1320   62.9595 C.3       4 GLC5        0.0000 
     16 CA         37.4120   17.6580   64.1810 C.3       8 GLP5        0.0000 
     17 O          36.5990   10.9330   61.1875 O.2       1 ALC1        0.0000 
     18 O          35.1550   10.5220   60.4600 O.2       9 ALL1        0.0000 
     19 O          38.0430   11.3440   61.9150 O.2       5 ALP1        0.0000 
     20 CA         32.4365    9.2610   59.7370 C.3       4 GLC5        0.0000 
     21 CA         34.4950    9.2150   60.4400 C.3      12 GLL5        0.0000 
     22 CA         30.3780    9.3070   59.0340 C.3       8 GLP5        0.0000 
     23 N          37.0860    7.8625   61.5335 N.am      2 SEC2        0.0000 
     24 N          35.6790    8.2460   62.2920 N.am     10 SEL2        0.0000 
     25 N          38.4930    7.4790   60.7750 N.am      6 SEP2        0.0000 
     26 CA         33.0230    5.6960   58.7060 C.3       4 GLC5        0.0000 
     27 CA         34.4120    6.9080   59.4390 C.3      12 GLL5        0.0000 
     28 CA         31.6340    4.4840   57.9730 C.3       8 GLP5        0.0000 
     29 CA         33.1245    9.1115   57.8570 C.3       4 GLC5        0.0000 
     30 CA         35.1860    8.8400   58.0470 C.3      12 GLL5        0.0000 
     31 CA         31.0630    9.3830   57.6670 C.3       8 GLP5        0.0000 
     32 CA         34.7680    8.7550   56.2365 C.3       4 GLC5        0.0000 
     33 CA         34.3500    8.6700   54.4260 C.3       8 GLP5        0.0000 
     34 O          32.2250    4.6430   65.7735 O.2       1 ALC1        0.0000 
     35 O          33.5530    4.5960   65.3580 O.2       9 ALL1        0.0000 
     36 O          30.8970    4.6900   66.1890 O.2       5 ALP1        0.0000 
     37 CA         32.1710    4.5085   68.1795 C.3       4 GLC5        0.0000 
     38 CA         33.8810    3.5410   67.5210 C.3      12 GLL5        0.0000 
     39 CA         30.4610    5.4760   68.8380 C.3       8 GLP5        0.0000 
     40 CA         34.7870    4.5245   69.3240 C.3       4 GLC5        0.0000 
     41 CA         35.6930    5.5080   71.1270 C.3       8 GLP5        0.0000 
     42 CA         34.3795   16.9135   58.0390 C.3       4 GLC5        0.0000 
     43 CA         35.5560   15.2560   57.1390 C.3      12 GLL5        0.0000 
     44 CA         33.2030   18.5710   58.9390 C.3       8 GLP5        0.0000 
     45 CA         37.0240   16.1295   58.0570 C.3       4 GLC5        0.0000 
     46 CA         33.6845   14.9260   57.1880 C.3       4 GLC5        0.0000 
     47 CA         31.8130   14.5960   57.2370 C.3       8 GLP5        0.0000 
     48 CA         37.0440   16.5770   56.9745 C.3       4 GLC5        0.0000 
     49 CA         36.0420   15.0720   55.7000 C.3      12 GLL5        0.0000 
     50 CA         38.0460   18.0820   58.2490 C.3       8 GLP5        0.0000 
     51 CA         33.4425   16.0125   55.6350 C.3       4 GLC5        0.0000 
     52 CA         35.4520   16.1860   54.8340 C.3      12 GLL5        0.0000 
     53 CA         31.4330   15.8390   56.4360 C.3       8 GLP5        0.0000 
     54 CA         33.7395   14.1500   56.1810 C.3       4 GLC5        0.0000 
     55 CA         35.6660   13.7040   55.1250 C.3      12 GLL5        0.0000 
     56 CA         34.5125   12.4980   53.6835 C.3       4 GLC5        0.0000 
     57 CA         33.3590   11.2920   52.2420 C.3       8 GLP5        0.0000 
     58 CA         31.3530   10.3685   64.1260 C.3       4 GLC5        0.0000 
     59 CA         33.3850    9.7690   64.8720 C.3      12 GLL5        0.0000 
     60 CA         29.3210   10.9680   63.3800 C.3       8 GLP5        0.0000 
     61 CA         36.4340    9.2965   65.5465 C.3       4 GLC5        0.0000 
     62 CA         35.7450   10.7860   64.6710 C.3      12 GLL5        0.0000 
     63 CA         37.1230    7.8070   66.4220 C.3       8 GLP5        0.0000 
     64 CA         32.2960   13.3990   65.7175 C.3       4 GLC5        0.0000 
     65 CA         33.7170   12.2680   64.8180 C.3      12 GLL5        0.0000 
     66 CA         30.8750   14.5300   66.6170 C.3       8 GLP5        0.0000 
     67 CA         34.3900   12.0335   66.5410 C.3       4 GLC5        0.0000 
     68 CA         35.0630   11.7990   68.2640 C.3       8 GLP5        0.0000 
     69 N          30.4770    8.4625   64.5985 N.am      2 SEC2        0.0000 
     70 N          31.1980    7.9480   63.7190 N.am     10 SEL2        0.0000 
     71 N          29.7560    8.9770   65.4780 N.am      6 SEP2        0.0000 
     72 O          30.4460    7.6950   62.8830 O.2       1 ALC1        0.0000 
     73 O          31.1980    7.9480   63.7190 O.2       9 ALL1        0.0000 
     74 O          29.6940    7.4420   62.0470 O.2       5 ALP1        0.0000 
     75 N          36.1870    5.5850   63.2835 N.am      2 SEC2        0.0000 
     76 N          35.0570    5.5600   63.9870 N.am     10 SEL2        0.0000 
     77 N          37.3170    5.6100   62.5800 N.am      6 SEP2        0.0000 
     78 CA         39.8315    3.1435   65.8960 C.3       4 GLC5        0.0000 
     79 CA         38.4940    2.6890   64.8060 C.3      12 GLL5        0.0000 
     80 CA         41.1690    3.5980   66.9860 C.3       8 GLP5        0.0000 
     81 CA         38.2790    4.3785   64.8185 C.3       4 GLC5        0.0000 
     82 CA         38.0640    6.0680   64.8310 C.3       8 GLP5        0.0000 
     83 CA         38.0440    3.7805   61.7470 C.3       4 GLC5        0.0000 
     84 CA         38.6260    2.2480   62.3250 C.3      12 GLL5        0.0000 
     85 CA         37.4620    5.3130   61.1690 C.3       8 GLP5        0.0000 
     86 O          37.8955    2.6850   67.0790 O.2       1 ALC1        0.0000 
     87 O          37.7870    1.0430   67.2060 O.2       9 ALL1        0.0000 
     88 O          38.0040    4.3270   66.9520 O.2       5 ALP1        0.0000 
     89 NZ         33.5915   -1.2795   64.3090 N.4       3 LYC4        0.0000 
     90 NZ         34.7170   -1.2130   65.6880 N.4      11 LYL4        0.0000 
     91 NZ         32.4660   -1.3460   62.9300 N.4       7 LYP4        0.0000 
     92 CA         36.1213    6.4455   60.3083 C.3       4 GLC5        0.0000 
     93 CA         35.1490    8.2480   59.4560 C.3      12 GLL5        0.0000 
     94 CA         36.8815    9.3154   59.6003 C.3       4 GLC5        0.0000 
     95 CA         35.0547    5.4840   66.8595 C.3       4 GLC5        0.0000 
     96 CA         34.5140    3.8330   66.1590 C.3      12 GLL5        0.0000 
     97 CA         35.9120    7.2810   66.8790 C.3       8 GLP5        0.0000 
     98 CA         34.9225   11.1814   66.4518 C.3       4 GLC5        0.0000 
     99 CA         30.6867    6.1792   64.7055 C.3       4 GLC5        0.0000 
    100 CA         32.4200    7.4730   64.2850 C.3      12 GLL5        0.0000 
    101 CA         28.7960    5.5680   65.4340 C.3       8 GLP5        0.0000 
    102 CA         34.4257    7.7912   65.6244 C.3       4 GLC5        0.0000 
@<TRIPOS>BOND
@<TRIPOS>SUBSTRUCTURE
     1 ALC1        1 GROUP        1 X    ALC  0     ROOT ALC X 1
     2 SEC2        7 GROUP        1 X    SEC  0     **** SEC X 2
     3 LYC4       89 GROUP        1 X    LYC  0     **** LYC X 4
     4 GLC5        4 GROUP        1 X    GLC  0     **** GLC X 6
     5 ALP1        3 GROUP        1 Y    ALP  0     ROOT ALP Y 8
     6 SEP2        9 GROUP        1 Y    SEP  0     **** SEP Y 9
     7 LYP4       91 GROUP        1 Y    LYP  0     **** LYP Y 11
     8 GLP5        6 GROUP        1 Y    GLP  0     **** GLP Y 13
     9 ALL1        2 GROUP        1 Z    ALL  0     ROOT ALL Z 15
    10 SEL2        8 GROUP        1 Z    SEL  0     **** SEL Z 16
    11 LYL4       90 GROUP        1 Z    LYL  0     **** LYL Z 18
    12 GLL5        5 GROUP        1 Z    GLL  0     **** GLL Z 20
@<TRIPOS>SET

