#    Name: 2qzx_VAL_VAL_ALA_IVA_STA_STA_1_ligand
#    Modification time : Mon Mar 24 23:00:34 2014

@<TRIPOS>MOLECULE
2qzx_VAL_VAL_ALA_IVA_STA_STA_1_ligand
  108   107     6     0     0
SMALL
NO_CHARGES


@<TRIPOS>ATOM
      1 N          35.2070   13.8490   59.0350 N.am      1 VAL2002     0.0000
      2 CA         35.4950   12.8740   60.0900 C.3       1 VAL2002     0.0000
      3 C          34.6710   11.6100   59.8770 C.2       1 VAL2002     0.0000
      4 O          33.6860   11.6120   59.1500 O.2       1 VAL2002     0.0000
      5 CB         35.2410   13.5180   61.4480 C.3       1 VAL2002     0.0000
      6 CG1        36.2750   14.6060   61.7380 C.3       1 VAL2002     0.0000
      7 CG2        33.8370   14.1110   61.5550 C.3       1 VAL2002     0.0000
      8 HNCA       34.2282   14.2343   59.0445 H         1 VAL2002     0.0000
      9 HA         36.5524   12.6017   60.0421 H         1 VAL2002     0.0000
     10 HB         35.3431   12.7520   62.2195 H         1 VAL2002     0.0000
     11 H          37.2059   14.2408   61.7469 H         1 VAL2002     0.0000
     12 H          36.2518   15.3328   61.0515 H         1 VAL2002     0.0000
     13 H          36.1209   15.0374   62.6269 H         1 VAL2002     0.0000
     14 HG21       33.6777   14.5293   62.4492 H         1 VAL2002     0.0000
     15 HG22       33.6799   14.8201   60.8676 H         1 VAL2002     0.0000
     16 HG23       33.1295   13.4161   61.4262 H         1 VAL2002     0.0000
     17 N          35.1550   10.5220   60.4600 N.am      2 VAL2003     0.0000
     18 CA         34.4950    9.2150   60.4400 C.3       2 VAL2003     0.0000
     19 C          34.6260    8.7110   61.8740 C.2       2 VAL2003     0.0000
     20 O          35.6790    8.2460   62.2920 O.2       2 VAL2003     0.0000
     21 CB         35.1490    8.2480   59.4560 C.3       2 VAL2003     0.0000
     22 CG1        34.4120    6.9080   59.4390 C.3       2 VAL2003     0.0000
     23 CG2        35.1860    8.8400   58.0470 C.3       2 VAL2003     0.0000
     24 HNCA       36.0725   10.5417   60.9869 H         2 VAL2003     0.0000
     25 HA         33.4579    9.3246   60.2199 H         2 VAL2003     0.0000
     26 HB         36.1712    8.0681   59.7760 H         2 VAL2003     0.0000
     27 H          34.8279    6.2635   58.7973 H         2 VAL2003     0.0000
     28 H          34.4163    6.4704   60.3381 H         2 VAL2003     0.0000
     29 H          33.4549    7.0139   59.1691 H         2 VAL2003     0.0000
     30 HG21       35.7037    9.6951   58.0169 H         2 VAL2003     0.0000
     31 HG22       35.6130    8.2156   57.3929 H         2 VAL2003     0.0000
     32 HG23       34.2683    9.0408   57.7043 H         2 VAL2003     0.0000
     33 N          33.5530    4.5960   65.3580 N.am      3 ALA2005     0.0000
     34 CA         34.5140    3.8330   66.1590 C.3       3 ALA2005     0.0000
     35 C          34.8540    2.5080   65.4820 C.2       3 ALA2005     0.0000
     36 O          34.0260    1.9440   64.7760 O.2       3 ALA2005     0.0000
     37 CB         33.8810    3.5410   67.5210 C.3       3 ALA2005     0.0000
     38 H          32.5447    4.4618   65.6319 H         3 ALA2005     0.0000
     39 HA         35.4114    4.3884   66.3157 H         3 ALA2005     0.0000
     40 HB1        34.4954    3.0178   68.1116 H         3 ALA2005     0.0000
     41 HB2        33.6490    4.3815   68.0106 H         3 ALA2005     0.0000
     42 HB3        33.0376    3.0110   67.4326 H         3 ALA2005     0.0000
     43 CA         35.5560   15.2560   57.1390 C.3       4 IVA2001     0.0000
     44 CB         36.0420   15.0720   55.7000 C.3       4 IVA2001     0.0000
     45 CG1        35.4520   16.1860   54.8340 C.3       4 IVA2001     0.0000
     46 CG2        35.6660   13.7040   55.1250 C.3       4 IVA2001     0.0000
     47 C          36.0990   14.2280   58.1300 C.2       4 IVA2001     0.0000
     48 O          37.2540   13.8150   58.0840 O.co2     4 IVA2001     0.0000
     49 H          34.4518   15.2145   57.1498 H         4 IVA2001     0.0000
     50 H          35.8374   16.2676   57.4831 H         4 IVA2001     0.0000
     51 H          37.1204   15.1743   55.6848 H         4 IVA2001     0.0000
     52 H          35.7344   17.0916   55.1506 H         4 IVA2001     0.0000
     53 H          35.7397   16.1063   53.8796 H         4 IVA2001     0.0000
     54 H          34.4521   16.1717   54.8409 H         4 IVA2001     0.0000
     55 H          35.9904   13.5941   54.1855 H         4 IVA2001     0.0000
     56 H          36.0583   12.9557   55.6599 H         4 IVA2001     0.0000
     57 H          34.6756   13.5665   55.1111 H         4 IVA2001     0.0000
     58 N          33.5430    8.8720   62.6220 N.4       5 STA2004     0.0000
     59 CA         33.5330    8.4910   64.0370 C.3       5 STA2004     0.0000
     60 CB         33.3850    9.7690   64.8720 C.3       5 STA2004     0.0000
     61 CG         34.2530   10.9140   64.3440 C.3       5 STA2004     0.0000
     62 CD1        35.7450   10.7860   64.6710 C.3       5 STA2004     0.0000
     63 CD2        33.7170   12.2680   64.8180 C.3       5 STA2004     0.0000
     64 CH         32.4200    7.4730   64.2850 C.3       5 STA2004     0.0000
     65 OH         31.1980    7.9480   63.7190 O.3       5 STA2004     0.0000
     66 CM         32.7350    6.1080   63.6690 C.3       5 STA2004     0.0000
     67 C          33.9020    5.4010   64.3590 C.2       5 STA2004     0.0000
     68 O          35.0570    5.5600   63.9870 O.co2     5 STA2004     0.0000
     69 H          34.4843    8.0329   64.2887 H         5 STA2004     0.0000
     70 H          33.6671    9.5531   65.9072 H         5 STA2004     0.0000
     71 H          32.3360   10.0809   64.8634 H         5 STA2004     0.0000
     72 H          34.1600   10.9151   63.2346 H         5 STA2004     0.0000
     73 H          32.3135    7.3386   65.3556 H         5 STA2004     0.0000
     74 H          32.9747    6.2420   62.6070 H         5 STA2004     0.0000
     75 H          31.8430    5.4727   63.7328 H         5 STA2004     0.0000
     76 H          36.1383    9.9493   64.2898 H         5 STA2004     0.0000
     77 H          36.2728   11.5518   64.3036 H         5 STA2004     0.0000
     78 H          35.9085   10.7638   65.6573 H         5 STA2004     0.0000
     79 H          33.7084   12.3354   65.8157 H         5 STA2004     0.0000
     80 H          34.2722   13.0269   64.4778 H         5 STA2004     0.0000
     81 H          32.7805   12.4268   64.5054 H         5 STA2004     0.0000
     82 H          31.0064    7.3270   62.9589 H         5 STA2004     0.0000
     83 N          36.0840    2.0480   65.6840 N.4       6 STA2006     0.0000
     84 CA         36.5530    0.7650   65.1480 C.3       6 STA2006     0.0000
     85 CB         37.1160    0.8500   63.7320 C.3       6 STA2006     0.0000
     86 CG         38.4330    1.6250   63.7070 C.3       6 STA2006     0.0000
     87 CD1        38.4940    2.6890   64.8060 C.3       6 STA2006     0.0000
     88 CD2        38.6260    2.2480   62.3250 C.3       6 STA2006     0.0000
     89 CH         37.5270    0.1260   66.1420 C.3       6 STA2006     0.0000
     90 OH         37.7870    1.0430   67.2060 O.3       6 STA2006     0.0000
     91 CM         36.8520   -1.1260   66.6990 C.3       6 STA2006     0.0000
     92 C          35.3460   -0.8870   66.7190 C.2       6 STA2006     0.0000
     93 O          34.8770   -0.2750   67.7040 O.co2     6 STA2006     0.0000
     94 OXT        34.7170   -1.2130   65.6880 O.co2     6 STA2006     0.0000
     95 H          35.6703    0.0724   65.1059 H         6 STA2006     0.0000
     96 H          36.3934    1.3504   63.0868 H         6 STA2006     0.0000
     97 H          37.2858   -0.1575   63.3511 H         6 STA2006     0.0000
     98 H          39.2450    0.9152   63.8685 H         6 STA2006     0.0000
     99 H          38.4053   -0.1603   65.6214 H         6 STA2006     0.0000
    100 H          37.2023   -1.3067   67.7026 H         6 STA2006     0.0000
    101 H          37.0756   -1.9677   66.0634 H         6 STA2006     0.0000
    102 H          39.3562    3.1951   64.7855 H         6 STA2006     0.0000
    103 H          37.7581    3.3599   64.7147 H         6 STA2006     0.0000
    104 H          38.4121    2.2864   65.7177 H         6 STA2006     0.0000
    105 H          39.4808    2.7635   62.2661 H         6 STA2006     0.0000
    106 H          38.6519    1.5543   61.6052 H         6 STA2006     0.0000
    107 H          37.8860    2.8804   62.0961 H         6 STA2006     0.0000
    108 H          37.7786    1.9462   66.7769 H         6 STA2006     0.0000
@<TRIPOS>BOND
     1    2    1 1
     2    8    1 1
     3    3    2 1
     4    5    2 1
     5    9    2 1
     6    4    3 2
     7    6    5 1
     8    7    5 1
     9   10    5 1
    10   11    6 1
    11   12    6 1
    12   13    6 1
    13   14    7 1
    14   15    7 1
    15   16    7 1
    16   18   17 1
    17   24   17 1
    18   19   18 1
    19   21   18 1
    20   25   18 1
    21   20   19 2
    22   22   21 1
    23   23   21 1
    24   26   21 1
    25   27   22 1
    26   28   22 1
    27   29   22 1
    28   30   23 1
    29   31   23 1
    30   32   23 1
    31   34   33 1
    32   38   33 1
    33   35   34 1
    34   37   34 1
    35   39   34 1
    36   36   35 2
    37   40   37 1
    38   41   37 1
    39   42   37 1
    40   44   43 1
    41   47   43 1
    42   49   43 1
    43   50   43 1
    44   45   44 1
    45   46   44 1
    46   51   44 1
    47   52   45 1
    48   53   45 1
    49   54   45 1
    50   55   46 1
    51   56   46 1
    52   57   46 1
    53   48   47 ar
    54   59   58 1
    55   60   59 1
    56   64   59 1
    57   69   59 1
    58   61   60 1
    59   70   60 1
    60   71   60 1
    61   62   61 1
    62   63   61 1
    63   72   61 1
    64   76   62 1
    65   77   62 1
    66   78   62 1
    67   79   63 1
    68   80   63 1
    69   81   63 1
    70   65   64 1
    71   66   64 1
    72   73   64 1
    73   82   65 1
    74   67   66 1
    75   74   66 1
    76   75   66 1
    77   68   67 ar
    78   84   83 1
    79   85   84 1
    80   89   84 1
    81   95   84 1
    82   86   85 1
    83   96   85 1
    84   97   85 1
    85   87   86 1
    86   88   86 1
    87   98   86 1
    88  102   87 1
    89  103   87 1
    90  104   87 1
    91  105   88 1
    92  106   88 1
    93  107   88 1
    94   90   89 1
    95   91   89 1
    96   99   89 1
    97  108   90 1
    98   92   91 1
    99  100   91 1
   100  101   91 1
   101   93   92 ar
   102   94   92 ar
   103   47    1 1 
   104   17    3 am
   105   58   19 1 
   106   67   33 1 
   107   83   35 1 
@<TRIPOS>SUBSTRUCTURE
     1 VAL2002     1 RESIDUE
     2 VAL2003    17 RESIDUE
     3 ALA2005    33 RESIDUE
     4 IVA2001    43 GROUP
     5 STA2004    58 GROUP
     6 STA2006    83 GROUP
@<TRIPOS>SET

