#    Name: 3ecn_IBM_1_INTS_M
#    Modification time : Tue Mar 25 01:28:26 2014

@<TRIPOS>MOLECULE
3ecn_IBM_1_INTS_M
   27     0     6     0     0
SMALL
NO_CHARGES


@<TRIPOS>ATOM
      1 CA         -3.1605  -12.1165   21.0620 C.3       2 GLC5        0.0000 
      2 CA         -1.1910  -11.4920   20.9250 C.3       6 GLL5        0.0000 
      3 CA         -5.1300  -12.7410   21.1990 C.3       4 GLP5        0.0000 
      4 N          -0.8145  -14.0165   23.9020 N.am      1 SEC2        0.0000 
      5 N          -1.0170  -12.7230   22.8260 N.am      5 SEL2        0.0000 
      6 N          -0.6120  -15.3100   24.9780 N.am      3 SEP2        0.0000 
      7 CA         -0.5170  -16.5880   20.3320 C.3       2 GLC5        0.0000 
      8 CA         -0.2280  -15.0230   21.5860 C.3       6 GLL5        0.0000 
      9 CA         -0.8060  -18.1530   19.0780 C.3       4 GLP5        0.0000 
     10 CA          1.3785  -14.0275   21.6920 C.3       2 GLC5        0.0000 
     11 CA          2.9850  -13.0320   21.7980 C.3       4 GLP5        0.0000 
     12 CA         -2.4175  -13.3120   17.6090 C.3       2 GLC5        0.0000 
     13 CA         -0.6190  -12.5140   17.3340 C.3       6 GLL5        0.0000 
     14 CA         -4.2160  -14.1100   17.8840 C.3       4 GLP5        0.0000 
     15 CA          2.1755  -13.1505   18.4990 C.3       2 GLC5        0.0000 
     16 CA          1.4340  -13.7060   16.5190 C.3       6 GLL5        0.0000 
     17 CA          2.9170  -12.5950   20.4790 C.3       4 GLP5        0.0000 
     18 CA          0.8165   -9.8245   14.9660 C.3       2 GLC5        0.0000 
     19 CA          0.8870  -11.4190   15.6580 C.3       6 GLL5        0.0000 
     20 CA          0.7460   -8.2300   14.2740 C.3       4 GLP5        0.0000 
     21 CA          2.8300  -11.8680   15.5105 C.3       2 GLC5        0.0000 
     22 CA          4.7730  -12.3170   15.3630 C.3       4 GLP5        0.0000 
     23 CA          1.2672  -11.8782   18.6362 C.3       2 GLC5        0.0000 
     24 CA          0.8320  -12.3490   16.8690 C.3       6 GLL5        0.0000 
     25 CA          2.4280  -11.3250   20.1710 C.3       4 GLP5        0.0000 
     26 CA          2.8785  -12.9087   16.6810 C.3       2 GLC5        0.0000 
     27 CA          4.6240  -12.7900   16.6680 C.3       4 GLP5        0.0000 
@<TRIPOS>BOND
@<TRIPOS>SUBSTRUCTURE
     1 SEC2        4 GROUP        1 X    SEC  0     ROOT SEC X 2
     2 GLC5        1 GROUP        1 X    GLC  0     **** GLC X 6
     3 SEP2        6 GROUP        1 Y    SEP  0     ROOT SEP Y 9
     4 GLP5        3 GROUP        1 Y    GLP  0     **** GLP Y 13
     5 SEL2        5 GROUP        1 Z    SEL  0     ROOT SEL Z 16
     6 GLL5        2 GROUP        1 Z    GLL  0     **** GLL Z 20
@<TRIPOS>SET

