#    Name: 3ecn_IBM_1_ligand
#    Modification time : Tue Mar 25 01:28:26 2014

@<TRIPOS>MOLECULE
3ecn_IBM_1_ligand
   30    31     1     0     0
SMALL
NO_CHARGES


@<TRIPOS>ATOM
      1 N9         -1.3710  -10.2650   19.1130 N.pl3     1 IBM3        0.0000 
      2 C8         -1.6880   -9.5450   20.2390 C.2       1 IBM3        0.0000 
      3 N7         -1.5960  -10.2340   21.3490 N.2       1 IBM3        0.0000 
      4 C5         -1.1910  -11.4920   20.9250 C.2       1 IBM3        0.0000 
      5 C4         -1.0490  -11.5280   19.5530 C.2       1 IBM3        0.0000 
      6 N3         -0.6760  -12.5810   18.7920 N.am      1 IBM3        0.0000 
      7 C2         -0.4000  -13.7210   19.4950 C.2       1 IBM3        0.0000 
      8 N1         -0.5190  -13.7800   20.8890 N.am      1 IBM3        0.0000 
      9 C6         -0.9150  -12.6740   21.6040 C.2       1 IBM3        0.0000 
     10 O6         -1.0170  -12.7230   22.8260 O.2       1 IBM3        0.0000 
     11 O2         -0.0400  -14.7230   18.8870 O.2       1 IBM3        0.0000 
     12 C10        -0.2280  -15.0230   21.5860 C.3       1 IBM3        0.0000 
     13 C11        -0.6190  -12.5140   17.3340 C.3       1 IBM3        0.0000 
     14 C12         0.8320  -12.3490   16.8690 C.3       1 IBM3        0.0000 
     15 C13         1.4340  -13.7060   16.5190 C.3       1 IBM3        0.0000 
     16 C14         0.8870  -11.4190   15.6580 C.3       1 IBM3        0.0000 
     17 H          -1.3733   -9.9591   18.2249 H         1 IBM3        0.0000 
     18 H          -1.9612   -8.5811   20.1813 H         1 IBM3        0.0000 
     19 H          -1.1955  -11.6648   16.9576 H         1 IBM3        0.0000 
     20 H          -1.0189  -13.4264   16.8835 H         1 IBM3        0.0000 
     21 H           1.4023  -11.9090   17.6698 H         1 IBM3        0.0000 
     22 H           0.7152  -15.3202   21.4373 H         1 IBM3        0.0000 
     23 H          -0.3547  -14.9333   22.5739 H         1 IBM3        0.0000 
     24 H          -0.8215  -15.7677   21.2808 H         1 IBM3        0.0000 
     25 H           2.3817  -13.6235   16.2108 H         1 IBM3        0.0000 
     26 H           1.4339  -14.3259   17.3037 H         1 IBM3        0.0000 
     27 H           0.9261  -14.1599   15.7869 H         1 IBM3        0.0000 
     28 H           1.8227  -11.2934   15.3284 H         1 IBM3        0.0000 
     29 H           0.3516  -11.7747   14.8919 H         1 IBM3        0.0000 
     30 H           0.5268  -10.5107   15.8706 H         1 IBM3        0.0000 
@<TRIPOS>BOND
     1    2    1 1    
     2    5    1 1    
     3   17    1 1    
     4    3    2 2    
     5   18    2 1    
     6    4    3 1    
     7    5    4 2    
     8    9    4 1    
     9    6    5 1    
    10    7    6 am   
    11   13    6 1    
    12    8    7 am   
    13   11    7 2    
    14    9    8 am   
    15   12    8 1    
    16   10    9 2    
    17   22   12 1    
    18   23   12 1    
    19   24   12 1    
    20   14   13 1    
    21   19   13 1    
    22   20   13 1    
    23   15   14 1    
    24   16   14 1    
    25   21   14 1    
    26   25   15 1    
    27   26   15 1    
    28   27   15 1    
    29   28   16 1    
    30   29   16 1    
    31   30   16 1    
@<TRIPOS>SUBSTRUCTURE
     1 IBM3        1 GROUP   
@<TRIPOS>SET

