#    Name: 3d14_AK1_1_INTS_M
#    Modification time : Mon Mar 24 22:32:50 2014

@<TRIPOS>MOLECULE
3d14_AK1_1_INTS_M
   98     0     9     0     0
SMALL
NO_CHARGES


@<TRIPOS>ATOM
      1 CA         -8.2710   29.2915   75.9210 C.3       3 GLC5        0.0000 
      2 CA         -9.0590   27.5570   76.6280 C.3       9 GLL5        0.0000 
      3 CA         -7.4830   31.0260   75.2140 C.3       6 GLP5        0.0000 
      4 CA         -7.9345   27.0605   75.3130 C.3       3 GLC5        0.0000 
      5 CA         -6.8100   26.5640   73.9980 C.3       6 GLP5        0.0000 
      6 CA        -11.2420   27.2445   76.7015 C.3       3 GLC5        0.0000 
      7 CA        -13.4250   26.9320   76.7750 C.3       6 GLP5        0.0000 
      8 CA         -7.7185   29.8100   76.9430 C.3       3 GLC5        0.0000 
      9 CA         -7.9540   28.5940   78.6720 C.3       9 GLL5        0.0000 
     10 CA         -7.8470   30.4785   78.4910 C.3       3 GLC5        0.0000 
     11 CA         -7.7400   32.3630   78.3100 C.3       6 GLP5        0.0000 
     12 CA         -5.6600   26.9675   80.4330 C.3       3 GLC5        0.0000 
     13 CA         -6.6750   28.0640   79.3300 C.3       9 GLL5        0.0000 
     14 CA         -4.6450   25.8710   81.5360 C.3       6 GLP5        0.0000 
     15 CA         -6.4385   31.2005   78.9565 C.3       3 GLC5        0.0000 
     16 CA         -5.1370   30.0380   79.6030 C.3       9 GLL5        0.0000 
     17 CA         -2.6925   29.7930   77.1380 C.3       3 GLC5        0.0000 
     18 CA         -4.0610   30.9590   77.5860 C.3       9 GLL5        0.0000 
     19 CA         -1.3240   28.6270   76.6900 C.3       6 GLP5        0.0000 
     20 CA         -5.7720   30.9925   76.4000 C.3       3 GLC5        0.0000 
     21 CA         -2.7950   31.8195   76.3210 C.3       3 GLC5        0.0000 
     22 CA         -1.5290   32.6800   75.0560 C.3       6 GLP5        0.0000 
     23 CA         -4.4380   33.0635   77.5275 C.3       3 GLC5        0.0000 
     24 CA         -4.8150   35.1680   77.4690 C.3       6 GLP5        0.0000 
     25 CA         -5.9005   31.6610   77.9480 C.3       3 GLC5        0.0000 
     26 CA        -13.9845   18.1235   75.3540 C.3       3 GLC5        0.0000 
     27 CA        -14.6250   18.7030   76.8700 C.3       9 GLL5        0.0000 
     28 CA        -13.3440   17.5440   73.8380 C.3       6 GLP5        0.0000 
     29 CA         -8.2425   24.3755   79.1435 C.3       3 GLC5        0.0000 
     30 CA         -9.3020   26.1840   78.5840 C.3       9 GLL5        0.0000 
     31 CA         -7.1830   22.5670   79.7030 C.3       6 GLP5        0.0000 
     32 CA         -7.4325   26.1645   77.3595 C.3       3 GLC5        0.0000 
     33 CA         -5.5630   26.1450   76.1350 C.3       6 GLP5        0.0000 
     34 CA        -11.3710   26.5755   78.4490 C.3       3 GLC5        0.0000 
     35 CA        -13.4400   26.9670   78.3140 C.3       6 GLP5        0.0000 
     36 N          -3.1380   33.0315   77.5075 N.am      2 SEC2        0.0000 
     37 N          -3.4780   31.8800   78.5410 N.am      8 SEL2        0.0000 
     38 N          -2.7980   34.1830   76.4740 N.am      5 SEP2        0.0000 
     39 CA         -6.2610   32.2075   82.8960 C.3       3 GLC5        0.0000 
     40 CA         -4.6210   31.2090   82.0520 C.3       9 GLL5        0.0000 
     41 CA         -7.9010   33.2060   83.7400 C.3       6 GLP5        0.0000 
     42 CA        -12.2880   16.3095   78.7185 C.3       3 GLC5        0.0000 
     43 CA        -13.5090   17.3650   78.1360 C.3       9 GLL5        0.0000 
     44 CA        -11.0670   15.2540   79.3010 C.3       6 GLP5        0.0000 
     45 CA        -14.1320   16.0380   79.0090 C.3       3 GLC5        0.0000 
     46 CA        -14.7550   14.7110   79.8820 C.3       6 GLP5        0.0000 
     47 CA        -12.8530   17.0980   76.3470 C.3       3 GLC5        0.0000 
     48 CA        -12.1970   16.8310   74.5580 C.3       6 GLP5        0.0000 
     49 CA        -16.3360   19.1545   80.3815 C.3       3 GLC5        0.0000 
     50 CA        -15.3390   18.2210   78.8320 C.3       9 GLL5        0.0000 
     51 CA        -17.3330   20.0880   81.9310 C.3       6 GLP5        0.0000 
     52 CA         -9.9945   21.9975   80.4230 C.3       3 GLC5        0.0000 
     53 CA        -12.1250   21.7590   79.8050 C.3       9 GLL5        0.0000 
     54 CA         -7.8640   22.2360   81.0410 C.3       6 GLP5        0.0000 
     55 O         -12.1935   22.3895   76.3000 O.2       1 ALC1        0.0000 
     56 O         -11.7350   22.6240   77.5930 O.2       7 ALL1        0.0000 
     57 O         -12.6520   22.1550   75.0070 O.2       4 ALP1        0.0000 
     58 O         -12.0250   23.4580   76.0875 O.2       1 ALC1        0.0000 
     59 O         -12.3150   24.2920   74.5820 O.2       4 ALP1        0.0000 
     60 O         -11.5010   24.4320   75.8125 O.2       1 ALC1        0.0000 
     61 O         -10.6870   24.5720   77.0430 O.2       7 ALL1        0.0000 
     62 N          -9.6080   23.5710   80.3505 N.am      2 SEC2        0.0000 
     63 N         -10.5410   23.7650   79.1230 N.am      8 SEL2        0.0000 
     64 N          -8.6750   23.3770   81.5780 N.am      5 SEP2        0.0000 
     65 CA        -15.4405   16.6232   78.8085 C.3       3 GLC5        0.0000 
     66 CA        -14.2610   18.4460   78.1120 C.3       9 GLL5        0.0000 
     67 CA        -16.0810   14.9130   79.1450 C.3       6 GLP5        0.0000 
     68 CA        -12.3780   18.9258   76.8923 C.3       3 GLC5        0.0000 
     69 CA        -10.8740   18.8230   75.3850 C.3       6 GLP5        0.0000 
     70 CA        -11.7400   19.9805   76.7608 C.3       3 GLC5        0.0000 
     71 CA        -12.9550   20.5970   77.8590 C.3       9 GLL5        0.0000 
     72 CA        -14.2730   21.6120   77.1338 C.3       3 GLC5        0.0000 
     73 CA        -15.9400   22.0860   76.1310 C.3       6 GLP5        0.0000 
     74 CA        -11.7365   19.5547   81.6893 C.3       3 GLC5        0.0000 
     75 CA        -13.3610   19.7040   80.0680 C.3       9 GLL5        0.0000 
     76 CA        -10.4560   18.8690   83.0310 C.3       6 GLP5        0.0000 
     77 CA         -9.7441   29.3159   77.2922 C.3       3 GLC5        0.0000 
     78 CA         -8.7380   27.5020   77.9380 C.3       9 GLL5        0.0000 
     79 CA        -11.0620   30.5700   76.6070 C.3       6 GLP5        0.0000 
     80 CA         -6.5367   27.1005   77.4762 C.3       3 GLC5        0.0000 
     81 CA         -3.8693   28.6860   79.9952 C.3       3 GLC5        0.0000 
     82 CA         -2.9080   26.8640   79.9960 C.3       6 GLP5        0.0000 
     83 CA         -1.7505   31.3055   80.0938 C.3       3 GLC5        0.0000 
     84 CA         -3.6990   31.8790   79.8570 C.3       9 GLL5        0.0000 
     85 CA         -0.0540   30.3200   79.9220 C.3       6 GLP5        0.0000 
     86 CA         -4.1310   33.7295   78.8672 C.3       3 GLC5        0.0000 
     87 CA         -3.8865   34.5198   81.8427 C.3       3 GLC5        0.0000 
     88 CA         -3.1950   32.7030   80.6740 C.3       9 GLL5        0.0000 
     89 CA         -4.3870   36.4350   82.4100 C.3       6 GLP5        0.0000 
     90 CA         -2.4149   30.8629   81.9295 C.3       3 GLC5        0.0000 
     91 CA         -3.5770   32.5060   81.8770 C.3       9 GLL5        0.0000 
     92 CA         -0.7550   29.9260   82.3110 C.3       6 GLP5        0.0000 
     93 CA        -16.1480   17.7119   76.9013 C.3       3 GLC5        0.0000 
     94 CA        -17.4050   17.0260   75.6410 C.3       6 GLP5        0.0000 
     95 CA        -14.9565   20.5894   77.1100 C.3       3 GLC5        0.0000 
     96 CA         -5.8504   32.4694   80.9721 C.3       3 GLC5        0.0000 
     97 CA         -4.5240   30.9780   80.3860 C.3       9 GLL5        0.0000 
     98 CA         -7.5160   33.3260   80.5690 C.3       6 GLP5        0.0000 
@<TRIPOS>BOND
@<TRIPOS>SUBSTRUCTURE
     1 ALC1       55 GROUP        1 X    ALC  0     ROOT ALC X 1
     2 SEC2       36 GROUP        1 X    SEC  0     **** SEC X 2
     3 GLC5        1 GROUP        1 X    GLC  0     **** GLC X 6
     4 ALP1       57 GROUP        1 Y    ALP  0     ROOT ALP Y 8
     5 SEP2       38 GROUP        1 Y    SEP  0     **** SEP Y 9
     6 GLP5        3 GROUP        1 Y    GLP  0     **** GLP Y 13
     7 ALL1       56 GROUP        1 Z    ALL  0     ROOT ALL Z 15
     8 SEL2       37 GROUP        1 Z    SEL  0     **** SEL Z 16
     9 GLL5        2 GROUP        1 Z    GLL  0     **** GLL Z 20
@<TRIPOS>SET

