#    Name: 3d14_AK1_1_ligand
#    Modification time : Mon Mar 24 22:32:50 2014

@<TRIPOS>MOLECULE
3d14_AK1_1_ligand
   46    49     1     0     0
SMALL
NO_CHARGES


@<TRIPOS>ATOM
      1 C31        -9.0590   27.5570   76.6280 C.2       1 AK11        0.0000 
      2 C27        -8.7380   27.5020   77.9380 C.2       1 AK11        0.0000 
      3 C23       -14.2610   18.4460   78.1120 C.3       1 AK11        0.0000 
      4 C17       -12.9550   20.5970   77.8590 C.ar      1 AK11        0.0000 
      5 C20       -12.6730   20.7770   80.6270 C.ar      1 AK11        0.0000 
      6 C15       -12.2570   21.6790   78.4140 C.ar      1 AK11        0.0000 
      7 C12        -7.9540   28.5940   78.6720 C.3       1 AK11        0.0000 
      8 C14       -10.9700   23.6590   77.9790 C.2       1 AK11        0.0000 
      9 C11        -6.6750   28.0640   79.3300 C.3       1 AK11        0.0000 
     10 C9         -5.1370   30.0380   79.6030 C.ar      1 AK11        0.0000 
     11 C7         -4.0610   30.9590   77.5860 C.ar      1 AK11        0.0000 
     12 C4         -4.5240   30.9780   80.3860 C.ar      1 AK11        0.0000 
     13 C3         -3.6990   31.8790   79.8570 C.ar      1 AK11        0.0000 
     14 C2         -3.1950   32.7030   80.6740 C.2       1 AK11        0.0000 
     15 C1         -3.5770   32.5060   81.8770 C.2       1 AK11        0.0000 
     16 F26       -14.6250   18.7030   76.8700 F         1 AK11        0.0000 
     17 N30        -9.7250   26.5360   76.2380 N.2       1 AK11        0.0000 
     18 C29        -9.9610   25.6870   77.2360 C.2       1 AK11        0.0000 
     19 S28        -9.3020   26.1840   78.5840 S.3       1 AK11        0.0000 
     20 N6         -3.4780   31.8800   78.5410 N.ar      1 AK11        0.0000 
     21 N10        -5.9800   29.1240   80.0990 N.pl3     1 AK11        0.0000 
     22 N8         -4.9350   30.0150   78.2750 N.ar      1 AK11        0.0000 
     23 S5         -4.6210   31.2090   82.0520 S.3       1 AK11        0.0000 
     24 F24       -13.5090   17.3650   78.1360 F         1 AK11        0.0000 
     25 F25       -15.3390   18.2210   78.8320 F         1 AK11        0.0000 
     26 C18       -13.5030   19.6110   78.6870 C.ar      1 AK11        0.0000 
     27 C19       -13.3610   19.7040   80.0680 C.ar      1 AK11        0.0000 
     28 C21       -12.1250   21.7590   79.8050 C.ar      1 AK11        0.0000 
     29 N22       -11.7350   22.6240   77.5930 N.am      1 AK11        0.0000 
     30 N13       -10.6870   24.5720   77.0430 N.am      1 AK11        0.0000 
     31 O16       -10.5410   23.7650   79.1230 O.2       1 AK11        0.0000 
     32 H          -8.7858   28.3354   76.0505 H         1 AK11        0.0000 
     33 H         -13.0639   20.5289   76.8401 H         1 AK11        0.0000 
     34 H         -12.5689   20.8454   81.6475 H         1 AK11        0.0000 
     35 H          -8.5945   29.0375   79.4428 H         1 AK11        0.0000 
     36 H          -7.6882   29.3836   77.9600 H         1 AK11        0.0000 
     37 H          -6.0196   27.6715   78.5437 H         1 AK11        0.0000 
     38 H          -6.9458   27.2305   79.9886 H         1 AK11        0.0000 
     39 H          -3.9040   30.9642   76.6640 H         1 AK11        0.0000 
     40 H          -2.5493   33.4503   80.4064 H         1 AK11        0.0000 
     41 H          -3.3996   32.9409   82.7278 H         1 AK11        0.0000 
     42 H          -6.2096   29.1114   81.1424 H         1 AK11        0.0000 
     43 H         -13.7645   18.9797   80.6761 H         1 AK11        0.0000 
     44 H         -11.6171   22.5529   80.2222 H         1 AK11        0.0000 
     45 H         -11.9560   22.5324   76.5395 H         1 AK11        0.0000 
     46 H         -11.0734   24.4013   76.0469 H         1 AK11        0.0000 
@<TRIPOS>BOND
     1    2    1 2    
     2   17    1 1    
     3   32    1 1    
     4    7    2 1    
     5   19    2 1    
     6   16    3 1    
     7   24    3 1    
     8   25    3 1    
     9   26    3 1    
    10    6    4 ar   
    11   26    4 ar   
    12   33    4 1    
    13   27    5 ar   
    14   28    5 ar   
    15   34    5 1    
    16   28    6 ar   
    17   29    6 1    
    18    9    7 1    
    19   35    7 1    
    20   36    7 1    
    21   29    8 am   
    22   30    8 am   
    23   31    8 2    
    24   21    9 1    
    25   37    9 1    
    26   38    9 1    
    27   12   10 ar   
    28   21   10 1    
    29   22   10 ar   
    30   20   11 ar   
    31   22   11 ar   
    32   39   11 1    
    33   13   12 ar   
    34   23   12 1    
    35   14   13 1    
    36   20   13 ar   
    37   15   14 2    
    38   40   14 1    
    39   23   15 1    
    40   41   15 1    
    41   18   17 2    
    42   19   18 1    
    43   30   18 1    
    44   42   21 1    
    45   27   26 ar   
    46   43   27 1    
    47   44   28 1    
    48   45   29 1    
    49   46   30 1    
@<TRIPOS>SUBSTRUCTURE
     1 AK11        1 GROUP   
@<TRIPOS>SET

