#    Name: 3dcv_55E_1_INTS_M
#    Modification time : Mon Mar 24 23:07:16 2014

@<TRIPOS>MOLECULE
3dcv_55E_1_INTS_M
   44     0     9     0     0
SMALL
NO_CHARGES


@<TRIPOS>ATOM
      1 N          15.5345   32.3945   -1.1675 N.am      2 SEC2        0.0000 
      2 N          15.6870   33.5600   -0.3660 N.am      8 SEL2        0.0000 
      3 N          15.3820   31.2290   -1.9690 N.am      5 SEP2        0.0000 
      4 CA         23.2400   40.2850    0.0605 C.3       3 GLC5        0.0000 
      5 CA         21.5540   39.4460    1.0830 C.3       9 GLL5        0.0000 
      6 CA         24.9260   41.1240   -0.9620 C.3       6 GLP5        0.0000 
      7 CA         22.0390   41.4170    1.9420 C.3       3 GLC5        0.0000 
      8 CA         22.5240   43.3880    2.8010 C.3       6 GLP5        0.0000 
      9 O          21.7090   39.7390   -3.0010 O.2       1 ALC1        0.0000 
     10 O          21.5760   39.5480   -1.7550 O.2       7 ALL1        0.0000 
     11 O          21.8420   39.9300   -4.2470 O.2       4 ALP1        0.0000 
     12 CA         18.8805   39.3150   -3.1415 C.3       3 GLC5        0.0000 
     13 CA         19.8770   37.9000   -1.9370 C.3       9 GLL5        0.0000 
     14 CA         17.8840   40.7300   -4.3460 C.3       6 GLP5        0.0000 
     15 CA         17.2960   38.3880   -1.4835 C.3       3 GLC5        0.0000 
     16 CA         18.9910   37.0130   -1.3450 C.3       9 GLL5        0.0000 
     17 CA         15.6010   39.7630   -1.6220 C.3       6 GLP5        0.0000 
     18 CA         18.9115   34.2545    1.6085 C.3       3 GLC5        0.0000 
     19 CA         17.7250   36.0130    2.0040 C.3       9 GLL5        0.0000 
     20 CA         20.0980   32.4960    1.2130 C.3       6 GLP5        0.0000 
     21 CA         16.6190   37.2620    1.5515 C.3       3 GLC5        0.0000 
     22 CA         15.5130   38.5110    1.0990 C.3       6 GLP5        0.0000 
     23 CA         19.2450   33.9650    6.5210 C.3       3 GLC5        0.0000 
     24 CA         17.2890   34.9680    6.2880 C.3       9 GLL5        0.0000 
     25 CA         21.2010   32.9620    6.7540 C.3       6 GLP5        0.0000 
     26 CA         13.3360   36.6275    6.3905 C.3       3 GLC5        0.0000 
     27 CA         14.9980   35.5670    5.8570 C.3       9 GLL5        0.0000 
     28 CA         11.6740   37.6880    6.9240 C.3       6 GLP5        0.0000 
     29 CA         20.6638   35.6660    0.5560 C.3       3 GLC5        0.0000 
     30 CA         18.9470   36.9030    0.0370 C.3       9 GLL5        0.0000 
     31 CA         21.9730   34.0300    0.6800 C.3       6 GLP5        0.0000 
     32 CA         17.4337   37.9065    0.7655 C.3       3 GLC5        0.0000 
     33 CA         22.6780   38.1025    1.4790 C.3       3 GLC5        0.0000 
     34 CA         20.6520   38.5900    0.2310 C.3       9 GLL5        0.0000 
     35 CA         24.2530   37.1870    2.3010 C.3       6 GLP5        0.0000 
     36 CA         21.9595   37.5970   -1.3152 C.3       3 GLC5        0.0000 
     37 CA         23.2380   36.5560   -2.1710 C.3       6 GLP5        0.0000 
     38 CA         19.6552   40.0969    0.4525 C.3       3 GLC5        0.0000 
     39 CA         18.4300   41.3980    0.0990 C.3       6 GLP5        0.0000 
     40 CA         19.3618   39.8455   -0.7223 C.3       3 GLC5        0.0000 
     41 CA         20.7100   38.6860   -1.1500 C.3       9 GLL5        0.0000 
     42 CA         21.3360   37.0062   -1.9060 C.3       3 GLC5        0.0000 
     43 CA         19.3995   36.2147   -2.9155 C.3       3 GLC5        0.0000 
     44 CA         19.3650   34.9730   -4.1900 C.3       6 GLP5        0.0000 
@<TRIPOS>BOND
@<TRIPOS>SUBSTRUCTURE
     1 ALC1        9 GROUP        1 X    ALC  0     ROOT ALC X 1
     2 SEC2        1 GROUP        1 X    SEC  0     **** SEC X 2
     3 GLC5        4 GROUP        1 X    GLC  0     **** GLC X 6
     4 ALP1       11 GROUP        1 Y    ALP  0     ROOT ALP Y 8
     5 SEP2        3 GROUP        1 Y    SEP  0     **** SEP Y 9
     6 GLP5        6 GROUP        1 Y    GLP  0     **** GLP Y 13
     7 ALL1       10 GROUP        1 Z    ALL  0     ROOT ALL Z 15
     8 SEL2        2 GROUP        1 Z    SEL  0     **** SEL Z 16
     9 GLL5        5 GROUP        1 Z    GLL  0     **** GLL Z 20
@<TRIPOS>SET

