#    Name: 3dcv_55E_1_ligand
#    Modification time : Mon Mar 24 23:07:16 2014

@<TRIPOS>MOLECULE
3dcv_55E_1_ligand
   35    37     1     0     0
SMALL
NO_CHARGES


@<TRIPOS>ATOM
      1 O3         15.6870   33.5600   -0.3660 O.2       1 55E500      0.0000 
      2 C2         16.3220   34.3240    0.3920 C.2       1 55E500      0.0000 
      3 N4         17.2490   35.1470   -0.1400 N.2       1 55E500      0.0000 
      4 C5         17.9630   35.9790    0.6450 C.2       1 55E500      0.0000 
      5 C6         18.9470   36.9030    0.0370 C.ar      1 55E500      0.0000 
      6 C21        19.7620   37.7010    0.8270 C.ar      1 55E500      0.0000 
      7 C19        20.6520   38.5900    0.2310 C.ar      1 55E500      0.0000 
      8 C20        21.5540   39.4460    1.0830 C.3       1 55E500      0.0000 
      9 C17        20.7100   38.6860   -1.1500 C.ar      1 55E500      0.0000 
     10 O18        21.5760   39.5480   -1.7550 O.3       1 55E500      0.0000 
     11 C16        19.8770   37.9000   -1.9370 C.ar      1 55E500      0.0000 
     12 C15        18.9910   37.0130   -1.3450 C.ar      1 55E500      0.0000 
     13 C7         17.7250   36.0130    2.0040 C.3       1 55E500      0.0000 
     14 C8         16.7730   35.1560    2.5420 C.2       1 55E500      0.0000 
     15 N1         16.0820   34.3260    1.7250 N.2       1 55E500      0.0000 
     16 C9         16.5200   35.1890    4.0120 C.ar      1 55E500      0.0000 
     17 C14        17.5440   34.9210    4.9160 C.ar      1 55E500      0.0000 
     18 C13        17.2890   34.9680    6.2880 C.ar      1 55E500      0.0000 
     19 C12        16.0190   35.2930    6.7630 C.ar      1 55E500      0.0000 
     20 C11        14.9980   35.5670    5.8570 C.ar      1 55E500      0.0000 
     21 C10        15.2510   35.5200    4.4860 C.ar      1 55E500      0.0000 
     22 H          19.7101   37.6373    1.8518 H         1 55E500      0.0000 
     23 H          19.9190   37.9777   -2.9638 H         1 55E500      0.0000 
     24 H          18.3688   36.4388   -1.9279 H         1 55E500      0.0000 
     25 H          17.4730   37.0961    2.3190 H         1 55E500      0.0000 
     26 H          18.7225   35.8647    2.5686 H         1 55E500      0.0000 
     27 H          18.4841   34.6894    4.5771 H         1 55E500      0.0000 
     28 H          18.0470   34.7604    6.9551 H         1 55E500      0.0000 
     29 H          15.8396   35.3296    7.7702 H         1 55E500      0.0000 
     30 H          14.0580   35.8039    6.1969 H         1 55E500      0.0000 
     31 H          14.4948   35.7314    3.8191 H         1 55E500      0.0000 
     32 H          22.1587   38.8927    1.6558 H         1 55E500      0.0000 
     33 H          22.1376   40.0382    0.5273 H         1 55E500      0.0000 
     34 H          21.0324   40.0399    1.6956 H         1 55E500      0.0000 
     35 H          21.4101   39.4361   -2.7348 H         1 55E500      0.0000 
@<TRIPOS>BOND
     1    2    1 2    
     2    3    2 1    
     3   15    2 1    
     4    4    3 2    
     5    5    4 1    
     6   13    4 1    
     7    6    5 ar   
     8   12    5 ar   
     9    7    6 ar   
    10   22    6 1    
    11    8    7 1    
    12    9    7 ar   
    13   32    8 1    
    14   33    8 1    
    15   34    8 1    
    16   10    9 1    
    17   11    9 ar   
    18   35   10 1    
    19   12   11 ar   
    20   23   11 1    
    21   24   12 1    
    22   14   13 1    
    23   25   13 1    
    24   26   13 1    
    25   15   14 2    
    26   16   14 1    
    27   17   16 ar   
    28   21   16 ar   
    29   18   17 ar   
    30   27   17 1    
    31   19   18 ar   
    32   28   18 1    
    33   20   19 ar   
    34   29   19 1    
    35   21   20 ar   
    36   30   20 1    
    37   31   21 1    
@<TRIPOS>SUBSTRUCTURE
     1 55E500      1 GROUP   
@<TRIPOS>SET

