#    Name: 3uj8_SFG_1_INTS_M
#    Modification time : Mon Mar 24 22:36:37 2014

@<TRIPOS>MOLECULE
3uj8_SFG_1_INTS_M
   83     0     9     0     0
SMALL
NO_CHARGES


@<TRIPOS>ATOM
      1 O          22.3580   21.4580   16.5335 O.2       1 ALC1        0.0000 
      2 O          20.9830   21.7010   16.5280 O.2       7 ALL1        0.0000 
      3 O          23.7330   21.2150   16.5390 O.2       4 ALP1        0.0000 
      4 O          20.4010   21.4080   17.8890 O.2       1 ALC1        0.0000 
      5 O          19.8190   21.1150   19.2500 O.2       4 ALP1        0.0000 
      6 N          17.4070   21.1480   16.2540 N.am      2 SEC2        0.0000 
      7 N          18.4860   21.5240   15.8200 N.am      8 SEL2        0.0000 
      8 N          16.3280   20.7720   16.6880 N.am      5 SEP2        0.0000 
      9 N          17.9950   19.5070   13.1525 N.am      2 SEC2        0.0000 
     10 N          18.8450   20.3410   14.0070 N.am      8 SEL2        0.0000 
     11 N          17.1450   18.6730   12.2980 N.am      5 SEP2        0.0000 
     12 CA         20.0510   17.8690   15.1100 C.3       3 GLC5        0.0000 
     13 CA         20.5340   18.6360   16.8870 C.3       9 GLL5        0.0000 
     14 CA         19.5680   17.1020   13.3330 C.3       6 GLP5        0.0000 
     15 CA         18.4860   19.0075   16.9225 C.3       3 GLC5        0.0000 
     16 CA         16.4380   19.3790   16.9580 C.3       6 GLP5        0.0000 
     17 CA         20.9800   16.7630   15.2965 C.3       3 GLC5        0.0000 
     18 CA         21.1440   17.3370   17.3210 C.3       9 GLL5        0.0000 
     19 CA         20.8160   16.1890   13.2720 C.3       6 GLP5        0.0000 
     20 CA         22.5200   18.2760   19.8520 C.3       3 GLC5        0.0000 
     21 CA         22.4420   17.5280   18.0880 C.3       9 GLL5        0.0000 
     22 CA         22.5980   19.0240   21.6160 C.3       6 GLP5        0.0000 
     23 CA         23.0135   16.1720   19.7155 C.3       3 GLC5        0.0000 
     24 CA         23.5850   14.8160   21.3430 C.3       6 GLP5        0.0000 
     25 CA         24.7755   19.3445   17.5675 C.3       3 GLC5        0.0000 
     26 CA         23.7280   17.6130   17.4340 C.3       9 GLL5        0.0000 
     27 CA         25.8230   21.0760   17.7010 C.3       6 GLP5        0.0000 
     28 CA         23.5950   18.8050   19.1370 C.3       3 GLC5        0.0000 
     29 CA         23.4620   19.9970   20.8400 C.3       6 GLP5        0.0000 
     30 CA         23.0865   14.9170   16.9690 C.3       3 GLC5        0.0000 
     31 CA         24.1570   16.4200   16.6430 C.3       9 GLL5        0.0000 
     32 CA         22.0160   13.4140   17.2950 C.3       6 GLP5        0.0000 
     33 CA         24.5015   15.5680   14.6360 C.3       3 GLC5        0.0000 
     34 CA         24.8460   14.7160   12.6290 C.3       6 GLP5        0.0000 
     35 O          25.8950   16.9445   14.9410 O.2       1 ALC1        0.0000 
     36 O          24.2210   16.7660   15.2970 O.2       7 ALL1        0.0000 
     37 O          27.5690   17.1230   14.5850 O.2       4 ALP1        0.0000 
     38 O          25.1245   17.7135   15.0715 O.2       1 ALC1        0.0000 
     39 O          26.0280   18.6610   14.8460 O.2       4 ALP1        0.0000 
     40 CA         24.3465   14.4115   17.3925 C.3       3 GLC5        0.0000 
     41 CA         25.4570   15.9950   17.2490 C.3       9 GLL5        0.0000 
     42 CA         23.2360   12.8280   17.5360 C.3       6 GLP5        0.0000 
     43 O          26.9820   16.3135   15.4690 O.2       1 ALC1        0.0000 
     44 O          26.3950   15.5040   16.3530 O.2       7 ALL1        0.0000 
     45 CA         25.8730   19.1510   17.8470 C.3       3 GLC5        0.0000 
     46 CA         25.9230   17.2260   17.9930 C.3       9 GLL5        0.0000 
     47 CA         30.4475   16.8370   19.2395 C.3       3 GLC5        0.0000 
     48 CA         29.8210   17.7370   20.8260 C.3       9 GLL5        0.0000 
     49 CA         31.0740   15.9370   17.6530 C.3       6 GLP5        0.0000 
     50 CA         31.9490   18.0710   20.1885 C.3       3 GLC5        0.0000 
     51 CA         34.0770   18.4050   19.5510 C.3       6 GLP5        0.0000 
     52 CA         30.2870   19.4725   21.6985 C.3       3 GLC5        0.0000 
     53 CA         30.7530   21.2080   22.5710 C.3       6 GLP5        0.0000 
     54 CA         28.8220   17.6230   22.8355 C.3       3 GLC5        0.0000 
     55 CA         27.8230   17.5090   24.8450 C.3       6 GLP5        0.0000 
     56 O          31.9125   17.5345   22.0535 O.2       1 ALC1        0.0000 
     57 O          30.4780   17.2560   21.9190 O.2       7 ALL1        0.0000 
     58 O          33.3470   17.8130   22.1880 O.2       4 ALP1        0.0000 
     59 N          31.6315   19.5095   20.3455 N.am      2 SEC2        0.0000 
     60 N          30.3480   18.7400   20.1010 N.am      8 SEL2        0.0000 
     61 N          32.9150   20.2790   20.5900 N.am      5 SEP2        0.0000 
     62 CA         30.8035   20.7980   18.0190 C.3       3 GLC5        0.0000 
     63 CA         29.7250   19.1920   18.9960 C.3       9 GLL5        0.0000 
     64 CA         31.8820   22.4040   17.0420 C.3       6 GLP5        0.0000 
     65 CA         29.4785   19.4160   17.0695 C.3       3 GLC5        0.0000 
     66 CA         29.2320   19.6400   15.1430 C.3       6 GLP5        0.0000 
     67 CA         30.3995   17.5645   18.3245 C.3       3 GLC5        0.0000 
     68 CA         31.9010   18.7985   19.2735 C.3       3 GLC5        0.0000 
     69 CA         30.5580   20.6165   20.2285 C.3       3 GLC5        0.0000 
     70 CA         31.3910   22.0410   21.4610 C.3       6 GLP5        0.0000 
     71 N          29.3580   18.1480   17.3225 N.am      2 SEC2        0.0000 
     72 N          28.5610   18.6870   18.5610 N.am      8 SEL2        0.0000 
     73 N          30.1550   17.6090   16.0840 N.am      5 SEP2        0.0000 
     74 CA         26.9000   19.3810   18.4775 C.3       3 GLC5        0.0000 
     75 CA         27.9770   17.6860   19.2540 C.3       9 GLL5        0.0000 
     76 CA         20.2970   18.6213   14.4607 C.3       3 GLC5        0.0000 
     77 CA         21.2850   19.4200   15.7530 C.3       9 GLL5        0.0000 
     78 CA         22.2835   19.8483   14.1308 C.3       3 GLC5        0.0000 
     79 CA         23.5410   19.5560   12.6730 C.3       6 GLP5        0.0000 
     80 CA         21.9045   15.4232   17.4997 C.3       3 GLC5        0.0000 
     81 CA         27.7470   15.8572   17.6985 C.3       3 GLC5        0.0000 
     82 CA         29.8040   15.1040   17.7760 C.3       6 GLP5        0.0000 
     83 CA         29.0457   16.2720   18.8038 C.3       3 GLC5        0.0000 
@<TRIPOS>BOND
@<TRIPOS>SUBSTRUCTURE
     1 ALC1        1 GROUP        1 X    ALC  0     ROOT ALC X 1
     2 SEC2        6 GROUP        1 X    SEC  0     **** SEC X 2
     3 GLC5       12 GROUP        1 X    GLC  0     **** GLC X 6
     4 ALP1        3 GROUP        1 Y    ALP  0     ROOT ALP Y 8
     5 SEP2        8 GROUP        1 Y    SEP  0     **** SEP Y 9
     6 GLP5       14 GROUP        1 Y    GLP  0     **** GLP Y 13
     7 ALL1        2 GROUP        1 Z    ALL  0     ROOT ALL Z 15
     8 SEL2        7 GROUP        1 Z    SEL  0     **** SEL Z 16
     9 GLL5       13 GROUP        1 Z    GLL  0     **** GLL Z 20
@<TRIPOS>SET

