#    Name: 3uj8_SFG_1_ligand
#    Modification time : Mon Mar 24 22:36:37 2014

@<TRIPOS>MOLECULE
3uj8_SFG_1_ligand
   48    50     1     0     0
SMALL
NO_CHARGES


@<TRIPOS>ATOM
      1 N          20.9830   21.7010   16.5280 N.4       1 SFG300      0.0000 
      2 CA         20.7670   20.8610   15.4240 C.3       1 SFG300      0.0000 
      3 C          19.2870   20.8970   15.0800 C.2       1 SFG300      0.0000 
      4 O          18.4860   21.5240   15.8200 O.co2     1 SFG300      0.0000 
      5 OXT        18.8450   20.3410   14.0070 O.co2     1 SFG300      0.0000 
      6 CB         21.2850   19.4200   15.7530 C.3       1 SFG300      0.0000 
      7 CG         20.5340   18.6360   16.8870 C.3       1 SFG300      0.0000 
      8 CD         21.1440   17.3370   17.3210 C.3       1 SFG300      0.0000 
      9 NE         20.1750   16.6250   18.1540 N.3       1 SFG300      0.0000 
     10 C5'        22.4420   17.5280   18.0880 C.3       1 SFG300      0.0000 
     11 C4'        23.7280   17.6130   17.4340 C.3       1 SFG300      0.0000 
     12 O4'        24.7410   17.7770   18.4800 O.3       1 SFG300      0.0000 
     13 C3'        24.1570   16.4200   16.6430 C.3       1 SFG300      0.0000 
     14 O3'        24.2210   16.7660   15.2970 O.3       1 SFG300      0.0000 
     15 C2'        25.4570   15.9950   17.2490 C.3       1 SFG300      0.0000 
     16 O2'        26.3950   15.5040   16.3530 O.3       1 SFG300      0.0000 
     17 C1'        25.9230   17.2260   17.9930 C.3       1 SFG300      0.0000 
     18 N9         26.8580   16.9680   19.1030 N.pl3     1 SFG300      0.0000 
     19 C8         26.7530   16.0740   20.0920 C.2       1 SFG300      0.0000 
     20 N7         27.8170   16.2030   20.8880 N.2       1 SFG300      0.0000 
     21 C5         28.5980   17.1940   20.4090 C.ar      1 SFG300      0.0000 
     22 C6         29.8210   17.7370   20.8260 C.ar      1 SFG300      0.0000 
     23 N6         30.4780   17.2560   21.9190 N.pl3     1 SFG300      0.0000 
     24 N1         30.3480   18.7400   20.1010 N.ar      1 SFG300      0.0000 
     25 C2         29.7250   19.1920   18.9960 C.ar      1 SFG300      0.0000 
     26 N3         28.5610   18.6870   18.5610 N.ar      1 SFG300      0.0000 
     27 C4         27.9770   17.6860   19.2540 C.ar      1 SFG300      0.0000 
     28 H          21.3250   21.2103   14.5573 H         1 SFG300      0.0000 
     29 H          22.3549   19.4889   16.0301 H         1 SFG300      0.0000 
     30 H          21.2424   18.8143   14.8270 H         1 SFG300      0.0000 
     31 H          19.4920   18.4665   16.5345 H         1 SFG300      0.0000 
     32 H          20.4454   19.3230   17.7582 H         1 SFG300      0.0000 
     33 H          21.3551   16.7399   16.4351 H         1 SFG300      0.0000 
     34 H          22.4752   16.6971   18.8860 H         1 SFG300      0.0000 
     35 H          22.2931   18.4550   18.7564 H         1 SFG300      0.0000 
     36 H          23.7792   18.4923   16.7945 H         1 SFG300      0.0000 
     37 H          23.4242   15.6381   16.8384 H         1 SFG300      0.0000 
     38 H          25.2025   15.2574   18.0367 H         1 SFG300      0.0000 
     39 H          26.3717   17.8953   17.2670 H         1 SFG300      0.0000 
     40 H          26.0276   15.4409   20.2097 H         1 SFG300      0.0000 
     41 H          30.0143   16.5301   22.4269 H         1 SFG300      0.0000 
     42 H          31.3659   17.6714   22.1168 H         1 SFG300      0.0000 
     43 H          30.1764   19.9821   18.4471 H         1 SFG300      0.0000 
     44 H          20.4601   21.4054   17.3275 H         1 SFG300      0.0000 
     45 H          21.9457   21.7196   16.7978 H         1 SFG300      0.0000 
     46 H          20.7146   22.6447   16.3347 H         1 SFG300      0.0000 
     47 H          24.9251   17.4742   15.2451 H         1 SFG300      0.0000 
     48 H          26.6410   16.2866   15.7812 H         1 SFG300      0.0000 
@<TRIPOS>BOND
     1    2    1 1    
     2   44    1 1    
     3   45    1 1    
     4   46    1 1    
     5    3    2 1    
     6    6    2 1    
     7   28    2 1    
     8    4    3 ar   
     9    5    3 ar   
    10    7    6 1    
    11   29    6 1    
    12   30    6 1    
    13    8    7 1    
    14   31    7 1    
    15   32    7 1    
    16    9    8 1    
    17   10    8 1    
    18   33    8 1    
    19   11   10 1    
    20   34   10 1    
    21   35   10 1    
    22   12   11 1    
    23   13   11 1    
    24   36   11 1    
    25   17   12 1    
    26   14   13 1    
    27   15   13 1    
    28   37   13 1    
    29   47   14 1    
    30   16   15 1    
    31   17   15 1    
    32   38   15 1    
    33   48   16 1    
    34   18   17 1    
    35   39   17 1    
    36   19   18 1    
    37   27   18 1    
    38   20   19 2    
    39   40   19 1    
    40   21   20 1    
    41   22   21 ar   
    42   27   21 ar   
    43   23   22 1    
    44   24   22 ar   
    45   41   23 1    
    46   42   23 1    
    47   25   24 ar   
    48   26   25 ar   
    49   43   25 1    
    50   27   26 ar   
@<TRIPOS>SUBSTRUCTURE
     1 SFG300      1 GROUP   
@<TRIPOS>SET

