#    Name: 3rwo_GDP_1_INTS_M
#    Modification time : Mon Apr  7 21:51:38 2014

@<TRIPOS>MOLECULE
3rwo_GDP_1_INTS_M
   68     0    15     0     0
SMALL
NO_CHARGES


@<TRIPOS>ATOM
      1 NZ          2.3280   -5.2335   58.3225 N.4       3 LYC4        0.0000 
      2 NZ          4.1860   -4.7180   58.0360 N.4      13 LYL4        0.0000 
      3 NZ          0.4700   -5.7490   58.6090 N.4       8 LYP4        0.0000 
      4 N           4.0785   -4.1335   59.2885 N.am      2 SEC2        0.0000 
      5 N           4.1860   -4.7180   58.0360 N.am     12 SEL2        0.0000 
      6 N           3.9710   -3.5490   60.5410 N.am      7 SEP2        0.0000 
      7 NZ          1.7060   -6.1975   58.8210 N.4       3 LYC4        0.0000 
      8 NZ          2.9420   -6.6460   59.0330 N.4      13 LYL4        0.0000 
      9 N           3.6900   -7.4605   60.0975 N.am      2 SEC2        0.0000 
     10 N           2.9420   -6.6460   59.0330 N.am     12 SEL2        0.0000 
     11 N           4.4380   -8.2750   61.1620 N.am      7 SEP2        0.0000 
     12 N           3.0285   -8.0845   59.0440 N.am      2 SEC2        0.0000 
     13 N           3.1150   -9.5230   59.0550 N.am      7 SEP2        0.0000 
     14 N           1.7060   -6.1975   58.8210 N.am      2 SEC2        0.0000 
     15 N           0.4700   -5.7490   58.6090 N.am      7 SEP2        0.0000 
     16 Zn          3.8130   -6.4875   55.7520 Zn        4 ZIC7        0.0000 
     17 Zn          3.9360   -6.8550   56.6750 Zn       14 ZIL7        0.0000 
     18 Zn          3.6900   -6.1200   54.8290 Zn        9 ZIP7        0.0000 
     19 N           3.8225   -8.3255   56.4405 N.am      2 SEC2        0.0000 
     20 N           3.9360   -6.8550   56.6750 N.am     12 SEL2        0.0000 
     21 N           3.7090   -9.7960   56.2060 N.am      7 SEP2        0.0000 
     22 N           4.9350   -7.5380   59.9460 N.am      2 SEC2        0.0000 
     23 N           5.4320   -6.8010   58.7300 N.am     12 SEL2        0.0000 
     24 N           6.2700  -10.0725   56.9690 N.am      2 SEC2        0.0000 
     25 N           6.5410   -8.7880   57.5980 N.am     12 SEL2        0.0000 
     26 N           5.9990  -11.3570   56.3400 N.am      7 SEP2        0.0000 
     27 N           7.8505   -9.3715   57.3355 N.am      2 SEC2        0.0000 
     28 N           9.1600   -9.9550   57.0730 N.am      7 SEP2        0.0000 
     29 CA          6.6395   -4.9785   60.5605 C.3       5 GLC5        0.0000 
     30 CA          8.1410   -6.0470   59.7940 C.3      15 GLL5        0.0000 
     31 CA          5.1380   -3.9100   61.3270 C.3      10 GLP5        0.0000 
     32 O          12.1630   -9.2640   58.3600 O.2       1 ALC1        0.0000 
     33 O          11.8260   -8.8100   59.5750 O.2      11 ALL1        0.0000 
     34 O          12.5000   -9.7180   57.1450 O.2       6 ALP1        0.0000 
     35 CA          8.8590   -8.0080   62.9510 C.3       5 GLC5        0.0000 
     36 CA         10.2840   -8.1870   61.3730 C.3      15 GLL5        0.0000 
     37 CA          7.4340   -7.8290   64.5290 C.3      10 GLP5        0.0000 
     38 N           6.8635  -11.5630   62.4710 N.am      2 SEC2        0.0000 
     39 N           8.2480  -11.1930   61.8140 N.am     12 SEL2        0.0000 
     40 N           5.4790  -11.9330   63.1280 N.am      7 SEP2        0.0000 
     41 CA          8.1710  -10.6495   64.3245 C.3       5 GLC5        0.0000 
     42 CA          9.0870  -11.2980   62.8710 C.3      15 GLL5        0.0000 
     43 CA          7.2550  -10.0010   65.7780 C.3      10 GLP5        0.0000 
     44 CA          8.3250  -13.0225   61.7175 C.3       5 GLC5        0.0000 
     45 CA          7.5630  -14.7470   60.5640 C.3      10 GLP5        0.0000 
     46 CA         10.6650  -12.8130   63.1220 C.3       5 GLC5        0.0000 
     47 CA         12.2430  -14.3280   63.3730 C.3      10 GLP5        0.0000 
     48 N           9.4155  -14.2825   63.1680 N.am      2 SEC2        0.0000 
     49 N           8.5670  -13.2380   64.0530 N.am     12 SEL2        0.0000 
     50 N          10.2640  -15.3270   62.2830 N.am      7 SEP2        0.0000 
     51 O          10.3725  -12.8610   65.8670 O.2       1 ALC1        0.0000 
     52 O          10.2330  -11.9630   64.8690 O.2      11 ALL1        0.0000 
     53 O          10.5120  -13.7590   66.8650 O.2       6 ALP1        0.0000 
     54 O          11.3830  -12.4555   66.0695 O.2       1 ALC1        0.0000 
     55 O          12.5330  -12.9480   67.2700 O.2       6 ALP1        0.0000 
     56 O          12.2595  -11.7840   66.4955 O.2       1 ALC1        0.0000 
     57 O          11.9860  -10.6200   65.7210 O.2      11 ALL1        0.0000 
     58 CA          8.9470   -9.4150   64.2655 C.3       5 GLC5        0.0000 
     59 CA          9.9240  -10.1790   62.8400 C.3      15 GLL5        0.0000 
     60 CA          7.9700   -8.6510   65.6910 C.3      10 GLP5        0.0000 
     61 CA         10.5317   -4.9292   58.6970 C.3       5 GLC5        0.0000 
     62 CA          9.5030   -6.1890   60.4800 C.3      15 GLL5        0.0000 
     63 CA         11.0260   -3.4040   57.3770 C.3      10 GLP5        0.0000 
     64 CA         11.3167  -10.0943   60.5555 C.3       5 GLC5        0.0000 
     65 CA         10.5570   -8.2100   59.8710 C.3      15 GLL5        0.0000 
     66 CA         12.2130  -11.9900   60.4890 C.3      10 GLP5        0.0000 
     67 CA         12.5282   -8.5608   61.0525 C.3       5 GLC5        0.0000 
     68 CA         14.6360   -8.9230   61.4830 C.3      10 GLP5        0.0000 
@<TRIPOS>BOND
@<TRIPOS>SUBSTRUCTURE
     1 ALC1       32 GROUP        1 X    ALC  0     ROOT ALC X 1
     2 SEC2        4 GROUP        1 X    SEC  0     **** SEC X 2
     3 LYC4        1 GROUP        1 X    LYC  0     **** LYC X 4
     4 ZIC7       16 GROUP        1 X    ZIC  0     **** ZIC X 5
     5 GLC5       29 GROUP        1 X    GLC  0     **** GLC X 6
     6 ALP1       34 GROUP        1 Y    ALP  0     ROOT ALP Y 8
     7 SEP2        6 GROUP        1 Y    SEP  0     **** SEP Y 9
     8 LYP4        3 GROUP        1 Y    LYP  0     **** LYP Y 11
     9 ZIP7       18 GROUP        1 Y    ZIP  0     **** ZIP Y 12
    10 GLP5       31 GROUP        1 Y    GLP  0     **** GLP Y 13
    11 ALL1       33 GROUP        1 Z    ALL  0     ROOT ALL Z 15
    12 SEL2        5 GROUP        1 Z    SEL  0     **** SEL Z 16
    13 LYL4        2 GROUP        1 Z    LYL  0     **** LYL Z 18
    14 ZIL7       17 GROUP        1 Z    ZIL  0     **** ZIL Z 19
    15 GLL5       30 GROUP        1 Z    GLL  0     **** GLL Z 20
@<TRIPOS>SET

