#    Name: 3rwo_GDP_1_ligand
#    Modification time : Mon Apr  7 21:51:38 2014

@<TRIPOS>MOLECULE
3rwo_GDP_1_ligand
   40    42     1     0     0
SMALL
NO_CHARGES


@<TRIPOS>ATOM
      1 PB          4.0740   -6.2210   58.0800 P.3       1 GDP4032     0.0000 
      2 O1B         4.1860   -4.7180   58.0360 O.co2     1 GDP4032     0.0000 
      3 O2B         2.9420   -6.6460   59.0330 O.co2     1 GDP4032     0.0000 
      4 O3B         3.9360   -6.8550   56.6750 O.co2     1 GDP4032     0.0000 
      5 O3A         5.4320   -6.8010   58.7300 O.3       1 GDP4032     0.0000 
      6 PA          6.7300   -7.3650   58.0170 P.3       1 GDP4032     0.0000 
      7 O1A         6.5410   -8.7880   57.5980 O.co2     1 GDP4032     0.0000 
      8 O2A         7.1890   -6.3700   56.8870 O.co2     1 GDP4032     0.0000 
      9 O5'         7.7870   -7.3280   59.2130 O.3       1 GDP4032     0.0000 
     10 C5'         8.1410   -6.0470   59.7940 C.3       1 GDP4032     0.0000 
     11 C4'         9.5030   -6.1890   60.4800 C.3       1 GDP4032     0.0000 
     12 O4'         9.3220   -7.1690   61.5420 O.3       1 GDP4032     0.0000 
     13 C3'        10.5720   -6.7200   59.5540 C.3       1 GDP4032     0.0000 
     14 O3'        11.8440   -6.1600   59.9310 O.3       1 GDP4032     0.0000 
     15 C2'        10.5570   -8.2100   59.8710 C.3       1 GDP4032     0.0000 
     16 O2'        11.8260   -8.8100   59.5750 O.3       1 GDP4032     0.0000 
     17 C1'        10.2840   -8.1870   61.3730 C.3       1 GDP4032     0.0000 
     18 N9          9.6120   -9.4670   61.7600 N.pl3     1 GDP4032     0.0000 
     19 C8          8.5730  -10.0840   61.1380 C.2       1 GDP4032     0.0000 
     20 N7          8.2480  -11.1930   61.8140 N.2       1 GDP4032     0.0000 
     21 C5          9.0870  -11.2980   62.8710 C.2       1 GDP4032     0.0000 
     22 C6          9.2470  -12.2220   63.9040 C.2       1 GDP4032     0.0000 
     23 O6          8.5670  -13.2380   64.0530 O.2       1 GDP4032     0.0000 
     24 N1         10.2330  -11.9630   64.8690 N.am      1 GDP4032     0.0000 
     25 C2         11.0440  -10.8300   64.7810 C.2       1 GDP4032     0.0000 
     26 N2         11.9860  -10.6200   65.7210 N.pl3     1 GDP4032     0.0000 
     27 N3         10.8820   -9.9580   63.7650 N.2       1 GDP4032     0.0000 
     28 C4          9.9240  -10.1790   62.8400 C.2       1 GDP4032     0.0000 
     29 H           7.4158   -5.7356   60.5417 H         1 GDP4032     0.0000 
     30 H           8.2236   -5.2747   59.0333 H         1 GDP4032     0.0000 
     31 H           9.7935   -5.2544   60.8851 H         1 GDP4032     0.0000 
     32 H          10.3004   -6.5672   58.5709 H         1 GDP4032     0.0000 
     33 H           9.7372   -8.6474   59.3871 H         1 GDP4032     0.0000 
     34 H          11.1537   -8.0321   61.8961 H         1 GDP4032     0.0000 
     35 H           8.1415   -9.7614   60.3295 H         1 GDP4032     0.0000 
     36 H          10.3576  -12.6216   65.6536 H         1 GDP4032     0.0000 
     37 H          12.5387   -9.7936   65.6132 H         1 GDP4032     0.0000 
     38 H          12.0486  -11.3092   66.4428 H         1 GDP4032     0.0000 
     39 H          12.4135   -6.9473   60.1670 H         1 GDP4032     0.0000 
     40 H          11.7704   -9.0705   58.6111 H         1 GDP4032     0.0000 
@<TRIPOS>BOND
     1    2    1 ar   
     2    3    1 ar   
     3    4    1 ar   
     4    5    1 1    
     5    6    5 1    
     6    7    6 ar   
     7    8    6 ar   
     8    9    6 1    
     9   10    9 1    
    10   11   10 1    
    11   29   10 1    
    12   30   10 1    
    13   12   11 1    
    14   13   11 1    
    15   31   11 1    
    16   17   12 1    
    17   14   13 1    
    18   15   13 1    
    19   32   13 1    
    20   39   14 1    
    21   16   15 1    
    22   17   15 1    
    23   33   15 1    
    24   40   16 1    
    25   18   17 1    
    26   34   17 1    
    27   19   18 1    
    28   28   18 1    
    29   20   19 2    
    30   35   19 1    
    31   21   20 1    
    32   22   21 1    
    33   28   21 2    
    34   23   22 2    
    35   24   22 am   
    36   25   24 1    
    37   36   24 1    
    38   26   25 1    
    39   27   25 2    
    40   37   26 1    
    41   38   26 1    
    42   28   27 1    
@<TRIPOS>SUBSTRUCTURE
     1 GDP4032     1 GROUP   
@<TRIPOS>SET

