#    Name: 3lpi_Z74_1_INTS_M
#    Modification time : Mon Mar 24 21:59:09 2014

@<TRIPOS>MOLECULE
3lpi_Z74_1_INTS_M
  111     0    12     0     0
SMALL
NO_CHARGES


@<TRIPOS>ATOM
      1 CA         26.9450   13.9940   25.9945 C.3       4 GLC5        0.0000 
      2 CA         26.8470   15.4820   24.3230 C.3      12 GLL5        0.0000 
      3 CA         27.0430   12.5060   27.6660 C.3       8 GLP5        0.0000 
      4 CA         28.2680   11.5435   18.0530 C.3       4 GLC5        0.0000 
      5 CA         26.8590   10.8750   18.9070 C.3      12 GLL5        0.0000 
      6 CA         29.6770   12.2120   17.1990 C.3       8 GLP5        0.0000 
      7 CA         27.2665    9.9240   17.5995 C.3       4 GLC5        0.0000 
      8 CA         27.6740    8.9730   16.2920 C.3       8 GLP5        0.0000 
      9 O          24.7575   10.8585   23.5710 O.2       1 ALC1        0.0000 
     10 O          23.5520   11.7160   23.4240 O.2       9 ALL1        0.0000 
     11 O          25.9630   10.0010   23.7180 O.2       5 ALP1        0.0000 
     12 N          19.2900   14.7190   24.9225 N.am      2 SEC2        0.0000 
     13 N          18.1610   13.6830   24.2780 N.am     10 SEL2        0.0000 
     14 N          20.4190   15.7550   25.5670 N.am      6 SEP2        0.0000 
     15 CA         26.1345   15.2870   21.9015 C.3       4 GLC5        0.0000 
     16 CA         27.0070   14.2550   23.6180 C.3      12 GLL5        0.0000 
     17 CA         25.2620   16.3190   20.1850 C.3       8 GLP5        0.0000 
     18 CA         20.9665   12.7220   18.6070 C.3       4 GLC5        0.0000 
     19 CA         22.8730   13.3690   18.3710 C.3      12 GLL5        0.0000 
     20 CA         19.0600   12.0750   18.8430 C.3       8 GLP5        0.0000 
     21 CA         22.1150   15.0130   17.8630 C.3       4 GLC5        0.0000 
     22 CA         21.3570   16.6570   17.3550 C.3       8 GLP5        0.0000 
     23 CA         22.4190   12.4180   17.1350 C.3       4 GLC5        0.0000 
     24 CA         21.9650   11.4670   15.8990 C.3       8 GLP5        0.0000 
     25 N          29.4610   12.6180   25.0350 N.am      2 SEC2        0.0000 
     26 N          29.2290   13.7560   24.0900 N.am     10 SEL2        0.0000 
     27 N          29.6930   11.4800   25.9800 N.am      6 SEP2        0.0000 
     28 N          30.4975   13.0235   24.1065 N.am      2 SEC2        0.0000 
     29 N          31.7660   12.2910   24.1230 N.am      6 SEP2        0.0000 
     30 OD1        22.5095    8.6690   26.6330 O.co2     3 ASC3        0.0000 
     31 OD1        21.0580    9.8280   26.4480 O.co2    11 ASL3        0.0000 
     32 OD1        23.9610    7.5100   26.8180 O.co2     7 ASP3        0.0000 
     33 OD1        22.2675    9.6725   27.0130 O.co2     3 ASC3        0.0000 
     34 OD1        23.4770    9.5170   27.5780 O.co2     7 ASP3        0.0000 
     35 N          20.9575   14.5965   23.0740 N.am      2 SEC2        0.0000 
     36 N          22.2540   13.5770   23.2840 N.am     10 SEL2        0.0000 
     37 N          19.6610   15.6160   22.8640 N.am      6 SEP2        0.0000 
     38 N          22.0970   15.1110   22.5605 N.am      2 SEC2        0.0000 
     39 N          21.9400   16.6450   21.8370 N.am      6 SEP2        0.0000 
     40 CA         22.7415   15.8810   24.5495 C.3       4 GLC5        0.0000 
     41 CA         24.4290   15.1150   24.4540 C.3      12 GLL5        0.0000 
     42 CA         21.0540   16.6470   24.6450 C.3       8 GLP5        0.0000 
     43 O          22.1425    7.6195   23.9950 O.2       1 ALC1        0.0000 
     44 O          21.0960    8.9550   23.7550 O.2       9 ALL1        0.0000 
     45 O          23.1890    6.2840   24.2350 O.2       5 ALP1        0.0000 
     46 O          21.4185    7.8340   23.1930 O.2       1 ALC1        0.0000 
     47 O          21.7410    6.7130   22.6310 O.2       5 ALP1        0.0000 
     48 CA         30.9235   12.6620   23.5830 C.3       4 GLC5        0.0000 
     49 CA         29.9730   12.7570   21.6410 C.3      12 GLL5        0.0000 
     50 CA         31.8740   12.5670   25.5250 C.3       8 GLP5        0.0000 
     51 CA         31.4005   10.7770   20.0375 C.3       4 GLC5        0.0000 
     52 CA         29.7500   11.3400   21.0550 C.3      12 GLL5        0.0000 
     53 CA         33.0510   10.2140   19.0200 C.3       8 GLP5        0.0000 
     54 CA         28.1595   10.5345   23.9835 C.3       4 GLC5        0.0000 
     55 CA         28.9080   10.4240   21.9550 C.3      12 GLL5        0.0000 
     56 CA         27.4110   10.6450   26.0120 C.3       8 GLP5        0.0000 
     57 CA         23.3715   17.6015   25.4140 C.3       4 GLC5        0.0000 
     58 CA         25.4210   17.2280   25.4910 C.3      12 GLL5        0.0000 
     59 CA         21.3220   17.9750   25.3370 C.3       8 GLP5        0.0000 
     60 CA         21.5380    8.1695   25.4665 C.3       4 GLC5        0.0000 
     61 CA         22.0230    9.9310   24.2000 C.3      12 GLL5        0.0000 
     62 CA         21.0530    6.4080   26.7330 C.3       8 GLP5        0.0000 
     63 CA         24.5125    8.7645   23.0175 C.3       4 GLC5        0.0000 
     64 CA         23.0820    9.8770   21.8500 C.3      12 GLL5        0.0000 
     65 CA         25.9430    7.6520   24.1850 C.3       8 GLP5        0.0000 
     66 CA         19.6235   11.1910   22.8925 C.3       4 GLC5        0.0000 
     67 CA         20.0180   11.4220   24.8450 C.3      12 GLL5        0.0000 
     68 CA         19.2290   10.9600   20.9400 C.3       8 GLP5        0.0000 
     69 CA         20.7170    8.4565   27.1540 C.3       4 GLC5        0.0000 
     70 CA         20.3810   10.5050   27.5750 C.3      12 GLL5        0.0000 
     71 CA         20.6710    9.8650   29.3090 C.3       4 GLC5        0.0000 
     72 CA         20.9610    9.2250   31.0430 C.3       8 GLP5        0.0000 
     73 CA         17.5325   12.7680   22.3090 C.3       4 GLC5        0.0000 
     74 CA         16.6540   11.2460   23.3700 C.3      12 GLL5        0.0000 
     75 CA         18.4110   14.2900   21.2480 C.3       8 GLP5        0.0000 
     76 CA         15.5195   10.3000   20.8450 C.3       4 GLC5        0.0000 
     77 CA         15.8150   10.2110   22.8890 C.3      12 GLL5        0.0000 
     78 CA         15.2240   10.3890   18.8010 C.3       8 GLP5        0.0000 
     79 CA         13.1515    9.3255   22.7725 C.3       4 GLC5        0.0000 
     80 CA         15.0090    9.4700   23.7900 C.3      12 GLL5        0.0000 
     81 CA         11.2940    9.1810   21.7550 C.3       8 GLP5        0.0000 
     82 CA         13.9630    8.2485   25.9970 C.3       4 GLC5        0.0000 
     83 CA         15.0390    9.7610   25.1710 C.3      12 GLL5        0.0000 
     84 CA         12.8870    6.7360   26.8230 C.3       8 GLP5        0.0000 
     85 CA         26.9223   12.2510   24.7447 C.3       4 GLC5        0.0000 
     86 CA         25.8600   13.4590   23.3370 C.3      12 GLL5        0.0000 
     87 CA         24.3353   15.1364   22.2653 C.3       4 GLC5        0.0000 
     88 CA         24.5680   13.8820   23.7490 C.3      12 GLL5        0.0000 
     89 CA         23.8490   15.8800   20.5320 C.3       8 GLP5        0.0000 
     90 CA         29.7692   12.1303   19.2735 C.3       4 GLC5        0.0000 
     91 CA         28.9657   13.3302   18.7110 C.3       4 GLC5        0.0000 
     92 CA         28.5960   14.9910   19.7980 C.3      12 GLL5        0.0000 
     93 CA         26.8699   15.8564   20.2787 C.3       4 GLC5        0.0000 
     94 CA         27.9130   13.9060   20.6480 C.3      12 GLL5        0.0000 
     95 CA         30.3290    9.0410   21.0235 C.3       4 GLC5        0.0000 
     96 CA         31.3290    7.2000   20.5420 C.3       8 GLP5        0.0000 
     97 CA         20.9511   10.5368   21.8313 C.3       4 GLC5        0.0000 
     98 CA         22.5060   10.7690   22.9900 C.3      12 GLL5        0.0000 
     99 CA         22.6867    8.5912   20.2290 C.3       4 GLC5        0.0000 
    100 CA         21.9800    6.9100   19.1740 C.3       8 GLP5        0.0000 
    101 CA         21.4535   12.7520   20.1943 C.3       4 GLC5        0.0000 
    102 CA         22.9700   11.6920   20.0400 C.3      12 GLL5        0.0000 
    103 CA         19.6340   13.4500   20.8730 C.3       8 GLP5        0.0000 
    104 CA         23.9248   14.0528   19.7509 C.3       4 GLC5        0.0000 
    105 CA         25.7845    8.8640   19.4264 C.3       4 GLC5        0.0000 
    106 CA         25.6110   11.1450   19.2620 C.3      12 GLL5        0.0000 
    107 CA         25.9320    7.0230   19.1510 C.3       8 GLP5        0.0000 
    108 CA         18.3530    9.9440   28.2070 C.3       4 GLC5        0.0000 
    109 CA         16.9790    9.0480   29.0670 C.3       8 GLP5        0.0000 
    110 CA         16.9640    8.3338   23.1107 C.3       4 GLC5        0.0000 
    111 CA         18.5160    6.8270   22.8820 C.3       8 GLP5        0.0000 
@<TRIPOS>BOND
@<TRIPOS>SUBSTRUCTURE
     1 ALC1        9 GROUP        1 X    ALC  0     ROOT ALC X 1
     2 SEC2       12 GROUP        1 X    SEC  0     **** SEC X 2
     3 ASC3       30 GROUP        1 X    ASC  0     **** ASC X 3
     4 GLC5        1 GROUP        1 X    GLC  0     **** GLC X 6
     5 ALP1       11 GROUP        1 Y    ALP  0     ROOT ALP Y 8
     6 SEP2       14 GROUP        1 Y    SEP  0     **** SEP Y 9
     7 ASP3       32 GROUP        1 Y    ASP  0     **** ASP Y 10
     8 GLP5        3 GROUP        1 Y    GLP  0     **** GLP Y 13
     9 ALL1       10 GROUP        1 Z    ALL  0     ROOT ALL Z 15
    10 SEL2       13 GROUP        1 Z    SEL  0     **** SEL Z 16
    11 ASL3       31 GROUP        1 Z    ASL  0     **** ASL Z 17
    12 GLL5        2 GROUP        1 Z    GLL  0     **** GLL Z 20
@<TRIPOS>SET

