#    Name: 3lpi_Z74_1_ligand
#    Modification time : Mon Mar 24 21:59:09 2014

@<TRIPOS>MOLECULE
3lpi_Z74_1_ligand
   87    90     1     0     0
SMALL
NO_CHARGES


@<TRIPOS>ATOM
      1 C1         26.8470   15.4820   24.3230 C.ar      1 Z74456      0.0000 
      2 F1         26.8590   10.8750   18.9070 F         1 Z74456      0.0000 
      3 N1         23.5520   11.7160   23.4240 N.am      1 Z74456      0.0000 
      4 O1         18.1610   13.6830   24.2780 O.2       1 Z74456      0.0000 
      5 S1         17.7460   12.8380   25.3590 S.o2      1 Z74456      0.0000 
      6 C2         27.0070   14.2550   23.6180 C.ar      1 Z74456      0.0000 
      7 F2         22.8730   13.3690   18.3710 F         1 Z74456      0.0000 
      8 N2         28.7070   13.5230   21.8620 N.am      1 Z74456      0.0000 
      9 O2         17.1720   13.4280   26.5360 O.2       1 Z74456      0.0000 
     10 C3         25.8600   13.4590   23.3370 C.ar      1 Z74456      0.0000 
     11 N3         19.2090   12.0450   25.9100 N.pl3     1 Z74456      0.0000 
     12 O3         29.2290   13.7560   24.0900 O.2       1 Z74456      0.0000 
     13 C4         24.5680   13.8820   23.7490 C.ar      1 Z74456      0.0000 
     14 N4         21.0580    9.8280   26.4480 N.4       1 Z74456      0.0000 
     15 O4         22.2540   13.5770   23.2840 O.2       1 Z74456      0.0000 
     16 C5         24.4290   15.1150   24.4540 C.ar      1 Z74456      0.0000 
     17 O5         21.0960    8.9550   23.7550 O.3       1 Z74456      0.0000 
     18 C6         25.5650   15.9210   24.7450 C.ar      1 Z74456      0.0000 
     19 C7         23.3600   13.0780   23.4680 C.2       1 Z74456      0.0000 
     20 C8         28.3760   13.8350   23.2060 C.2       1 Z74456      0.0000 
     21 C9         29.9730   12.7570   21.6410 C.3       1 Z74456      0.0000 
     22 C10        27.9130   13.9060   20.6480 C.3       1 Z74456      0.0000 
     23 C11        28.5960   14.9910   19.7980 C.3       1 Z74456      0.0000 
     24 C12        28.7010   16.3390   20.5220 C.3       1 Z74456      0.0000 
     25 C13        29.7500   11.3400   21.0550 C.3       1 Z74456      0.0000 
     26 C14        28.9080   10.4240   21.9550 C.3       1 Z74456      0.0000 
     27 C15        25.4210   17.2280   25.4910 C.3       1 Z74456      0.0000 
     28 C16        22.5060   10.7690   22.9900 C.3       1 Z74456      0.0000 
     29 C17        22.0230    9.9310   24.2000 C.3       1 Z74456      0.0000 
     30 C18        21.3380   10.7460   25.3190 C.3       1 Z74456      0.0000 
     31 C19        23.0820    9.8770   21.8500 C.3       1 Z74456      0.0000 
     32 C20        23.7050   10.6680   20.7180 C.ar      1 Z74456      0.0000 
     33 C21        22.9700   11.6920   20.0400 C.ar      1 Z74456      0.0000 
     34 C22        23.5760   12.4160   18.9910 C.ar      1 Z74456      0.0000 
     35 C23        24.9040   12.1590   18.5790 C.ar      1 Z74456      0.0000 
     36 C24        25.6110   11.1450   19.2620 C.ar      1 Z74456      0.0000 
     37 C25        25.0390   10.4000   20.3190 C.ar      1 Z74456      0.0000 
     38 C26        20.0180   11.4220   24.8450 C.3       1 Z74456      0.0000 
     39 C27        19.0730   11.1750   27.1190 C.3       1 Z74456      0.0000 
     40 C28        20.3810   10.5050   27.5750 C.3       1 Z74456      0.0000 
     41 C29        16.6830   11.5370   24.7550 C.ar      1 Z74456      0.0000 
     42 C30        16.6540   11.2460   23.3700 C.ar      1 Z74456      0.0000 
     43 C31        15.8150   10.2110   22.8890 C.ar      1 Z74456      0.0000 
     44 C32        15.0090    9.4700   23.7900 C.ar      1 Z74456      0.0000 
     45 C33        15.0390    9.7610   25.1710 C.ar      1 Z74456      0.0000 
     46 C34        15.8770   10.7970   25.6580 C.ar      1 Z74456      0.0000 
     47 H          27.6717   16.0554   24.5278 H         1 Z74456      0.0000 
     48 H          24.4608   11.2942   23.7008 H         1 Z74456      0.0000 
     49 H          25.9690   12.5759   22.8344 H         1 Z74456      0.0000 
     50 H          23.5002   15.4217   24.7532 H         1 Z74456      0.0000 
     51 H          30.5199   12.6486   22.5922 H         1 Z74456      0.0000 
     52 H          30.6332   13.3092   20.9519 H         1 Z74456      0.0000 
     53 H          26.9223   14.2768   20.9515 H         1 Z74456      0.0000 
     54 H          27.7500   13.0213   20.0141 H         1 Z74456      0.0000 
     55 H          28.0272   15.1259   18.8709 H         1 Z74456      0.0000 
     56 H          29.6022   14.6498   19.5288 H         1 Z74456      0.0000 
     57 H          30.7298   10.8742   20.8840 H         1 Z74456      0.0000 
     58 H          29.2554   11.4389   20.0794 H         1 Z74456      0.0000 
     59 H          21.6634   11.3127   22.5923 H         1 Z74456      0.0000 
     60 H          22.8952    9.4424   24.6373 H         1 Z74456      0.0000 
     61 H          22.0192   11.5167   25.6422 H         1 Z74456      0.0000 
     62 H          22.2660    9.2521   21.4612 H         1 Z74456      0.0000 
     63 H          23.8317    9.2045   22.2896 H         1 Z74456      0.0000 
     64 H          22.0125   11.8911   20.3205 H         1 Z74456      0.0000 
     65 H          25.3262   12.6764   17.8317 H         1 Z74456      0.0000 
     66 H          25.5776    9.6787   20.7895 H         1 Z74456      0.0000 
     67 H          20.2922   12.1757   24.0752 H         1 Z74456      0.0000 
     68 H          19.4255   10.6481   24.3104 H         1 Z74456      0.0000 
     69 H          18.3284   10.3785   26.9254 H         1 Z74456      0.0000 
     70 H          18.6783   11.7696   27.9658 H         1 Z74456      0.0000 
     71 H          21.0281   11.2768   28.0048 H         1 Z74456      0.0000 
     72 H          20.1392    9.7870   28.3657 H         1 Z74456      0.0000 
     73 H          17.2324   11.7770   22.7232 H         1 Z74456      0.0000 
     74 H          15.7901    9.9975   21.8912 H         1 Z74456      0.0000 
     75 H          14.4067    8.7251   23.4365 H         1 Z74456      0.0000 
     76 H          14.4602    9.2290   25.8203 H         1 Z74456      0.0000 
     77 H          15.8999   11.0089   26.6534 H         1 Z74456      0.0000 
     78 H          29.2341   16.2673   21.3650 H         1 Z74456      0.0000 
     79 H          29.1436   17.0324   19.9535 H         1 Z74456      0.0000 
     80 H          27.8016   16.6966   20.7735 H         1 Z74456      0.0000 
     81 H          28.7819    9.5187   21.5493 H         1 Z74456      0.0000 
     82 H          29.3347   10.2877   22.8491 H         1 Z74456      0.0000 
     83 H          27.9965   10.8010   22.1196 H         1 Z74456      0.0000 
     84 H          25.9450   17.2292   26.3427 H         1 Z74456      0.0000 
     85 H          25.7432   18.0032   24.9476 H         1 Z74456      0.0000 
     86 H          24.4687   17.4149   25.7324 H         1 Z74456      0.0000 
     87 H          21.6559    8.2320   23.3503 H         1 Z74456      0.0000 
@<TRIPOS>BOND
     1    6    1 ar   
     2   18    1 ar   
     3   47    1 1    
     4   36    2 1    
     5   19    3 am   
     6   28    3 1    
     7   48    3 1    
     8    5    4 2    
     9    9    5 2    
    10   11    5 1    
    11   41    5 1    
    12   10    6 ar   
    13   20    6 1    
    14   34    7 1    
    15   20    8 am   
    16   21    8 1    
    17   22    8 1    
    18   13   10 ar   
    19   49   10 1    
    20   38   11 1    
    21   39   11 1    
    22   20   12 2    
    23   16   13 ar   
    24   19   13 1    
    25   30   14 1    
    26   40   14 1    
    27   19   15 2    
    28   18   16 ar   
    29   50   16 1    
    30   29   17 1    
    31   87   17 1    
    32   27   18 1    
    33   25   21 1    
    34   51   21 1    
    35   52   21 1    
    36   23   22 1    
    37   53   22 1    
    38   54   22 1    
    39   24   23 1    
    40   55   23 1    
    41   56   23 1    
    42   78   24 1    
    43   79   24 1    
    44   80   24 1    
    45   26   25 1    
    46   57   25 1    
    47   58   25 1    
    48   81   26 1    
    49   82   26 1    
    50   83   26 1    
    51   84   27 1    
    52   85   27 1    
    53   86   27 1    
    54   29   28 1    
    55   31   28 1    
    56   59   28 1    
    57   30   29 1    
    58   60   29 1    
    59   38   30 1    
    60   61   30 1    
    61   32   31 1    
    62   62   31 1    
    63   63   31 1    
    64   33   32 ar   
    65   37   32 ar   
    66   34   33 ar   
    67   64   33 1    
    68   35   34 ar   
    69   36   35 ar   
    70   65   35 1    
    71   37   36 ar   
    72   66   37 1    
    73   67   38 1    
    74   68   38 1    
    75   40   39 1    
    76   69   39 1    
    77   70   39 1    
    78   71   40 1    
    79   72   40 1    
    80   42   41 ar   
    81   46   41 ar   
    82   43   42 ar   
    83   73   42 1    
    84   44   43 ar   
    85   74   43 1    
    86   45   44 ar   
    87   75   44 1    
    88   46   45 ar   
    89   76   45 1    
    90   77   46 1    
@<TRIPOS>SUBSTRUCTURE
     1 Z74456      1 GROUP   
@<TRIPOS>SET

