#    Name: 4f65_0S9_1_INTS_M
#    Modification time : Mon Mar 24 18:59:46 2014

@<TRIPOS>MOLECULE
4f65_0S9_1_INTS_M
   82     0     9     0     0
SMALL
NO_CHARGES


@<TRIPOS>ATOM
      1 CA          9.6395   -2.5790   -9.1625 C.3       3 GLC5        0.0000 
      2 CA         11.2720   -3.6250   -9.9110 C.3       9 GLL5        0.0000 
      3 CA          8.0070   -1.5330   -8.4140 C.3       6 GLP5        0.0000 
      4 CA         14.7110   -1.8235   -8.1525 C.3       3 GLC5        0.0000 
      5 CA         13.5430   -2.9170   -9.7000 C.3       9 GLL5        0.0000 
      6 CA         15.8790   -0.7300   -6.6050 C.3       6 GLP5        0.0000 
      7 CA         19.9535   -2.4385  -10.1385 C.3       3 GLC5        0.0000 
      8 CA         19.5660   -4.3290   -9.9030 C.3       9 GLL5        0.0000 
      9 CA         20.3410   -0.5480  -10.3740 C.3       6 GLP5        0.0000 
     10 CA         16.7825   -3.6240  -14.0025 C.3       3 GLC5        0.0000 
     11 CA         17.6610   -1.9580  -13.1690 C.3       9 GLL5        0.0000 
     12 CA         15.9040   -5.2900  -14.8360 C.3       6 GLP5        0.0000 
     13 CA         21.2265   -4.2970  -15.6525 C.3       3 GLC5        0.0000 
     14 CA         22.6390   -3.3840  -14.4490 C.3       9 GLL5        0.0000 
     15 CA         19.8140   -5.2100  -16.8560 C.3       6 GLP5        0.0000 
     16 CA         17.8940   -6.7325   -9.9995 C.3       3 GLC5        0.0000 
     17 CA         18.8230   -5.0240  -10.8300 C.3       9 GLL5        0.0000 
     18 CA         16.9650   -8.4410   -9.1690 C.3       6 GLP5        0.0000 
     19 CA         17.2315   -5.9325  -11.8505 C.3       3 GLC5        0.0000 
     20 CA         15.6400   -6.8410  -12.8710 C.3       6 GLP5        0.0000 
     21 CA         18.3930   -2.1480  -15.7580 C.3       3 GLC5        0.0000 
     22 CA         18.3730   -1.1110  -14.0550 C.3       9 GLL5        0.0000 
     23 CA         18.4130   -3.1850  -17.4610 C.3       6 GLP5        0.0000 
     24 CA         18.6945    0.9330  -13.5845 C.3       3 GLC5        0.0000 
     25 CA         19.0160    2.9770  -13.1140 C.3       6 GLP5        0.0000 
     26 CA         20.1725   -3.7800  -15.5225 C.3       3 GLC5        0.0000 
     27 CA         20.5310   -2.3500  -14.1890 C.3       9 GLL5        0.0000 
     28 CA         20.4360   -1.4490  -12.2815 C.3       3 GLC5        0.0000 
     29 CA         20.3845   -4.8085  -15.0550 C.3       3 GLC5        0.0000 
     30 CA         20.9550   -4.4070  -13.2540 C.3       9 GLL5        0.0000 
     31 CA         19.4135   -2.3705   -5.6440 C.3       3 GLC5        0.0000 
     32 CA         18.9410   -3.3420   -7.5910 C.3       9 GLL5        0.0000 
     33 CA         19.8860   -1.3990   -3.6970 C.3       6 GLP5        0.0000 
     34 CA         18.4150   -1.7980   -8.7980 C.3       3 GLC5        0.0000 
     35 CA         17.8890   -0.2540  -10.0050 C.3       6 GLP5        0.0000 
     36 CA         17.4100   -2.0360   -7.0980 C.3       3 GLC5        0.0000 
     37 CA         14.8345   -1.7635  -14.1940 C.3       3 GLC5        0.0000 
     38 CA         15.1780   -1.7050  -12.3060 C.3       9 GLL5        0.0000 
     39 CA         14.4910   -1.8220  -16.0820 C.3       6 GLP5        0.0000 
     40 CA         13.9065   -0.2665  -11.3720 C.3       3 GLC5        0.0000 
     41 CA         12.6350    1.1720  -10.4380 C.3       6 GLP5        0.0000 
     42 CA         20.0945   -7.1955  -13.2395 C.3       3 GLC5        0.0000 
     43 CA         19.1480   -5.6040  -12.1550 C.3       9 GLL5        0.0000 
     44 CA         21.0410   -8.7870  -14.3240 C.3       6 GLP5        0.0000 
     45 CA         17.6890   -6.1415  -13.2165 C.3       3 GLC5        0.0000 
     46 CA         16.2300   -6.6790  -14.2780 C.3       6 GLP5        0.0000 
     47 N          16.2910   -5.2205   -8.5105 N.am      2 SEC2        0.0000 
     48 N          17.4430   -4.5540   -9.1080 N.am      8 SEL2        0.0000 
     49 N          15.1390   -5.8870   -7.9130 N.am      5 SEP2        0.0000 
     50 O          20.1645    0.1500  -14.6500 O.2       1 ALC1        0.0000 
     51 O          19.6790   -1.2610  -14.4190 O.2       7 ALL1        0.0000 
     52 O          20.6500    1.5610  -14.8810 O.2       4 ALP1        0.0000 
     53 CA         20.9700   -0.3150  -17.1660 C.3       3 GLC5        0.0000 
     54 CA         22.4870   -0.9310  -15.8330 C.3       9 GLL5        0.0000 
     55 CA         19.4530    0.3010  -18.4990 C.3       6 GLP5        0.0000 
     56 CA         22.1730    0.9620  -16.4885 C.3       3 GLC5        0.0000 
     57 CA         21.8590    2.8550  -17.1440 C.3       6 GLP5        0.0000 
     58 CA         23.1675   -0.3570  -14.1810 C.3       3 GLC5        0.0000 
     59 CA         23.8480    0.2170  -12.5290 C.3       6 GLP5        0.0000 
     60 CA         12.3000   -5.1520   -9.7468 C.3       3 GLC5        0.0000 
     61 CA         12.2920   -3.0990   -9.1420 C.3       9 GLL5        0.0000 
     62 CA         12.8180   -6.9420   -9.9670 C.3       6 GLP5        0.0000 
     63 CA         10.4420   -2.5180  -11.6238 C.3       3 GLC5        0.0000 
     64 CA          9.5000   -1.2410  -12.6760 C.3       6 GLP5        0.0000 
     65 CA         12.7762   -0.9180   -9.9295 C.3       3 GLC5        0.0000 
     66 CA         12.4710   -5.4072  -10.7370 C.3       3 GLC5        0.0000 
     67 CA         12.7520   -3.7800  -11.7820 C.3       9 GLL5        0.0000 
     68 CA         13.2387   -5.0118  -10.1638 C.3       3 GLC5        0.0000 
     69 CA         13.7760   -3.2460  -11.0210 C.3       9 GLL5        0.0000 
     70 CA         14.4520   -5.1770  -12.1363 C.3       3 GLC5        0.0000 
     71 CA         12.5700   -2.1935  -12.4002 C.3       3 GLC5        0.0000 
     72 CA         11.8760   -0.8740  -13.3990 C.3       6 GLP5        0.0000 
     73 CA         16.2540   -1.6783  -14.8470 C.3       3 GLC5        0.0000 
     74 CA         17.9530   -0.8942  -11.8085 C.3       3 GLC5        0.0000 
     75 CA         23.0367   -1.3192  -13.5615 C.3       3 GLC5        0.0000 
     76 CA         21.8120   -2.3270  -14.7390 C.3       9 GLL5        0.0000 
     77 CA         21.4253   -2.5505  -16.8935 C.3       3 GLC5        0.0000 
     78 CA         20.7010   -3.4720  -18.5010 C.3       6 GLP5        0.0000 
     79 CA         15.5303   -3.8318  -13.3972 C.3       3 GLC5        0.0000 
     80 CA         13.5162   -1.6238  -12.6787 C.3       3 GLC5        0.0000 
     81 CA         15.1350   -3.0420  -11.6110 C.3       9 GLL5        0.0000 
     82 CA         16.5228   -1.3137  -10.9817 C.3       3 GLC5        0.0000 
@<TRIPOS>BOND
@<TRIPOS>SUBSTRUCTURE
     1 ALC1       50 GROUP        1 X    ALC  0     ROOT ALC X 1
     2 SEC2       47 GROUP        1 X    SEC  0     **** SEC X 2
     3 GLC5        1 GROUP        1 X    GLC  0     **** GLC X 6
     4 ALP1       52 GROUP        1 Y    ALP  0     ROOT ALP Y 8
     5 SEP2       49 GROUP        1 Y    SEP  0     **** SEP Y 9
     6 GLP5        3 GROUP        1 Y    GLP  0     **** GLP Y 13
     7 ALL1       51 GROUP        1 Z    ALL  0     ROOT ALL Z 15
     8 SEL2       48 GROUP        1 Z    SEL  0     **** SEL Z 16
     9 GLL5        2 GROUP        1 Z    GLL  0     **** GLL Z 20
@<TRIPOS>SET

