#    Name: 4f65_0S9_1_ligand
#    Modification time : Mon Mar 24 18:59:46 2014

@<TRIPOS>MOLECULE
4f65_0S9_1_ligand
   49    52     1     0     0
SMALL
NO_CHARGES


@<TRIPOS>ATOM
      1 C26        11.2720   -3.6250   -9.9110 C.ar      1 0S9808      0.0000 
      2 C25        12.2920   -3.0990   -9.1420 C.ar      1 0S9808      0.0000 
      3 C27        11.4960   -3.9650  -11.2320 C.ar      1 0S9808      0.0000 
      4 C24        13.5430   -2.9170   -9.7000 C.ar      1 0S9808      0.0000 
      5 C28        12.7520   -3.7800  -11.7820 C.ar      1 0S9808      0.0000 
      6 C3         19.5660   -4.3290   -9.9030 C.2       1 0S9808      0.0000 
      7 C17        17.6610   -1.9580  -13.1690 C.2       1 0S9808      0.0000 
      8 C11        22.6390   -3.3840  -14.4490 C.ar      1 0S9808      0.0000 
      9 C23        13.7760   -3.2460  -11.0210 C.ar      1 0S9808      0.0000 
     10 C12        21.8120   -2.3270  -14.7390 C.ar      1 0S9808      0.0000 
     11 C2         18.6630   -4.0630   -8.8470 C.2       1 0S9808      0.0000 
     12 C18        16.4100   -1.3960  -13.0620 C.2       1 0S9808      0.0000 
     13 C4         18.8230   -5.0240  -10.8300 C.2       1 0S9808      0.0000 
     14 C16        18.3730   -1.1110  -14.0550 C.2       1 0S9808      0.0000 
     15 C13        20.5310   -2.3500  -14.1890 C.ar      1 0S9808      0.0000 
     16 C9         20.9550   -4.4070  -13.2540 C.ar      1 0S9808      0.0000 
     17 C1         18.9410   -3.3420   -7.5910 C.3       1 0S9808      0.0000 
     18 C22        15.1350   -3.0420  -11.6110 C.3       1 0S9808      0.0000 
     19 C21        15.1780   -1.7050  -12.3060 C.3       1 0S9808      0.0000 
     20 C7         19.1480   -5.6040  -12.1550 C.3       1 0S9808      0.0000 
     21 N10        22.2220   -4.4230  -13.7080 N.ar      1 0S9808      0.0000 
     22 N6         17.4430   -4.5540   -9.1080 N.2       1 0S9808      0.0000 
     23 N14        20.0970   -3.3930  -13.4640 N.ar      1 0S9808      0.0000 
     24 N20        17.6080   -0.0820  -14.4460 N.pl3     1 0S9808      0.0000 
     25 N19        16.4280   -0.3020  -13.8640 N.2       1 0S9808      0.0000 
     26 N15        19.6790   -1.2610  -14.4190 N.pl3     1 0S9808      0.0000 
     27 N8         20.5690   -5.5360  -12.5060 N.pl3     1 0S9808      0.0000 
     28 O5         17.5560   -5.1680  -10.3520 O.3       1 0S9808      0.0000 
     29 BR1        22.4870   -0.9310  -15.8330 Br        1 0S9808      0.0000 
     30 H          10.3353   -3.7654   -9.4964 H         1 0S9808      0.0000 
     31 H          12.1215   -2.8444   -8.1603 H         1 0S9808      0.0000 
     32 H          10.7341   -4.3531  -11.8029 H         1 0S9808      0.0000 
     33 H          14.3109   -2.5313   -9.1235 H         1 0S9808      0.0000 
     34 H          12.9256   -4.0421  -12.7660 H         1 0S9808      0.0000 
     35 H          20.4547   -4.0807   -9.9398 H         1 0S9808      0.0000 
     36 H          17.9909   -2.7217  -12.7620 H         1 0S9808      0.0000 
     37 H          23.6210   -3.3669  -14.8227 H         1 0S9808      0.0000 
     38 H          15.3482   -3.8299  -12.3300 H         1 0S9808      0.0000 
     39 H          15.8867   -3.0649  -10.8251 H         1 0S9808      0.0000 
     40 H          14.2936   -1.6370  -12.9915 H         1 0S9808      0.0000 
     41 H          15.0005   -0.9055  -11.5405 H         1 0S9808      0.0000 
     42 H          18.5446   -5.0843  -12.9352 H         1 0S9808      0.0000 
     43 H          18.8071   -6.6651  -12.1788 H         1 0S9808      0.0000 
     44 H          17.8539    0.6376  -15.0091 H         1 0S9808      0.0000 
     45 H          20.1335   -0.4299  -14.9623 H         1 0S9808      0.0000 
     46 H          21.1877   -6.2437  -12.2255 H         1 0S9808      0.0000 
     47 H          19.6587   -3.7891   -7.0572 H         1 0S9808      0.0000 
     48 H          19.2430   -2.4038   -7.7603 H         1 0S9808      0.0000 
     49 H          18.1313   -3.2883   -7.0065 H         1 0S9808      0.0000 
@<TRIPOS>BOND
     1    2    1 ar   
     2    3    1 ar   
     3   30    1 1    
     4    4    2 ar   
     5   31    2 1    
     6    5    3 ar   
     7   32    3 1    
     8    9    4 ar   
     9   33    4 1    
    10    9    5 ar   
    11   34    5 1    
    12   11    6 1    
    13   13    6 2    
    14   35    6 1    
    15   12    7 1    
    16   14    7 2    
    17   36    7 1    
    18   10    8 ar   
    19   21    8 ar   
    20   37    8 1    
    21   18    9 1    
    22   15   10 ar   
    23   29   10 1    
    24   17   11 1    
    25   22   11 2    
    26   19   12 1    
    27   25   12 2    
    28   20   13 1    
    29   28   13 1    
    30   24   14 1    
    31   26   14 1    
    32   23   15 ar   
    33   26   15 1    
    34   21   16 ar   
    35   23   16 ar   
    36   27   16 1    
    37   47   17 1    
    38   48   17 1    
    39   49   17 1    
    40   19   18 1    
    41   38   18 1    
    42   39   18 1    
    43   40   19 1    
    44   41   19 1    
    45   27   20 1    
    46   42   20 1    
    47   43   20 1    
    48   28   22 1    
    49   25   24 1    
    50   44   24 1    
    51   45   26 1    
    52   46   27 1    
@<TRIPOS>SUBSTRUCTURE
     1 0S9808      1 GROUP   
@<TRIPOS>SET

