#    Name: 3rv9_RVD_1_INTS_M
#    Modification time : Tue Mar 25 12:02:48 2014

@<TRIPOS>MOLECULE
3rv9_RVD_1_INTS_M
   34     0     9     0     0
SMALL
NO_CHARGES


@<TRIPOS>ATOM
      1 CA         37.4870    5.9190   33.7470 C.3       3 GLC5        0.0000 
      2 CA         37.2590    4.7980   32.1600 C.3       9 GLL5        0.0000 
      3 CA         37.7150    7.0400   35.3340 C.3       6 GLP5        0.0000 
      4 NZ         38.2030   -1.4090   31.0320 N.4       2 LYC4        0.0000 
      5 NZ         37.0250   -0.4870   31.3540 N.4       8 LYL4        0.0000 
      6 NZ         39.3810   -2.3310   30.7100 N.4       5 LYP4        0.0000 
      7 NZ         38.4785   -1.2225   32.0500 N.4       2 LYC4        0.0000 
      8 NZ         37.5760   -0.1140   33.3900 N.4       8 LYL4        0.0000 
      9 N          42.5845   -0.9465   25.9815 N.am      1 SEC2        0.0000 
     10 N          41.2400   -0.8880   26.2080 N.am      7 SEL2        0.0000 
     11 N          43.9290   -1.0050   25.7550 N.am      4 SEP2        0.0000 
     12 N          41.5520   -2.1850   26.0710 N.am      1 SEC2        0.0000 
     13 N          41.8640   -3.4820   25.9340 N.am      4 SEP2        0.0000 
     14 CA         37.3208    5.2153   30.3820 C.3       3 GLC5        0.0000 
     15 CA         38.3240    3.8090   31.7960 C.3       9 GLL5        0.0000 
     16 CA         36.8500    6.1270   28.7860 C.3       6 GLP5        0.0000 
     17 CA         40.1520    3.5743   32.1800 C.3       3 GLC5        0.0000 
     18 CA         42.0650    3.9410   32.2280 C.3       6 GLP5        0.0000 
     19 CA         43.4782   -0.8792   29.6225 C.3       3 GLC5        0.0000 
     20 CA         41.6320    0.3240   30.1750 C.3       9 GLL5        0.0000 
     21 CA         45.3660   -1.8970   29.7330 C.3       6 GLP5        0.0000 
     22 CA         41.2588    2.1688   29.3178 C.3       3 GLC5        0.0000 
     23 CA         40.5570    0.9350   30.7840 C.3       9 GLL5        0.0000 
     24 CA         41.4230    3.7080   28.1560 C.3       6 GLP5        0.0000 
     25 CA         41.2053    1.8887   28.3135 C.3       3 GLC5        0.0000 
     26 CA         41.5490   -0.0470   28.8490 C.3       9 GLL5        0.0000 
     27 CA         39.4912   -1.1618   28.5655 C.3       3 GLC5        0.0000 
     28 CA         40.4260    0.1860   28.0930 C.3       9 GLL5        0.0000 
     29 CA         37.9950   -2.3930   28.6600 C.3       6 GLP5        0.0000 
     30 CA         40.4133    2.3342   28.7625 C.3       3 GLC5        0.0000 
     31 CA         39.3660    0.7770   28.7130 C.3       9 GLL5        0.0000 
     32 CA         38.6992   -0.7162   29.0145 C.3       3 GLC5        0.0000 
     33 CA         41.1664    2.4139   31.2401 C.3       3 GLC5        0.0000 
     34 CA         39.4410    1.1440   30.0250 C.3       9 GLL5        0.0000 
@<TRIPOS>BOND
@<TRIPOS>SUBSTRUCTURE
     1 SEC2        9 GROUP        1 X    SEC  0     ROOT SEC X 2
     2 LYC4        4 GROUP        1 X    LYC  0     **** LYC X 4
     3 GLC5        1 GROUP        1 X    GLC  0     **** GLC X 6
     4 SEP2       11 GROUP        1 Y    SEP  0     ROOT SEP Y 9
     5 LYP4        6 GROUP        1 Y    LYP  0     **** LYP Y 11
     6 GLP5        3 GROUP        1 Y    GLP  0     **** GLP Y 13
     7 SEL2       10 GROUP        1 Z    SEL  0     ROOT SEL Z 16
     8 LYL4        5 GROUP        1 Z    LYL  0     **** LYL Z 18
     9 GLL5        2 GROUP        1 Z    GLL  0     **** GLL Z 20
@<TRIPOS>SET

