#    Name: 3rv9_RVD_1_ligand
#    Modification time : Tue Mar 25 12:02:48 2014

@<TRIPOS>MOLECULE
3rv9_RVD_1_ligand
   28    28     1     0     0
SMALL
NO_CHARGES


@<TRIPOS>ATOM
      1 CAA        37.2590    4.7980   32.1600 C.3       1 RVD451      0.0000 
      2 OAB        37.0250   -0.4870   31.3540 O.co2     1 RVD451      0.0000 
      3 OAC        39.3270    0.0110   25.9770 O.co2     1 RVD451      0.0000 
      4 OAD        37.5760   -0.1140   33.3900 O.co2     1 RVD451      0.0000 
      5 OAE        41.2400   -0.8880   26.2080 O.co2     1 RVD451      0.0000 
      6 OAF        38.2490    1.0310   28.0600 O.3       1 RVD451      0.0000 
      7 CAG        38.1540    2.6060   32.4680 C.2       1 RVD451      0.0000 
      8 CAH        41.6320    0.3240   30.1750 C.ar      1 RVD451      0.0000 
      9 CAI        40.5570    0.9350   30.7840 C.ar      1 RVD451      0.0000 
     10 CAJ        41.5490   -0.0470   28.8490 C.ar      1 RVD451      0.0000 
     11 CAK        38.3240    3.8090   31.7960 C.3       1 RVD451      0.0000 
     12 OAL        38.4030    1.7260   30.5140 O.3       1 RVD451      0.0000 
     13 CAM        37.5550    0.1970   32.2160 C.2       1 RVD451      0.0000 
     14 CAN        40.3260   -0.2440   26.6360 C.2       1 RVD451      0.0000 
     15 CAO        38.2340    1.4950   31.7830 C.2       1 RVD451      0.0000 
     16 CAP        39.3660    0.7770   28.7130 C.ar      1 RVD451      0.0000 
     17 CAQ        39.4410    1.1440   30.0250 C.ar      1 RVD451      0.0000 
     18 CAR        40.4260    0.1860   28.0930 C.ar      1 RVD451      0.0000 
     19 H          37.9706    2.6283   33.4834 H         1 RVD451      0.0000 
     20 H          42.4956    0.1446   30.7084 H         1 RVD451      0.0000 
     21 H          40.5991    1.2166   31.7596 H         1 RVD451      0.0000 
     22 H          42.3714   -0.5223   28.4058 H         1 RVD451      0.0000 
     23 H          39.3075    4.2761   32.0199 H         1 RVD451      0.0000 
     24 H          38.2978    3.6774   30.6925 H         1 RVD451      0.0000 
     25 H          37.2613    5.0029   33.1388 H         1 RVD451      0.0000 
     26 H          37.3783    5.6663   31.6785 H         1 RVD451      0.0000 
     27 H          36.3454    4.4603   31.9334 H         1 RVD451      0.0000 
     28 H          38.4126    0.7022   27.1299 H         1 RVD451      0.0000 
@<TRIPOS>BOND
     1   11    1 1    
     2   25    1 1    
     3   26    1 1    
     4   27    1 1    
     5   13    2 ar   
     6   14    3 ar   
     7   13    4 ar   
     8   14    5 ar   
     9   16    6 1    
    10   28    6 1    
    11   11    7 1    
    12   15    7 2    
    13   19    7 1    
    14    9    8 ar   
    15   10    8 ar   
    16   20    8 1    
    17   17    9 ar   
    18   21    9 1    
    19   18   10 ar   
    20   22   10 1    
    21   23   11 1    
    22   24   11 1    
    23   15   12 1    
    24   17   12 1    
    25   15   13 1    
    26   18   14 1    
    27   17   16 ar   
    28   18   16 ar   
@<TRIPOS>SUBSTRUCTURE
     1 RVD451      1 GROUP   
@<TRIPOS>SET

