#    Name: 4chp_IMV_4_INTS_M
#    Modification time : Mon Apr  7 22:17:45 2014

@<TRIPOS>MOLECULE
4chp_IMV_4_INTS_M
   47     0     3     0     0
SMALL
NO_CHARGES


@<TRIPOS>ATOM
      1 CA          8.1550  -24.8555  -19.9400 C.3       1 GLC5        0.0000 
      2 CA          6.6980  -25.3410  -21.1680 C.3       3 GLL5        0.0000 
      3 CA          9.6120  -24.3700  -18.7120 C.3       2 GLP5        0.0000 
      4 CA          5.1745  -27.1370  -18.9580 C.3       1 GLC5        0.0000 
      5 CA          5.6980  -27.6780  -20.7920 C.3       3 GLL5        0.0000 
      6 CA          4.6510  -26.5960  -17.1240 C.3       2 GLP5        0.0000 
      7 CA         10.3600  -25.6435  -20.1200 C.3       1 GLC5        0.0000 
      8 CA         11.1080  -26.9170  -21.5280 C.3       3 GLL5        0.0000 
      9 CA         13.8230  -26.3735  -19.9670 C.3       1 GLC5        0.0000 
     10 CA         12.3340  -27.3050  -21.0460 C.3       3 GLL5        0.0000 
     11 CA         15.3120  -25.4420  -18.8880 C.3       2 GLP5        0.0000 
     12 CA         14.8180  -26.4965  -20.8825 C.3       1 GLC5        0.0000 
     13 CA         13.3460  -27.4980  -21.9460 C.3       3 GLL5        0.0000 
     14 CA         16.2900  -25.4950  -19.8190 C.3       2 GLP5        0.0000 
     15 CA         13.7510  -29.2530  -22.6765 C.3       1 GLC5        0.0000 
     16 CA         15.1790  -27.9730  -22.9490 C.3       3 GLL5        0.0000 
     17 CA         12.3230  -30.5330  -22.4040 C.3       2 GLP5        0.0000 
     18 CA         15.9070  -27.4780  -24.4665 C.3       1 GLC5        0.0000 
     19 CA         16.6350  -26.9830  -25.9840 C.3       2 GLP5        0.0000 
     20 CA         16.6950  -29.4435  -23.2865 C.3       1 GLC5        0.0000 
     21 CA         18.2110  -30.9140  -23.6240 C.3       2 GLP5        0.0000 
     22 CA         15.7345  -26.7340  -21.3840 C.3       1 GLC5        0.0000 
     23 CA         14.8900  -27.1485  -24.6295 C.3       1 GLC5        0.0000 
     24 CA         13.1450  -27.3140  -23.2750 C.3       3 GLL5        0.0000 
     25 CA         11.4720  -28.7377  -23.5145 C.3       1 GLC5        0.0000 
     26 CA         11.9260  -26.9290  -23.7870 C.3       3 GLL5        0.0000 
     27 CA         11.5360  -30.6470  -23.6940 C.3       2 GLP5        0.0000 
     28 CA          7.6617  -27.8343  -19.5995 C.3       1 GLC5        0.0000 
     29 CA          6.6710  -26.8150  -21.2360 C.3       3 GLL5        0.0000 
     30 CA          9.1390  -28.4220  -18.1850 C.3       2 GLP5        0.0000 
     31 CA          6.1847  -28.1048  -22.9020 C.3       1 GLC5        0.0000 
     32 CA          6.1850  -28.9630  -24.7900 C.3       2 GLP5        0.0000 
     33 CA          7.8070  -28.8398  -19.7295 C.3       1 GLC5        0.0000 
     34 CA          7.0510  -29.4870  -21.5780 C.3       3 GLL5        0.0000 
     35 CA          6.3300  -29.1103  -23.0320 C.3       1 GLC5        0.0000 
     36 CA          6.7320  -31.2467  -21.5860 C.3       1 GLC5        0.0000 
     37 CA          6.9890  -33.2360  -21.8980 C.3       2 GLP5        0.0000 
     38 CA          9.3897  -29.8175  -21.3905 C.3       1 GLC5        0.0000 
     39 CA         11.2430  -30.5830  -20.9810 C.3       2 GLP5        0.0000 
     40 CA          8.5252  -28.1840  -20.0575 C.3       1 GLC5        0.0000 
     41 CA          8.0220  -28.6170  -22.0220 C.3       3 GLL5        0.0000 
     42 CA          7.0483  -28.4545  -23.3600 C.3       1 GLC5        0.0000 
     43 CA         10.4300  -27.7665  -19.7360 C.3       1 GLC5        0.0000 
     44 CA         11.4820  -28.8470  -21.1340 C.3       1 GLC5        0.0000 
     45 CA         12.9320  -27.9683  -19.5920 C.3       1 GLC5        0.0000 
     46 CA         13.0240  -28.5350  -17.6880 C.3       2 GLP5        0.0000 
     47 CA         12.7843  -28.9695  -22.5072 C.3       1 GLC5        0.0000 
@<TRIPOS>BOND
@<TRIPOS>SUBSTRUCTURE
     1 GLC5        1 GROUP        1 X    GLC  0     ROOT GLC X 6
     2 GLP5        3 GROUP        1 Y    GLP  0     ROOT GLP Y 13
     3 GLL5        2 GROUP        1 Z    GLL  0     ROOT GLL Z 20
@<TRIPOS>SET

