#    Name: 4chp_IMV_4_ligand
#    Modification time : Mon Apr  7 22:17:45 2014

@<TRIPOS>MOLECULE
4chp_IMV_4_ligand
   35    38     1     0     0
SMALL
NO_CHARGES


@<TRIPOS>ATOM
      1 O1         12.7500  -26.2270  -25.8600 O.co2     1 IMV1217     0.0000 
      2 C2         11.7840  -26.7600  -25.2530 C.2       1 IMV1217     0.0000 
      3 O3         10.7260  -27.1920  -25.7880 O.co2     1 IMV1217     0.0000 
      4 C4         11.9260  -26.9290  -23.7870 C.ar      1 IMV1217     0.0000 
      5 C5         10.8900  -26.7280  -22.8830 C.ar      1 IMV1217     0.0000 
      6 C6          9.5220  -26.3090  -23.3140 C.3       1 IMV1217     0.0000 
      7 N7          8.6180  -26.1990  -22.1900 N.am      1 IMV1217     0.0000 
      8 C8          8.0000  -25.0120  -21.8440 C.2       1 IMV1217     0.0000 
      9 O9          8.4110  -23.8760  -22.0260 O.2       1 IMV1217     0.0000 
     10 C10         6.6980  -25.3410  -21.1680 C.3       1 IMV1217     0.0000 
     11 C11         6.6710  -26.8150  -21.2360 C.ar      1 IMV1217     0.0000 
     12 C12         5.6980  -27.6780  -20.7920 C.ar      1 IMV1217     0.0000 
     13 C13         5.8990  -29.0280  -20.9700 C.ar      1 IMV1217     0.0000 
     14 C14         7.0510  -29.4870  -21.5780 C.ar      1 IMV1217     0.0000 
     15 C15         8.0220  -28.6170  -22.0220 C.ar      1 IMV1217     0.0000 
     16 C16         7.8010  -27.2750  -21.8380 C.ar      1 IMV1217     0.0000 
     17 C17        11.1080  -26.9170  -21.5280 C.ar      1 IMV1217     0.0000 
     18 C18        12.3340  -27.3050  -21.0460 C.ar      1 IMV1217     0.0000 
     19 C19        13.3460  -27.4980  -21.9460 C.ar      1 IMV1217     0.0000 
     20 O20        14.6210  -27.8850  -21.6320 O.3       1 IMV1217     0.0000 
     21 C21        15.1790  -27.9730  -22.9490 C.3       1 IMV1217     0.0000 
     22 O22        14.2820  -27.5650  -23.9920 O.3       1 IMV1217     0.0000 
     23 C23        13.1450  -27.3140  -23.2750 C.ar      1 IMV1217     0.0000 
     24 H           9.1420  -27.0434  -24.0474 H         1 IMV1217     0.0000 
     25 H           9.5992  -25.3433  -23.8460 H         1 IMV1217     0.0000 
     26 H           5.8912  -24.9216  -21.7196 H         1 IMV1217     0.0000 
     27 H           6.7240  -25.0089  -20.1580 H         1 IMV1217     0.0000 
     28 H           4.8509  -27.3292  -20.3433 H         1 IMV1217     0.0000 
     29 H           5.1852  -29.7036  -20.6476 H         1 IMV1217     0.0000 
     30 H           7.1866  -30.5120  -21.7025 H         1 IMV1217     0.0000 
     31 H           8.8686  -28.9578  -22.4683 H         1 IMV1217     0.0000 
     32 H          10.3203  -26.7598  -20.8635 H         1 IMV1217     0.0000 
     33 H          12.4832  -27.4446  -20.0455 H         1 IMV1217     0.0000 
     34 H          15.5254  -29.0240  -23.1418 H         1 IMV1217     0.0000 
     35 H          16.1189  -27.3603  -23.0015 H         1 IMV1217     0.0000 
@<TRIPOS>BOND
     1    2    1 ar   
     2    3    2 ar   
     3    4    2 1    
     4    5    4 ar   
     5   23    4 ar   
     6    6    5 1    
     7   17    5 ar   
     8    7    6 1    
     9   24    6 1    
    10   25    6 1    
    11    8    7 am   
    12   16    7 1    
    13    9    8 2    
    14   10    8 1    
    15   11   10 1    
    16   26   10 1    
    17   27   10 1    
    18   12   11 ar   
    19   16   11 ar   
    20   13   12 ar   
    21   28   12 1    
    22   14   13 ar   
    23   29   13 1    
    24   15   14 ar   
    25   30   14 1    
    26   16   15 ar   
    27   31   15 1    
    28   18   17 ar   
    29   32   17 1    
    30   19   18 ar   
    31   33   18 1    
    32   20   19 1    
    33   23   19 ar   
    34   21   20 1    
    35   22   21 1    
    36   34   21 1    
    37   35   21 1    
    38   23   22 1    
@<TRIPOS>SUBSTRUCTURE
     1 IMV1217     1 GROUP   
@<TRIPOS>SET

