#    Name: 3lxn_MI1_1_INTS_M
#    Modification time : Mon Mar 24 22:25:43 2014

@<TRIPOS>MOLECULE
3lxn_MI1_1_INTS_M
   66     0     9     0     0
SMALL
NO_CHARGES


@<TRIPOS>ATOM
      1 CA         -6.8320    9.3630   14.5315 C.3       3 GLC5        0.0000 
      2 CA         -7.6470    7.9500   16.0750 C.3       9 GLL5        0.0000 
      3 CA         -6.0170   10.7760   12.9880 C.3       6 GLP5        0.0000 
      4 CA         -4.1385    8.1065   16.4805 C.3       3 GLC5        0.0000 
      5 CA         -6.2310    7.4610   16.2010 C.3       9 GLL5        0.0000 
      6 CA         -2.0460    8.7520   16.7600 C.3       6 GLP5        0.0000 
      7 CA         -5.7505    7.9950   14.1990 C.3       3 GLC5        0.0000 
      8 CA         -5.2700    8.5290   12.1970 C.3       6 GLP5        0.0000 
      9 CA        -10.5230    5.3560   14.8095 C.3       3 GLC5        0.0000 
     10 CA         -8.3650    5.6480   15.3270 C.3       9 GLL5        0.0000 
     11 CA        -12.6810    5.0640   14.2920 C.3       6 GLP5        0.0000 
     12 CA        -10.4430    7.4525   16.3535 C.3       3 GLC5        0.0000 
     13 CA         -8.6520    6.8020   16.2620 C.3       9 GLL5        0.0000 
     14 CA        -12.2340    8.1030   16.4450 C.3       6 GLP5        0.0000 
     15 CA         -1.9840    5.7470   13.6940 C.3       3 GLC5        0.0000 
     16 CA         -3.7850    5.3070   12.7170 C.3       9 GLL5        0.0000 
     17 CA         -0.1830    6.1870   14.6710 C.3       6 GLP5        0.0000 
     18 CA         -4.3820    5.2340   10.8815 C.3       3 GLC5        0.0000 
     19 CA         -4.9790    5.1610    9.0460 C.3       6 GLP5        0.0000 
     20 CA         -8.8935    6.0030   19.6510 C.3       3 GLC5        0.0000 
     21 CA         -8.7600    6.2850   17.6870 C.3       9 GLL5        0.0000 
     22 CA         -9.0270    5.7210   21.6150 C.3       6 GLP5        0.0000 
     23 CA         -9.3675    4.1565   17.7140 C.3       3 GLC5        0.0000 
     24 CA         -9.9750    2.0280   17.7410 C.3       6 GLP5        0.0000 
     25 CA         -9.9975    7.4155   18.2095 C.3       3 GLC5        0.0000 
     26 CA        -11.2350    8.5460   18.7320 C.3       6 GLP5        0.0000 
     27 CA         -5.9450   10.7105   17.6515 C.3       3 GLC5        0.0000 
     28 CA         -7.0580    9.0570   18.5060 C.3       9 GLL5        0.0000 
     29 CA         -4.8320   12.3640   16.7970 C.3       6 GLP5        0.0000 
     30 CA         -9.1465    8.8015   18.6190 C.3       3 GLC5        0.0000 
     31 CA         -7.7090   11.9190   16.3965 C.3       3 GLC5        0.0000 
     32 CA         -8.7500   10.0000   16.8320 C.3       9 GLL5        0.0000 
     33 CA         -6.6680   13.8380   15.9610 C.3       6 GLP5        0.0000 
     34 CA         -9.9925    9.2730   17.7820 C.3       3 GLC5        0.0000 
     35 CA         -7.9065   10.0810   13.7520 C.3       3 GLC5        0.0000 
     36 CA         -9.7960    9.3860   14.5160 C.3       9 GLL5        0.0000 
     37 CA        -12.6110   10.0150   13.6800 C.3       3 GLC5        0.0000 
     38 CA        -10.7350   10.0700   13.7810 C.3       9 GLL5        0.0000 
     39 CA        -14.4870    9.9600   13.5790 C.3       6 GLP5        0.0000 
     40 CA        -10.8075    9.5220   11.8485 C.3       3 GLC5        0.0000 
     41 CA        -10.8800    8.9740    9.9160 C.3       6 GLP5        0.0000 
     42 O         -12.0335   12.0755   13.8505 O.2       1 ALC1        0.0000 
     43 O         -11.0780   11.2000   14.4750 O.2       7 ALL1        0.0000 
     44 O         -12.9890   12.9510   13.2260 O.2       4 ALP1        0.0000 
     45 CA        -11.3650   13.1270   15.3305 C.3       3 GLC5        0.0000 
     46 CA        -10.3660   11.2470   15.6350 C.3       9 GLL5        0.0000 
     47 CA        -12.3640   15.0070   15.0260 C.3       6 GLP5        0.0000 
     48 CA        -12.3185   11.2705   16.3480 C.3       3 GLC5        0.0000 
     49 CA        -14.2710   11.2940   17.0610 C.3       6 GLP5        0.0000 
     50 N         -11.7550   12.9570   16.7450 N.am      2 SEC2        0.0000 
     51 N         -10.4780   12.2180   16.5330 N.am      8 SEL2        0.0000 
     52 N         -13.0320   13.6960   16.9570 N.am      5 SEP2        0.0000 
     53 CA         -8.1655   12.9155   16.7600 C.3       3 GLC5        0.0000 
     54 CA         -9.6630   11.9930   17.5590 C.3       9 GLL5        0.0000 
     55 CA        -11.6795   12.7345   17.9065 C.3       3 GLC5        0.0000 
     56 CA        -13.6960   13.4760   18.2540 C.3       6 GLP5        0.0000 
     57 CA        -10.4490   10.2695   18.1455 C.3       3 GLC5        0.0000 
     58 CA         -8.3042    4.1610   14.2153 C.3       3 GLC5        0.0000 
     59 CA         -8.9520    2.9210   13.0110 C.3       6 GLP5        0.0000 
     60 CA         -3.0285    4.0565   13.3675 C.3       3 GLC5        0.0000 
     61 CA         -4.8550    5.0850   13.6950 C.3       9 GLL5        0.0000 
     62 CA         -1.7370    2.9170   13.5290 C.3       6 GLP5        0.0000 
     63 CA         -4.7950    6.8625   12.7015 C.3       3 GLC5        0.0000 
     64 CA         -9.7566   11.9288   13.9523 C.3       3 GLC5        0.0000 
     65 CA         -9.2280   13.2770   12.8640 C.3       6 GLP5        0.0000 
     66 CA        -11.2596    9.3418   15.7427 C.3       3 GLC5        0.0000 
@<TRIPOS>BOND
@<TRIPOS>SUBSTRUCTURE
     1 ALC1       42 GROUP        1 X    ALC  0     ROOT ALC X 1
     2 SEC2       50 GROUP        1 X    SEC  0     **** SEC X 2
     3 GLC5        1 GROUP        1 X    GLC  0     **** GLC X 6
     4 ALP1       44 GROUP        1 Y    ALP  0     ROOT ALP Y 8
     5 SEP2       52 GROUP        1 Y    SEP  0     **** SEP Y 9
     6 GLP5        3 GROUP        1 Y    GLP  0     **** GLP Y 13
     7 ALL1       43 GROUP        1 Z    ALL  0     ROOT ALL Z 15
     8 SEL2       51 GROUP        1 Z    SEL  0     **** SEL Z 16
     9 GLL5        2 GROUP        1 Z    GLL  0     **** GLL Z 20
@<TRIPOS>SET

