#    Name: 3lxn_MI1_1_ligand
#    Modification time : Mon Mar 24 22:25:43 2014

@<TRIPOS>MOLECULE
3lxn_MI1_1_ligand
   43    45     1     0     0
SMALL
NO_CHARGES


@<TRIPOS>ATOM
      1 C1         -7.6470    7.9500   16.0750 C.3       1 MI11        0.0000 
      2 C2         -6.2310    7.4610   16.2010 C.3       1 MI11        0.0000 
      3 C4         -6.9480    5.1540   15.5120 C.3       1 MI11        0.0000 
      4 C5         -8.3650    5.6480   15.3270 C.3       1 MI11        0.0000 
      5 C6         -8.6520    6.8020   16.2620 C.3       1 MI11        0.0000 
      6 N3         -6.0190    6.2600   15.4420 N.am      1 MI11        0.0000 
      7 O21        -4.0280    7.0730   14.7950 O.2       1 MI11        0.0000 
      8 C20        -4.8980    6.2250   14.6790 C.2       1 MI11        0.0000 
      9 C22        -4.8550    5.0850   13.6950 C.3       1 MI11        0.0000 
     10 C23        -3.7850    5.3070   12.7170 C.1       1 MI11        0.0000 
     11 N24        -2.9210    5.5400   11.9730 N.1       1 MI11        0.0000 
     12 C7         -8.7600    6.2850   17.6870 C.3       1 MI11        0.0000 
     13 N8         -7.8760    8.9300   17.1280 N.3       1 MI11        0.0000 
     14 C9         -7.0580    9.0570   18.5060 C.3       1 MI11        0.0000 
     15 C10        -8.7500   10.0000   16.8320 C.ar      1 MI11        0.0000 
     16 C15        -9.5520   10.1300   15.7060 C.ar      1 MI11        0.0000 
     17 C16        -9.7960    9.3860   14.5160 C.2       1 MI11        0.0000 
     18 C11       -10.7350   10.0700   13.7810 C.2       1 MI11        0.0000 
     19 N12       -11.0780   11.2000   14.4750 N.pl3     1 MI11        0.0000 
     20 C14       -10.3660   11.2470   15.6350 C.ar      1 MI11        0.0000 
     21 N17       -10.4780   12.2180   16.5330 N.ar      1 MI11        0.0000 
     22 C18        -9.6630   11.9930   17.5590 C.ar      1 MI11        0.0000 
     23 N19        -8.8330   10.9700   17.7520 N.ar      1 MI11        0.0000 
     24 H          -7.7966    8.3879   15.1160 H         1 MI11        0.0000 
     25 H          -6.0154    7.2952   17.2719 H         1 MI11        0.0000 
     26 H          -5.5546    8.2667   15.8634 H         1 MI11        0.0000 
     27 H          -6.7358    4.4114   14.7322 H         1 MI11        0.0000 
     28 H          -6.8827    4.6456   16.4825 H         1 MI11        0.0000 
     29 H          -9.0626    4.8342   15.5310 H         1 MI11        0.0000 
     30 H          -8.5037    5.9745   14.2952 H         1 MI11        0.0000 
     31 H          -9.6558    7.1955   15.9806 H         1 MI11        0.0000 
     32 H          -5.8247    5.0144   13.1923 H         1 MI11        0.0000 
     33 H          -4.6867    4.1517   14.2415 H         1 MI11        0.0000 
     34 H          -9.3741    8.5729   14.2981 H         1 MI11        0.0000 
     35 H         -11.0853    9.8017   12.9344 H         1 MI11        0.0000 
     36 H         -11.7224   11.8560   14.1843 H         1 MI11        0.0000 
     37 H          -9.6756   12.7576   18.3598 H         1 MI11        0.0000 
     38 H          -7.8848    5.9371   18.0232 H         1 MI11        0.0000 
     39 H          -9.0537    7.0008   18.3205 H         1 MI11        0.0000 
     40 H          -9.4207    5.5381   17.7620 H         1 MI11        0.0000 
     41 H          -6.0855    9.2268   18.3463 H         1 MI11        0.0000 
     42 H          -7.3977    9.8084   19.0717 H         1 MI11        0.0000 
     43 H          -7.1238    8.2238   19.0551 H         1 MI11        0.0000 
@<TRIPOS>BOND
     1    2    1 1    
     2    5    1 1    
     3   13    1 1    
     4   24    1 1    
     5    6    2 1    
     6   25    2 1    
     7   26    2 1    
     8    4    3 1    
     9    6    3 1    
    10   27    3 1    
    11   28    3 1    
    12    5    4 1    
    13   29    4 1    
    14   30    4 1    
    15   12    5 1    
    16   31    5 1    
    17    8    6 am   
    18    8    7 2    
    19    9    8 1    
    20   10    9 1    
    21   32    9 1    
    22   33    9 1    
    23   11   10 3    
    24   38   12 1    
    25   39   12 1    
    26   40   12 1    
    27   14   13 1    
    28   15   13 1    
    29   41   14 1    
    30   42   14 1    
    31   43   14 1    
    32   16   15 ar   
    33   23   15 ar   
    34   17   16 1    
    35   20   16 ar   
    36   18   17 2    
    37   34   17 1    
    38   19   18 1    
    39   35   18 1    
    40   20   19 1    
    41   36   19 1    
    42   21   20 ar   
    43   22   21 ar   
    44   23   22 ar   
    45   37   22 1    
@<TRIPOS>SUBSTRUCTURE
     1 MI11        1 GROUP   
@<TRIPOS>SET

