#    Name: 2osc_MUH_1_INTS_M
#    Modification time : Mon Mar 24 17:49:54 2014

@<TRIPOS>MOLECULE
2osc_MUH_1_INTS_M
   97     0     6     0     0
SMALL
NO_CHARGES


@<TRIPOS>ATOM
      1 CA         52.3950   -4.4500   70.1290 C.3       2 GLC5        0.0000 
      2 CA         52.7180   -2.8080   71.5970 C.3       6 GLL5        0.0000 
      3 CA         52.0720   -6.0920   68.6610 C.3       4 GLP5        0.0000 
      4 CA         53.8580   -1.7780   68.7740 C.3       2 GLC5        0.0000 
      5 CA         52.9460   -1.7080   70.6400 C.3       6 GLL5        0.0000 
      6 CA         54.7700   -1.8480   66.9080 C.3       4 GLP5        0.0000 
      7 CA         52.6210   -2.8885   68.9360 C.3       2 GLC5        0.0000 
      8 CA         52.2960   -4.0690   67.2320 C.3       4 GLP5        0.0000 
      9 CA         51.9875   -4.2220   75.8445 C.3       2 GLC5        0.0000 
     10 CA         52.6000   -3.6530   74.0220 C.3       6 GLL5        0.0000 
     11 CA         51.3750   -4.7910   77.6670 C.3       4 GLP5        0.0000 
     12 CA         56.4540    2.8070   69.6075 C.3       2 GLC5        0.0000 
     13 CA         54.8110    3.6460   68.9570 C.3       6 GLL5        0.0000 
     14 CA         58.0970    1.9680   70.2580 C.3       4 GLP5        0.0000 
     15 CA         55.4150    4.5415   70.5895 C.3       2 GLC5        0.0000 
     16 CA         56.0190    5.4370   72.2220 C.3       4 GLP5        0.0000 
     17 CA         57.8160    7.3720   66.3570 C.3       2 GLC5        0.0000 
     18 CA         56.4190    5.9800   66.5040 C.3       6 GLL5        0.0000 
     19 CA         59.2130    8.7640   66.2100 C.3       4 GLP5        0.0000 
     20 CA         57.6520    3.4985   69.2200 C.3       2 GLC5        0.0000 
     21 CA         57.2070    5.0290   68.1820 C.3       6 GLL5        0.0000 
     22 CA         56.6130    5.2330   70.2020 C.3       2 GLC5        0.0000 
     23 CA         55.8670    7.6000   66.5985 C.3       2 GLC5        0.0000 
     24 CA         55.7310    6.6020   68.4700 C.3       6 GLL5        0.0000 
     25 CA         56.0030    8.5980   64.7270 C.3       4 GLP5        0.0000 
     26 CA         55.8750    6.0195   70.3460 C.3       2 GLC5        0.0000 
     27 CA         53.9065    6.3015   69.2485 C.3       2 GLC5        0.0000 
     28 CA         52.0820    6.0010   70.0270 C.3       4 GLP5        0.0000 
     29 CA         49.9225    1.8735   75.7795 C.3       2 GLC5        0.0000 
     30 CA         50.1420   -0.1910   76.4120 C.3       6 GLL5        0.0000 
     31 CA         49.7030    3.9380   75.1470 C.3       4 GLP5        0.0000 
     32 CA         57.9245   -0.3735   79.4555 C.3       2 GLC5        0.0000 
     33 CA         56.0760   -1.2390   79.5000 C.3       6 GLL5        0.0000 
     34 CA         59.7730    0.4920   79.4110 C.3       4 GLP5        0.0000 
     35 N          58.4075   -1.6875   78.9080 N.am      1 SEC2        0.0000 
     36 N          56.9980   -1.4290   78.5000 N.am      5 SEL2        0.0000 
     37 N          59.8170   -1.9460   79.3160 N.am      3 SEP2        0.0000 
     38 CA         56.2090   -3.3445   77.1640 C.3       2 GLC5        0.0000 
     39 CA         56.6870   -1.4410   77.1590 C.3       6 GLL5        0.0000 
     40 CA         55.7310   -5.2480   77.1690 C.3       4 GLP5        0.0000 
     41 CA         56.7690   -1.4430   75.3045 C.3       2 GLC5        0.0000 
     42 CA         56.8510   -1.4450   73.4500 C.3       4 GLP5        0.0000 
     43 CA         58.2820   -2.7335   77.6295 C.3       2 GLC5        0.0000 
     44 CA         59.8770   -4.0260   78.1000 C.3       4 GLP5        0.0000 
     45 CA         58.2300   -0.4745   78.2850 C.3       2 GLC5        0.0000 
     46 CA         57.0225    0.2780   76.7985 C.3       2 GLC5        0.0000 
     47 CA         57.3580    1.9970   76.4380 C.3       4 GLP5        0.0000 
     48 CA         55.0250   -3.1420   77.5035 C.3       2 GLC5        0.0000 
     49 CA         54.3190   -1.0360   77.8380 C.3       6 GLL5        0.0000 
     50 N          53.8050    3.8740   71.5960 N.am      1 SEC2        0.0000 
     51 N          53.9770    2.5240   71.3930 N.am      5 SEL2        0.0000 
     52 N          53.6330    5.2240   71.7990 N.am      3 SEP2        0.0000 
     53 CA         55.1260   -0.8568   72.6520 C.3       2 GLC5        0.0000 
     54 CA         53.4820   -0.1600   72.5790 C.3       6 GLL5        0.0000 
     55 CA         54.9600   -1.6898   73.3743 C.3       2 GLC5        0.0000 
     56 CA         53.2700   -1.2700   73.5490 C.3       6 GLL5        0.0000 
     57 CA         51.2785   -4.2830   73.1080 C.3       2 GLC5        0.0000 
     58 CA         52.8680   -2.5990   73.0480 C.3       6 GLL5        0.0000 
     59 CA         49.8230   -5.4400   72.6810 C.3       4 GLP5        0.0000 
     60 CA         50.7805   -2.6245   71.0787 C.3       2 GLC5        0.0000 
     61 CA         48.7290   -2.9910   71.0390 C.3       4 GLP5        0.0000 
     62 CA         54.8050   -2.6955   71.0002 C.3       2 GLC5        0.0000 
     63 CA         56.7780   -3.1330   70.8820 C.3       4 GLP5        0.0000 
     64 CA         51.8495    1.2365   67.0530 C.3       2 GLC5        0.0000 
     65 CA         52.6710    2.6070   68.0590 C.3       6 GLL5        0.0000 
     66 CA         50.9780   -0.5590   66.6400 C.3       4 GLP5        0.0000 
     67 CA         54.3413    1.6023   67.7050 C.3       2 GLC5        0.0000 
     68 CA         55.4940    0.5430   66.8330 C.3       4 GLP5        0.0000 
     69 CA         52.6352    4.3313   69.3020 C.3       2 GLC5        0.0000 
     70 CA         53.7060    2.7160   69.0950 C.3       6 GLL5        0.0000 
     71 CA         55.1813    2.3148   67.6005 C.3       2 GLC5        0.0000 
     72 CA         53.4753    5.0438   69.1975 C.3       2 GLC5        0.0000 
     73 CA         56.0720    3.9760   66.2340 C.3       2 GLC5        0.0000 
     74 CA         54.9260    4.5270   67.7790 C.3       6 GLL5        0.0000 
     75 CA         57.7380    3.4810   65.2140 C.3       4 GLP5        0.0000 
     76 CA         53.5653    3.6125   64.8520 C.3       2 GLC5        0.0000 
     77 CA         53.8860    4.4150   66.7290 C.3       6 GLL5        0.0000 
     78 CA         53.8020    3.2890   62.9030 C.3       4 GLP5        0.0000 
     79 CA         54.4112    2.2395   66.8170 C.3       2 GLC5        0.0000 
     80 CA         52.7053    4.9685   68.4140 C.3       2 GLC5        0.0000 
     81 CA         52.7710    3.4570   66.8730 C.3       6 GLL5        0.0000 
     82 CA         55.6812    6.6867   65.7365 C.3       2 GLC5        0.0000 
     83 CA         55.1090    7.6100   64.3630 C.3       4 GLP5        0.0000 
     84 CA         55.4708    7.9173   68.3365 C.3       2 GLC5        0.0000 
     85 CA         56.0880    5.5470   67.7160 C.3       6 GLL5        0.0000 
     86 CA         55.0320    9.7600   68.5800 C.3       4 GLP5        0.0000 
     87 CA         57.2341    4.4386   66.4300 C.3       2 GLC5        0.0000 
     88 CA         57.1896    7.2195   69.1928 C.3       2 GLC5        0.0000 
     89 CA         58.1900    8.4940   70.1760 C.3       4 GLP5        0.0000 
     90 CA         51.8535   -2.6850   77.7363 C.3       2 GLC5        0.0000 
     91 CA         52.8920   -0.7450   77.3580 C.3       6 GLL5        0.0000 
     92 CA         49.7835   -2.0063   76.8875 C.3       2 GLC5        0.0000 
     93 CA         50.4000   -0.1300   77.8440 C.3       6 GLL5        0.0000 
     94 CA         49.2960   -3.8520   76.6470 C.3       4 GLP5        0.0000 
     95 CA         55.9815    0.8750   79.0007 C.3       2 GLC5        0.0000 
     96 CA         54.6940   -1.0350   79.2310 C.3       6 GLL5        0.0000 
     97 CA         56.5780    2.8870   78.6360 C.3       4 GLP5        0.0000 
@<TRIPOS>BOND
@<TRIPOS>SUBSTRUCTURE
     1 SEC2       35 GROUP        1 X    SEC  0     ROOT SEC X 2
     2 GLC5        1 GROUP        1 X    GLC  0     **** GLC X 6
     3 SEP2       37 GROUP        1 Y    SEP  0     ROOT SEP Y 9
     4 GLP5        3 GROUP        1 Y    GLP  0     **** GLP Y 13
     5 SEL2       36 GROUP        1 Z    SEL  0     ROOT SEL Z 16
     6 GLL5        2 GROUP        1 Z    GLL  0     **** GLL Z 20
@<TRIPOS>SET

