#    Name: 2osc_MUH_1_ligand
#    Modification time : Mon Mar 24 17:49:54 2014

@<TRIPOS>MOLECULE
2osc_MUH_1_ligand
   51    54     1     0     0
SMALL
NO_CHARGES


@<TRIPOS>ATOM
      1 C9         53.3200   -0.3770   71.1290 C.ar      1 MUH50       0.0000 
      2 C10        53.4820   -0.1600   72.5790 C.ar      1 MUH50       0.0000 
      3 C11        53.2700   -1.2700   73.5490 C.ar      1 MUH50       0.0000 
      4 C12        52.8680   -2.5990   73.0480 C.ar      1 MUH50       0.0000 
      5 C13        52.7180   -2.8080   71.5970 C.ar      1 MUH50       0.0000 
      6 C14        52.9460   -1.7080   70.6400 C.ar      1 MUH50       0.0000 
      7 C15        52.6000   -3.6530   74.0220 C.3       1 MUH50       0.0000 
      8 N3         53.4690    0.6270   70.1660 N.am      1 MUH50       0.0000 
      9 C8         53.7270    1.9500   70.3340 C.2       1 MUH50       0.0000 
     10 C16        52.6710    2.6070   68.0590 C.ar      1 MUH50       0.0000 
     11 C17        53.7060    2.7160   69.0950 C.ar      1 MUH50       0.0000 
     12 C18        54.8110    3.6460   68.9570 C.ar      1 MUH50       0.0000 
     13 C19        54.9260    4.5270   67.7790 C.ar      1 MUH50       0.0000 
     14 C20        53.8860    4.4150   66.7290 C.ar      1 MUH50       0.0000 
     15 C6         52.7710    3.4570   66.8730 C.ar      1 MUH50       0.0000 
     16 C7         56.0880    5.5470   67.7160 C.3       1 MUH50       0.0000 
     17 F3         56.4190    5.9800   66.5040 F         1 MUH50       0.0000 
     18 F1         57.2070    5.0290   68.1820 F         1 MUH50       0.0000 
     19 F2         55.7310    6.6020   68.4700 F         1 MUH50       0.0000 
     20 N4         53.4930   -1.0900   74.9440 N.pl3     1 MUH50       0.0000 
     21 C21        52.8920   -0.7450   77.3580 C.ar      1 MUH50       0.0000 
     22 C22        51.7720   -0.4130   78.2530 C.ar      1 MUH50       0.0000 
     23 C23        50.4000   -0.1300   77.8440 C.ar      1 MUH50       0.0000 
     24 C24        50.1420   -0.1910   76.4120 C.ar      1 MUH50       0.0000 
     25 N5         51.2020   -0.5090   75.5460 N.ar      1 MUH50       0.0000 
     26 C5         52.5270   -0.7810   75.9310 C.ar      1 MUH50       0.0000 
     27 C1         54.6940   -1.0350   79.2310 C.ar      1 MUH50       0.0000 
     28 C2         56.0760   -1.2390   79.5000 C.ar      1 MUH50       0.0000 
     29 N1         56.9980   -1.4290   78.5000 N.ar      1 MUH50       0.0000 
     30 C3         56.6870   -1.4410   77.1590 C.ar      1 MUH50       0.0000 
     31 N2         55.3620   -1.2450   76.8620 N.ar      1 MUH50       0.0000 
     32 C4         54.3190   -1.0360   77.8380 C.ar      1 MUH50       0.0000 
     33 O1         53.9770    2.5240   71.3930 O.2       1 MUH50       0.0000 
     34 H          53.7392    0.7486   72.9237 H         1 MUH50       0.0000 
     35 H          52.4550   -3.7183   71.2510 H         1 MUH50       0.0000 
     36 H          52.8443   -1.8745   69.6579 H         1 MUH50       0.0000 
     37 H          53.3589    0.2810   69.1290 H         1 MUH50       0.0000 
     38 H          51.9179    1.9669   68.1642 H         1 MUH50       0.0000 
     39 H          55.5219    3.6994   69.6767 H         1 MUH50       0.0000 
     40 H          53.9418    4.9965   65.9132 H         1 MUH50       0.0000 
     41 H          52.0785    3.3935   66.1465 H         1 MUH50       0.0000 
     42 H          54.5035   -1.2014   75.2796 H         1 MUH50       0.0000 
     43 H          51.9843   -0.3776   79.2795 H         1 MUH50       0.0000 
     44 H          49.7019    0.0859   78.4892 H         1 MUH50       0.0000 
     45 H          49.2132   -0.0050   76.0717 H         1 MUH50       0.0000 
     46 H          54.0282   -0.9008   79.9433 H         1 MUH50       0.0000 
     47 H          56.3786   -1.2408   80.4974 H         1 MUH50       0.0000 
     48 H          57.3814   -1.5831   76.4512 H         1 MUH50       0.0000 
     49 H          53.4012   -3.8486   74.5875 H         1 MUH50       0.0000 
     50 H          51.8566   -3.4046   74.6430 H         1 MUH50       0.0000 
     51 H          52.3376   -4.5102   73.5789 H         1 MUH50       0.0000 
@<TRIPOS>BOND
     1    2    1 ar   
     2    6    1 ar   
     3    8    1 1    
     4    3    2 ar   
     5   34    2 1    
     6    4    3 ar   
     7   20    3 1    
     8    5    4 ar   
     9    7    4 1    
    10    6    5 ar   
    11   35    5 1    
    12   36    6 1    
    13   49    7 1    
    14   50    7 1    
    15   51    7 1    
    16    9    8 am   
    17   37    8 1    
    18   11    9 1    
    19   33    9 2    
    20   11   10 ar   
    21   15   10 ar   
    22   38   10 1    
    23   12   11 ar   
    24   13   12 ar   
    25   39   12 1    
    26   14   13 ar   
    27   16   13 1    
    28   15   14 ar   
    29   40   14 1    
    30   41   15 1    
    31   17   16 1    
    32   18   16 1    
    33   19   16 1    
    34   26   20 1    
    35   42   20 1    
    36   22   21 ar   
    37   26   21 ar   
    38   32   21 1    
    39   23   22 ar   
    40   43   22 1    
    41   24   23 ar   
    42   44   23 1    
    43   25   24 ar   
    44   45   24 1    
    45   26   25 ar   
    46   28   27 ar   
    47   32   27 ar   
    48   46   27 1    
    49   29   28 ar   
    50   47   28 1    
    51   30   29 ar   
    52   31   30 ar   
    53   48   30 1    
    54   32   31 ar   
@<TRIPOS>SUBSTRUCTURE
     1 MUH50       1 GROUP   
@<TRIPOS>SET

