#    Name: 3saa_77F_1_INTS_M
#    Modification time : Mon Apr  7 22:10:45 2014

@<TRIPOS>MOLECULE
3saa_77F_1_INTS_M
   85     0     9     0     0
SMALL
NO_CHARGES


@<TRIPOS>ATOM
      1 CA         -1.6190    1.9360  -13.6115 C.3       3 GLC5        0.0000 
      2 CA         -1.9210    1.1860  -11.7490 C.3       9 GLL5        0.0000 
      3 CA         -1.3170    2.6860  -15.4740 C.3       6 GLP5        0.0000 
      4 CA          0.6950    3.2915  -11.2975 C.3       3 GLC5        0.0000 
      5 CA         -1.2620    2.2200  -11.0890 C.3       9 GLL5        0.0000 
      6 CA          2.6520    4.3630  -11.5060 C.3       6 GLP5        0.0000 
      7 O           0.6420    3.2725  -10.1865 O.2       1 ALC1        0.0000 
      8 O           0.0420    2.0370  -10.7720 O.2       7 ALL1        0.0000 
      9 O           1.2420    4.5080   -9.6010 O.2       4 ALP1        0.0000 
     10 CA         -1.3280   -3.0320  -13.2980 C.3       3 GLC5        0.0000 
     11 CA         -2.0970   -3.8820  -15.0430 C.3       9 GLL5        0.0000 
     12 CA         -0.5590   -2.1820  -11.5530 C.3       6 GLP5        0.0000 
     13 CA         -4.2970   -5.3080  -13.7545 C.3       3 GLC5        0.0000 
     14 CA         -3.6150   -3.9030  -15.0660 C.3       9 GLL5        0.0000 
     15 CA         -4.9790   -6.7130  -12.4430 C.3       6 GLP5        0.0000 
     16 CA         -7.9345   -1.6765  -17.8305 C.3       3 GLC5        0.0000 
     17 CA         -6.5350   -1.6300  -16.2740 C.3       9 GLL5        0.0000 
     18 CA         -9.3340   -1.7230  -19.3870 C.3       6 GLP5        0.0000 
     19 N          -6.0210    1.1340  -17.7990 N.am      2 SEC2        0.0000 
     20 N          -5.5180    0.5990  -16.5570 N.am      8 SEL2        0.0000 
     21 N          -6.5240    1.6690  -19.0410 N.am      5 SEP2        0.0000 
     22 O          -4.6600    0.9455  -17.4440 O.2       1 ALC1        0.0000 
     23 O          -5.5180    0.5990  -16.5570 O.2       7 ALL1        0.0000 
     24 O          -3.8020    1.2920  -18.3310 O.2       4 ALP1        0.0000 
     25 O          -3.9625    0.1980  -17.0175 O.2       1 ALC1        0.0000 
     26 O          -2.4070   -0.2030  -17.4780 O.2       4 ALP1        0.0000 
     27 O          -4.9880    2.1435  -14.1935 O.2       1 ALC1        0.0000 
     28 O          -4.8210    0.6090  -13.7450 O.2       7 ALL1        0.0000 
     29 O          -5.1550    3.6780  -14.6420 O.2       4 ALP1        0.0000 
     30 CA         -8.1340    3.5380  -13.5245 C.3       3 GLC5        0.0000 
     31 CA         -7.2060    2.2840  -12.1910 C.3       9 GLL5        0.0000 
     32 CA         -9.0620    4.7920  -14.8580 C.3       6 GLP5        0.0000 
     33 CA        -10.2740   -2.0865  -15.4395 C.3       3 GLC5        0.0000 
     34 CA         -9.4950   -3.7430  -16.5770 C.3       9 GLL5        0.0000 
     35 CA        -11.0530   -0.4300  -14.3020 C.3       6 GLP5        0.0000 
     36 CA         -9.1435   -4.2015  -18.8805 C.3       3 GLC5        0.0000 
     37 CA        -10.0070   -5.8390  -17.6870 C.3       9 GLL5        0.0000 
     38 CA         -8.2800   -2.5640  -20.0740 C.3       6 GLP5        0.0000 
     39 N         -11.1360   -5.7710  -20.0115 N.am      2 SEC2        0.0000 
     40 N         -10.7350   -6.5260  -18.6130 N.am      8 SEL2        0.0000 
     41 N         -11.5370   -5.0160  -21.4100 N.am      5 SEP2        0.0000 
     42 CA         -9.7995   -7.3600  -20.6630 C.3       3 GLC5        0.0000 
     43 CA        -10.4010   -7.8980  -18.8800 C.3       9 GLL5        0.0000 
     44 CA         -9.1980   -6.8220  -22.4460 C.3       6 GLP5        0.0000 
     45 CA        -11.9465   -7.0955  -19.7950 C.3       3 GLC5        0.0000 
     46 CA        -13.4920   -6.2930  -20.7100 C.3       6 GLP5        0.0000 
     47 CA        -11.4160   -8.8540  -17.2645 C.3       3 GLC5        0.0000 
     48 CA        -12.4310   -9.8100  -15.6490 C.3       6 GLP5        0.0000 
     49 CA         -1.2424   -0.2182  -11.5256 C.3       3 GLC5        0.0000 
     50 CA         -1.9740    5.3362  -11.3390 C.3       3 GLC5        0.0000 
     51 CA         -1.9140    3.4160  -10.7680 C.3       9 GLL5        0.0000 
     52 CA         -1.3640    7.1620  -11.7380 C.3       6 GLP5        0.0000 
     53 CA         -1.0895   -5.7455  -14.2750 C.3       3 GLC5        0.0000 
     54 CA         -0.4120   -7.1480  -12.9900 C.3       6 GLP5        0.0000 
     55 CA         -2.3445   -4.0728  -19.1365 C.3       3 GLC5        0.0000 
     56 CA         -2.0990   -4.7420  -17.4520 C.3       9 GLL5        0.0000 
     57 CA         -1.8420   -3.2850  -20.8880 C.3       6 GLP5        0.0000 
     58 CA         -0.3550   -5.8230  -17.6187 C.3       3 GLC5        0.0000 
     59 CA          1.0580   -6.8730  -18.4730 C.3       6 GLP5        0.0000 
     60 CA         -0.6800   -3.3978  -17.0735 C.3       3 GLC5        0.0000 
     61 CA          0.5730   -2.2530  -17.6410 C.3       6 GLP5        0.0000 
     62 CA         -8.1677   -1.6170  -10.2945 C.3       3 GLC5        0.0000 
     63 CA         -7.9100    0.0320  -11.8030 C.3       9 GLL5        0.0000 
     64 CA         -8.3210   -3.4190   -9.4580 C.3       6 GLP5        0.0000 
     65 CA         -9.4872    1.4155  -11.4135 C.3       3 GLC5        0.0000 
     66 CA         -8.1190    0.3380  -10.4590 C.3       9 GLL5        0.0000 
     67 CA        -10.9600    2.6460  -11.6960 C.3       6 GLP5        0.0000 
     68 CA         -9.3329    0.0019  -13.4574 C.3       3 GLC5        0.0000 
     69 CA         -6.5290   -0.3382   -9.4675 C.3       3 GLC5        0.0000 
     70 CA         -5.0630   -1.6530   -8.7210 C.3       6 GLP5        0.0000 
     71 CA         -9.2630    0.6787   -8.8380 C.3       3 GLC5        0.0000 
     72 CA        -10.5310    0.3810   -7.4620 C.3       6 GLP5        0.0000 
     73 CA         -9.3003    2.3768  -11.0512 C.3       3 GLC5        0.0000 
     74 CA         -7.8710    1.6150   -9.9690 C.3       9 GLL5        0.0000 
     75 CA         -9.1405    2.1440  -12.0667 C.3       3 GLC5        0.0000 
     76 CA         -9.9067   -4.0730  -14.2970 C.3       3 GLC5        0.0000 
     77 CA        -10.8120   -4.0960  -12.4040 C.3       6 GLP5        0.0000 
     78 CA         -9.6010   -2.9158  -18.2123 C.3       3 GLC5        0.0000 
     79 CA        -10.9975   -6.5542  -15.8435 C.3       3 GLC5        0.0000 
     80 CA        -12.4790   -6.9460  -14.3820 C.3       6 GLP5        0.0000 
     81 CA        -11.7317   -4.4724  -16.6421 C.3       3 GLC5        0.0000 
     82 CA        -13.5260   -3.9710  -15.9220 C.3       6 GLP5        0.0000 
     83 CA         -2.4444    3.2613  -13.1372 C.3       3 GLC5        0.0000 
     84 CA         -3.2540    3.6050  -11.1120 C.3       9 GLL5        0.0000 
     85 CA         -2.3850    3.7230  -15.0550 C.3       6 GLP5        0.0000 
@<TRIPOS>BOND
@<TRIPOS>SUBSTRUCTURE
     1 ALC1        7 GROUP        1 X    ALC  0     ROOT ALC X 1
     2 SEC2       19 GROUP        1 X    SEC  0     **** SEC X 2
     3 GLC5        1 GROUP        1 X    GLC  0     **** GLC X 6
     4 ALP1        9 GROUP        1 Y    ALP  0     ROOT ALP Y 8
     5 SEP2       21 GROUP        1 Y    SEP  0     **** SEP Y 9
     6 GLP5        3 GROUP        1 Y    GLP  0     **** GLP Y 13
     7 ALL1        8 GROUP        1 Z    ALL  0     ROOT ALL Z 15
     8 SEL2       20 GROUP        1 Z    SEL  0     **** SEL Z 16
     9 GLL5        2 GROUP        1 Z    GLL  0     **** GLL Z 20
@<TRIPOS>SET

