#    Name: 3saa_77F_1_ligand
#    Modification time : Mon Apr  7 22:10:45 2014

@<TRIPOS>MOLECULE
3saa_77F_1_ligand
   78    81     1     0     0
SMALL
NO_CHARGES


@<TRIPOS>ATOM
      1 C21        -4.0220    0.2600  -12.7490 C.2       1 77F200      0.0000 
      2 O22        -3.9720   -0.8550  -12.2840 O.2       1 77F200      0.0000 
      3 C22        -3.2580    1.3560  -12.0660 C.ar      1 77F200      0.0000 
      4 C27        -1.9210    1.1860  -11.7490 C.ar      1 77F200      0.0000 
      5 C26        -1.2620    2.2200  -11.0890 C.ar      1 77F200      0.0000 
      6 C25        -1.9140    3.4160  -10.7680 C.ar      1 77F200      0.0000 
      7 C24        -3.2540    3.6050  -11.1120 C.ar      1 77F200      0.0000 
      8 C23        -3.9120    2.5590  -11.7520 C.ar      1 77F200      0.0000 
      9 O27         0.0420    2.0370  -10.7720 O.3       1 77F200      0.0000 
     10 C11        -2.0970   -3.8820  -15.0430 C.3       1 77F200      0.0000 
     11 N11        -6.3130   -2.9360  -15.6060 N.pl3     1 77F200      0.0000 
     12 C12        -5.7030   -3.9390  -16.4970 C.3       1 77F200      0.0000 
     13 C13        -4.1820   -3.8380  -16.4910 C.3       1 77F200      0.0000 
     14 C14        -3.5950   -4.9790  -17.3180 C.3       1 77F200      0.0000 
     15 C15        -3.6150   -3.9030  -15.0660 C.3       1 77F200      0.0000 
     16 C16        -6.5350   -1.6300  -16.2740 C.3       1 77F200      0.0000 
     17 C17        -5.5810   -0.5720  -15.7100 C.3       1 77F200      0.0000 
     18 C18        -1.4370   -4.8040  -16.0770 C.3       1 77F200      0.0000 
     19 O18        -5.5180    0.5990  -16.5570 O.3       1 77F200      0.0000 
     20 C19        -5.9230   -0.1730  -14.2840 C.3       1 77F200      0.0000 
     21 C20        -2.0990   -4.7420  -17.4520 C.3       1 77F200      0.0000 
     22 N20        -4.8210    0.6090  -13.7450 N.am      1 77F200      0.0000 
     23 C32        -7.1950    0.6710  -14.1610 C.3       1 77F200      0.0000 
     24 C33        -7.9100    0.0320  -11.8030 C.ar      1 77F200      0.0000 
     25 C34        -8.1190    0.3380  -10.4590 C.ar      1 77F200      0.0000 
     26 C35        -7.8710    1.6150   -9.9690 C.ar      1 77F200      0.0000 
     27 C36        -7.4100    2.6000  -10.8440 C.ar      1 77F200      0.0000 
     28 C37        -7.2060    2.2840  -12.1910 C.ar      1 77F200      0.0000 
     29 C38        -7.4360    1.0000  -12.6840 C.ar      1 77F200      0.0000 
     30 S8         -7.5870   -3.5030  -14.7620 S.o2      1 77F200      0.0000 
     31 O9         -8.2890   -2.4000  -14.2010 O.2       1 77F200      0.0000 
     32 O10        -7.0410   -4.3720  -13.7380 O.2       1 77F200      0.0000 
     33 C5         -8.5080   -4.3570  -15.8030 C.ar      1 77F200      0.0000 
     34 C4         -8.2860   -5.7280  -16.0080 C.ar      1 77F200      0.0000 
     35 C6         -9.4950   -3.7430  -16.5770 C.ar      1 77F200      0.0000 
     36 C3         -9.0250   -6.4860  -16.9230 C.ar      1 77F200      0.0000 
     37 C7        -10.2410   -4.4740  -17.4980 C.ar      1 77F200      0.0000 
     38 C2        -10.0070   -5.8390  -17.6870 C.ar      1 77F200      0.0000 
     39 O1        -10.7350   -6.5260  -18.6130 O.3       1 77F200      0.0000 
     40 C1        -10.4010   -7.8980  -18.8800 C.3       1 77F200      0.0000 
     41 H          -1.4293    0.3289  -11.9905 H         1 77F200      0.0000 
     42 H          -1.4016    4.1598  -10.2755 H         1 77F200      0.0000 
     43 H          -3.7283    4.4732  -10.9023 H         1 77F200      0.0000 
     44 H          -4.9129    2.6650  -12.0065 H         1 77F200      0.0000 
     45 H          -1.7449   -4.1723  -14.0376 H         1 77F200      0.0000 
     46 H          -1.7453   -2.8499  -15.2170 H         1 77F200      0.0000 
     47 H          -6.0555   -3.8011  -17.5276 H         1 77F200      0.0000 
     48 H          -5.9844   -4.9526  -16.1826 H         1 77F200      0.0000 
     49 H          -3.8872   -2.9052  -16.9399 H         1 77F200      0.0000 
     50 H          -4.0505   -4.9851  -18.2951 H         1 77F200      0.0000 
     51 H          -3.7704   -5.9152  -16.8130 H         1 77F200      0.0000 
     52 H          -4.0001   -3.0508  -14.4941 H         1 77F200      0.0000 
     53 H          -3.9743   -4.8202  -14.5851 H         1 77F200      0.0000 
     54 H          -7.5605   -1.2907  -16.1163 H         1 77F200      0.0000 
     55 H          -6.3599   -1.7166  -17.3480 H         1 77F200      0.0000 
     56 H          -4.5712   -1.0389  -15.6766 H         1 77F200      0.0000 
     57 H          -1.4747   -5.8375  -15.7058 H         1 77F200      0.0000 
     58 H          -0.3782   -4.5269  -16.1746 H         1 77F200      0.0000 
     59 H          -6.0495   -1.0685  -13.6889 H         1 77F200      0.0000 
     60 H          -1.9244   -3.7637  -17.8895 H         1 77F200      0.0000 
     61 H          -1.6667   -5.5051  -18.0921 H         1 77F200      0.0000 
     62 H          -4.6824    1.5556  -14.2377 H         1 77F200      0.0000 
     63 H          -8.0356    0.1117  -14.5455 H         1 77F200      0.0000 
     64 H          -7.0721    1.5889  -14.7173 H         1 77F200      0.0000 
     65 H          -8.1085   -0.9200  -12.1466 H         1 77F200      0.0000 
     66 H          -8.4638   -0.3975   -9.8182 H         1 77F200      0.0000 
     67 H          -8.0232    1.8322   -8.9829 H         1 77F200      0.0000 
     68 H          -7.2225    3.5460  -10.5039 H         1 77F200      0.0000 
     69 H          -6.8752    3.0247  -12.8384 H         1 77F200      0.0000 
     70 H          -7.5377   -6.2000  -15.4535 H         1 77F200      0.0000 
     71 H          -9.6731   -2.7311  -16.4633 H         1 77F200      0.0000 
     72 H          -8.8556   -7.4796  -17.0321 H         1 77F200      0.0000 
     73 H         -10.9767   -4.0039  -18.0493 H         1 77F200      0.0000 
     74 H          -9.4636   -7.9937  -19.2148 H         1 77F200      0.0000 
     75 H         -10.4788   -8.4655  -18.0603 H         1 77F200      0.0000 
     76 H         -11.0016   -8.2986  -19.5719 H         1 77F200      0.0000 
     77 H           0.3535    2.9256  -10.4352 H         1 77F200      0.0000 
     78 H          -4.5880    0.6026  -16.9247 H         1 77F200      0.0000 
@<TRIPOS>BOND
     1    2    1 2    
     2    3    1 1    
     3   22    1 am   
     4    4    3 ar   
     5    8    3 ar   
     6    5    4 ar   
     7   41    4 1    
     8    6    5 ar   
     9    9    5 1    
    10    7    6 ar   
    11   42    6 1    
    12    8    7 ar   
    13   43    7 1    
    14   44    8 1    
    15   77    9 1    
    16   15   10 1    
    17   18   10 1    
    18   45   10 1    
    19   46   10 1    
    20   12   11 1    
    21   16   11 1    
    22   30   11 1    
    23   13   12 1    
    24   47   12 1    
    25   48   12 1    
    26   14   13 1    
    27   15   13 1    
    28   49   13 1    
    29   21   14 1    
    30   50   14 1    
    31   51   14 1    
    32   52   15 1    
    33   53   15 1    
    34   17   16 1    
    35   54   16 1    
    36   55   16 1    
    37   19   17 1    
    38   20   17 1    
    39   56   17 1    
    40   21   18 1    
    41   57   18 1    
    42   58   18 1    
    43   78   19 1    
    44   22   20 1    
    45   23   20 1    
    46   59   20 1    
    47   60   21 1    
    48   61   21 1    
    49   62   22 1    
    50   29   23 1    
    51   63   23 1    
    52   64   23 1    
    53   25   24 ar   
    54   29   24 ar   
    55   65   24 1    
    56   26   25 ar   
    57   66   25 1    
    58   27   26 ar   
    59   67   26 1    
    60   28   27 ar   
    61   68   27 1    
    62   29   28 ar   
    63   69   28 1    
    64   31   30 2    
    65   32   30 2    
    66   33   30 1    
    67   34   33 ar   
    68   35   33 ar   
    69   36   34 ar   
    70   70   34 1    
    71   37   35 ar   
    72   71   35 1    
    73   38   36 ar   
    74   72   36 1    
    75   38   37 ar   
    76   73   37 1    
    77   39   38 1    
    78   40   39 1    
    79   74   40 1    
    80   75   40 1    
    81   76   40 1    
@<TRIPOS>SUBSTRUCTURE
     1 77F200      1 GROUP   
@<TRIPOS>SET

