#    Name: 4iaa_RTZ_1_INTS_M
#    Modification time : Tue Mar 25 02:47:13 2014

@<TRIPOS>MOLECULE
4iaa_RTZ_1_INTS_M
   61     0     3     0     0
SMALL
NO_CHARGES


@<TRIPOS>ATOM
      1 CA         76.9480   30.6625    5.9060 C.3       1 GLC5        0.0000 
      2 CA         75.2140   31.4420    5.7510 C.3       3 GLL5        0.0000 
      3 CA         78.6820   29.8830    6.0610 C.3       2 GLP5        0.0000 
      4 CA         74.0270   31.9910    4.1820 C.3       1 GLC5        0.0000 
      5 CA         72.8400   32.5400    2.6130 C.3       2 GLP5        0.0000 
      6 CA         79.1385   34.8120    7.7670 C.3       1 GLC5        0.0000 
      7 CA         77.0170   34.3750    7.4390 C.3       3 GLL5        0.0000 
      8 CA         81.2600   35.2490    8.0950 C.3       2 GLP5        0.0000 
      9 CA         74.3290   35.8535   -2.1100 C.3       1 GLC5        0.0000 
     10 CA         75.3130   36.3150   -0.3160 C.3       3 GLL5        0.0000 
     11 CA         73.3450   35.3920   -3.9040 C.3       2 GLP5        0.0000 
     12 CA         77.0190   30.9915    7.0260 C.3       1 GLC5        0.0000 
     13 CA         75.3560   32.1000    7.9910 C.3       3 GLL5        0.0000 
     14 CA         74.3165   33.3180    3.2275 C.3       1 GLC5        0.0000 
     15 CA         75.7930   34.0960    3.8420 C.3       3 GLL5        0.0000 
     16 CA         78.1870   36.7430    2.0275 C.3       1 GLC5        0.0000 
     17 CA         76.0380   36.5450    2.3460 C.3       3 GLL5        0.0000 
     18 CA         80.3360   36.9410    1.7090 C.3       2 GLP5        0.0000 
     19 CA         78.3650   34.8690    1.8180 C.3       1 GLC5        0.0000 
     20 CA         76.2580   35.3020    1.7090 C.3       3 GLL5        0.0000 
     21 CA         80.4720   34.4360    1.9270 C.3       2 GLP5        0.0000 
     22 CA         74.5490   33.9210    2.1610 C.3       1 GLC5        0.0000 
     23 CA         75.4115   40.8875    1.2270 C.3       1 GLC5        0.0000 
     24 CA         75.1690   39.1250    2.4230 C.3       3 GLL5        0.0000 
     25 CA         75.6540   42.6500    0.0310 C.3       2 GLP5        0.0000 
     26 CA         77.3045   34.1270   -2.1825 C.3       1 GLC5        0.0000 
     27 CA         76.3880   33.9620   -0.6690 C.3       3 GLL5        0.0000 
     28 CA         78.2210   34.2920   -3.6960 C.3       2 GLP5        0.0000 
     29 CA         74.3185   33.6230   -0.3745 C.3       1 GLC5        0.0000 
     30 CA         72.2490   33.2840   -0.0800 C.3       2 GLP5        0.0000 
     31 CA         76.9555   39.6423    3.4438 C.3       1 GLC5        0.0000 
     32 CA         78.9010   40.2740    3.6010 C.3       2 GLP5        0.0000 
     33 CA         73.3305   40.0258    3.7748 C.3       1 GLC5        0.0000 
     34 CA         71.6510   41.0410    4.2630 C.3       2 GLP5        0.0000 
     35 CA         78.1360   32.5922    6.9720 C.3       1 GLC5        0.0000 
     36 CA         79.2330   31.1420    5.8200 C.3       2 GLP5        0.0000 
     37 CA         78.1236   29.6116    2.3984 C.3       1 GLC5        0.0000 
     38 CA         76.9310   31.8020    2.6630 C.3       3 GLL5        0.0000 
     39 CA         79.3540   28.1110    2.7440 C.3       2 GLP5        0.0000 
     40 CA         78.4171   30.8331    0.8334 C.3       1 GLC5        0.0000 
     41 CA         79.9410   30.5540   -0.3860 C.3       2 GLP5        0.0000 
     42 CA         74.8490   32.4595    2.4380 C.3       1 GLC5        0.0000 
     43 CA         76.2536   29.7711    1.3429 C.3       1 GLC5        0.0000 
     44 CA         75.6140   28.4300    0.6330 C.3       2 GLP5        0.0000 
     45 CA         78.2980   31.3163   -0.0932 C.3       1 GLC5        0.0000 
     46 CA         76.6560   31.4310   -0.0670 C.3       3 GLL5        0.0000 
     47 CA         76.1345   30.2542    0.4163 C.3       1 GLC5        0.0000 
     48 CA         73.3310   36.9113    0.8272 C.3       1 GLC5        0.0000 
     49 CA         75.0990   37.5180    0.3330 C.3       3 GLL5        0.0000 
     50 CA         71.4560   36.9060    1.6460 C.3       2 GLP5        0.0000 
     51 CA         73.9243   34.5275   -0.0328 C.3       1 GLC5        0.0000 
     52 CA         77.9857   32.4823    5.7343 C.3       1 GLC5        0.0000 
     53 CA         76.8030   34.2470    4.9960 C.3       3 GLL5        0.0000 
     54 CA         76.9025   37.9921   -0.2651 C.3       1 GLC5        0.0000 
     55 CA         75.4580   37.6320    1.6670 C.3       3 GLL5        0.0000 
     56 CA         78.4730   38.7100   -1.3680 C.3       2 GLP5        0.0000 
     57 CA         73.3847   37.6423    1.8455 C.3       1 GLC5        0.0000 
     58 CA         78.6140   33.4943    1.6458 C.3       1 GLC5        0.0000 
     59 CA         76.6540   32.7260    0.4660 C.3       3 GLL5        0.0000 
     60 CA         74.6649   31.8341    0.3136 C.3       1 GLC5        0.0000 
     61 CA         72.6410   31.8650    0.2210 C.3       2 GLP5        0.0000 
@<TRIPOS>BOND
@<TRIPOS>SUBSTRUCTURE
     1 GLC5        1 GROUP        1 X    GLC  0     ROOT GLC X 6
     2 GLP5        3 GROUP        1 Y    GLP  0     ROOT GLP Y 13
     3 GLL5        2 GROUP        1 Z    GLL  0     ROOT GLL Z 20
@<TRIPOS>SET

