#    Name: 4iaa_RTZ_1_ligand
#    Modification time : Tue Mar 25 02:47:13 2014

@<TRIPOS>MOLECULE
4iaa_RTZ_1_ligand
   52    55     1     0     0
SMALL
NO_CHARGES


@<TRIPOS>ATOM
      1 CAA        75.2140   31.4420    5.7510 C.3       1 RTZ401      0.0000 
      2 CAB        74.8510   38.8960    4.1500 C.3       1 RTZ401      0.0000 
      3 CAC        76.9200   30.5150    2.1250 C.ar      1 RTZ401      0.0000 
      4 CAD        76.7910   30.3300    0.7600 C.ar      1 RTZ401      0.0000 
      5 CAE        77.0610   33.7100    8.8090 C.3       1 RTZ401      0.0000 
      6 CAF        75.6960   33.1100    9.0820 C.3       1 RTZ401      0.0000 
      7 CAG        77.0170   34.3750    7.4390 C.3       1 RTZ401      0.0000 
      8 CAH        76.9310   31.8020    2.6630 C.ar      1 RTZ401      0.0000 
      9 CAI        76.6560   31.4310   -0.0670 C.ar      1 RTZ401      0.0000 
     10 CAJ        75.0990   37.5180    0.3330 C.ar      1 RTZ401      0.0000 
     11 CAK        75.3130   36.3150   -0.3160 C.ar      1 RTZ401      0.0000 
     12 CAL        76.8030   34.2470    4.9960 C.3       1 RTZ401      0.0000 
     13 CAM        75.3560   32.1000    7.9910 C.3       1 RTZ401      0.0000 
     14 CAN        75.7930   34.0960    3.8420 C.3       1 RTZ401      0.0000 
     15 CAO        76.0380   36.5450    2.3460 C.ar      1 RTZ401      0.0000 
     16 CAP        76.6740   33.3980    6.3010 C.3       1 RTZ401      0.0000 
     17 CAQ        75.4580   37.6320    1.6670 C.ar      1 RTZ401      0.0000 
     18 CAR        76.7850   32.9560    1.8630 C.ar      1 RTZ401      0.0000 
     19 CAS        76.2580   35.3020    1.7090 C.ar      1 RTZ401      0.0000 
     20 CAT        76.6540   32.7260    0.4660 C.ar      1 RTZ401      0.0000 
     21 CAU        75.8860   35.2270    0.3450 C.ar      1 RTZ401      0.0000 
     22 NAV        75.3970   32.6470    6.6040 N.4       1 RTZ401      0.0000 
     23 NAW        76.4020   34.1480    2.4630 N.pl3     1 RTZ401      0.0000 
     24 SAX        75.1690   39.1250    2.4230 S.3       1 RTZ401      0.0000 
     25 SAY        76.3880   33.9620   -0.6690 S.3       1 RTZ401      0.0000 
     26 H          77.0087   29.7013    2.7517 H         1 RTZ401      0.0000 
     27 H          76.7954   29.3825    0.3635 H         1 RTZ401      0.0000 
     28 H          77.8075   32.9313    8.8063 H         1 RTZ401      0.0000 
     29 H          77.2908   34.4496    9.5598 H         1 RTZ401      0.0000 
     30 H          74.9474   33.8951    9.0888 H         1 RTZ401      0.0000 
     31 H          75.7039   32.6086   10.0440 H         1 RTZ401      0.0000 
     32 H          77.9923   34.8336    7.2270 H         1 RTZ401      0.0000 
     33 H          76.2687   35.1790    7.4500 H         1 RTZ401      0.0000 
     34 H          77.0506   31.9232    3.6896 H         1 RTZ401      0.0000 
     35 H          76.5555   31.3046   -1.0861 H         1 RTZ401      0.0000 
     36 H          74.6832   38.3101   -0.1618 H         1 RTZ401      0.0000 
     37 H          75.0444   36.2140   -1.3130 H         1 RTZ401      0.0000 
     38 H          76.8281   35.3356    5.3026 H         1 RTZ401      0.0000 
     39 H          77.8410   34.0730    4.5813 H         1 RTZ401      0.0000 
     40 H          74.3472   31.6879    8.1996 H         1 RTZ401      0.0000 
     41 H          76.0587   31.2456    8.0757 H         1 RTZ401      0.0000 
     42 H          75.0335   34.8940    3.9405 H         1 RTZ401      0.0000 
     43 H          75.2585   33.1367    3.9736 H         1 RTZ401      0.0000 
     44 H          76.3117   36.6548    3.3371 H         1 RTZ401      0.0000 
     45 H          77.5292   32.6800    6.2875 H         1 RTZ401      0.0000 
     46 H          74.5416   33.2932    6.4691 H         1 RTZ401      0.0000 
     47 H          75.2236   31.6711    4.7776 H         1 RTZ401      0.0000 
     48 H          75.9372   30.7678    5.9006 H         1 RTZ401      0.0000 
     49 H          74.3441   30.9847    5.9359 H         1 RTZ401      0.0000 
     50 H          75.6217   38.4603    4.6150 H         1 RTZ401      0.0000 
     51 H          74.6815   39.7650    4.6149 H         1 RTZ401      0.0000 
     52 H          74.0497   38.3186    4.3067 H         1 RTZ401      0.0000 
@<TRIPOS>BOND
     1   22    1 1    
     2   47    1 1    
     3   48    1 1    
     4   49    1 1    
     5   24    2 1    
     6   50    2 1    
     7   51    2 1    
     8   52    2 1    
     9    4    3 ar   
    10    8    3 ar   
    11   26    3 1    
    12    9    4 ar   
    13   27    4 1    
    14    6    5 1    
    15    7    5 1    
    16   28    5 1    
    17   29    5 1    
    18   13    6 1    
    19   30    6 1    
    20   31    6 1    
    21   16    7 1    
    22   32    7 1    
    23   33    7 1    
    24   18    8 ar   
    25   34    8 1    
    26   20    9 ar   
    27   35    9 1    
    28   11   10 ar   
    29   17   10 ar   
    30   36   10 1    
    31   21   11 ar   
    32   37   11 1    
    33   14   12 1    
    34   16   12 1    
    35   38   12 1    
    36   39   12 1    
    37   22   13 1    
    38   40   13 1    
    39   41   13 1    
    40   23   14 1    
    41   42   14 1    
    42   43   14 1    
    43   17   15 ar   
    44   19   15 ar   
    45   44   15 1    
    46   22   16 1    
    47   45   16 1    
    48   24   17 1    
    49   20   18 ar   
    50   23   18 1    
    51   21   19 ar   
    52   23   19 1    
    53   25   20 1    
    54   25   21 1    
    55   46   22 1    
@<TRIPOS>SUBSTRUCTURE
     1 RTZ401      1 GROUP   
@<TRIPOS>SET

