#    Name: 1nff_NAD_1_INTS_M
#    Modification time : Mon Mar 24 18:07:02 2014

@<TRIPOS>MOLECULE
1nff_NAD_1_INTS_M
  116     0    12     0     0
SMALL
NO_CHARGES


@<TRIPOS>ATOM
      1 NZ          3.8775   45.3805   51.7210 N.4       3 LYC4        0.0000 
      2 NZ          2.9810   44.1970   50.9480 N.4      11 LYL4        0.0000 
      3 NZ          4.5550   47.2860   51.4030 N.4       7 LYP4        0.0000 
      4 N           3.8775   45.3805   51.7210 N.am      2 SEC2        0.0000 
      5 N           2.9810   44.1970   50.9480 N.am     10 SEL2        0.0000 
      6 N           4.7740   46.5640   52.4940 N.am      6 SEP2        0.0000 
      7 N           3.4075   45.4890   50.6785 N.am      2 SEC2        0.0000 
      8 N           3.8340   46.7810   50.4090 N.am      6 SEP2        0.0000 
      9 NZ          3.7855   45.4735   52.9660 N.4       3 LYC4        0.0000 
     10 NZ          2.7970   44.3830   53.4380 N.4      11 LYL4        0.0000 
     11 N           3.7855   45.4735   52.9660 N.am      2 SEC2        0.0000 
     12 N           2.7970   44.3830   53.4380 N.am     10 SEL2        0.0000 
     13 CA          7.7610   40.8090   52.3550 C.3       4 GLC5        0.0000 
     14 CA          6.3210   41.9900   51.6650 C.3      12 GLL5        0.0000 
     15 CA          9.2010   39.6280   53.0450 C.3       8 GLP5        0.0000 
     16 CA          6.3615   44.6465   53.0500 C.3       4 GLC5        0.0000 
     17 CA          6.8580   43.4270   51.5170 C.3      12 GLL5        0.0000 
     18 CA          5.8650   45.8660   54.5830 C.3       8 GLP5        0.0000 
     19 O           9.2985   43.6450   51.9390 O.2       1 ALC1        0.0000 
     20 O           7.7330   43.7730   52.6300 O.2       9 ALL1        0.0000 
     21 O          10.8640   43.5170   51.2480 O.2       5 ALP1        0.0000 
     22 O           8.9055   43.1720   52.8465 O.2       1 ALC1        0.0000 
     23 O          10.0780   42.5710   53.0630 O.2       5 ALP1        0.0000 
     24 O           9.7025   43.9225   50.6205 O.2       1 ALC1        0.0000 
     25 O           8.5410   44.3280   49.9930 O.2       9 ALL1        0.0000 
     26 CA          8.6425   40.7690   51.6120 C.3       4 GLC5        0.0000 
     27 CA          8.0840   41.9100   50.1790 C.3      12 GLL5        0.0000 
     28 CA         10.0640   42.3505   46.8430 C.3       4 GLC5        0.0000 
     29 CA          9.4020   40.6100   47.1080 C.3      12 GLL5        0.0000 
     30 CA         10.7260   44.0910   46.5780 C.3       8 GLP5        0.0000 
     31 CA         11.9360   41.2900   46.7650 C.3       4 GLC5        0.0000 
     32 CA         10.4740   39.9050   46.4810 C.3      12 GLL5        0.0000 
     33 CA         13.3980   42.6750   47.0490 C.3       8 GLP5        0.0000 
     34 CA         12.6155   39.4850   46.4015 C.3       4 GLC5        0.0000 
     35 CA         14.7570   39.0650   46.3220 C.3       8 GLP5        0.0000 
     36 CA         10.4305   38.0635   46.4730 C.3       4 GLC5        0.0000 
     37 CA         10.3870   36.2220   46.4650 C.3       8 GLP5        0.0000 
     38 O          11.9830   39.2550   44.5390 O.2       1 ALC1        0.0000 
     39 O          10.5440   39.6440   45.1810 O.2       9 ALL1        0.0000 
     40 O          13.4220   38.8660   43.8970 O.2       5 ALP1        0.0000 
     41 N          12.3665   38.3205   46.9380 N.am      2 SEC2        0.0000 
     42 N          11.5050   39.4680   47.2830 N.am     10 SEL2        0.0000 
     43 N          13.2280   37.1730   46.5930 N.am      6 SEP2        0.0000 
     44 CA         12.3055   40.6955   50.2340 C.3       4 GLC5        0.0000 
     45 CA         11.4420   39.7350   48.6330 C.3      12 GLL5        0.0000 
     46 CA         13.1690   41.6560   51.8350 C.3       8 GLP5        0.0000 
     47 CA         12.4200   41.2050   47.8410 C.3       4 GLC5        0.0000 
     48 CA         13.0995   39.4000   47.4775 C.3       4 GLC5        0.0000 
     49 CA         11.4850   37.8260   48.6560 C.3       4 GLC5        0.0000 
     50 CA         11.5280   35.9170   48.6790 C.3       8 GLP5        0.0000 
     51 CA          9.9580   38.5640   49.2765 C.3       4 GLC5        0.0000 
     52 CA          8.4740   37.3930   49.9200 C.3       8 GLP5        0.0000 
     53 CA         10.5095   42.4770   48.1735 C.3       4 GLC5        0.0000 
     54 CA          9.5020   40.7930   48.4780 C.3      12 GLL5        0.0000 
     55 CA         11.5170   44.1610   47.8690 C.3       8 GLP5        0.0000 
     56 N          -0.5605   42.8045   54.0140 N.am      2 SEC2        0.0000 
     57 N          -0.0810   41.7370   53.8020 N.am     10 SEL2        0.0000 
     58 N          -1.0400   43.8720   54.2260 N.am      6 SEP2        0.0000 
     59 N           2.4410   41.6410   56.0455 N.am      2 SEC2        0.0000 
     60 N           2.2510   41.6810   54.5850 N.am     10 SEL2        0.0000 
     61 N           2.6310   41.6010   57.5060 N.am      6 SEP2        0.0000 
     62 N           3.5210   41.3115   54.7095 N.am      2 SEC2        0.0000 
     63 N           4.7910   40.9420   54.8340 N.am      6 SEP2        0.0000 
     64 CA          0.6720   38.9785   54.3650 C.3       4 GLC5        0.0000 
     65 CA          2.4310   39.1160   53.0520 C.3      12 GLL5        0.0000 
     66 CA         -1.0870   38.8410   55.6780 C.3       8 GLP5        0.0000 
     67 CA          1.4405   35.9635   53.0330 C.3       4 GLC5        0.0000 
     68 CA          2.0100   37.8020   52.4300 C.3      12 GLL5        0.0000 
     69 CA          0.8710   34.1250   53.6360 C.3       8 GLP5        0.0000 
     70 CA          3.1390   37.9365   49.4200 C.3       4 GLC5        0.0000 
     71 CA          1.8660   37.7210   50.8980 C.3      12 GLL5        0.0000 
     72 CA          4.4120   38.1520   47.9420 C.3       8 GLP5        0.0000 
     73 N           1.4200   35.4810   49.6785 N.am      2 SEC2        0.0000 
     74 N           2.2300   36.3890   50.4580 N.am     10 SEL2        0.0000 
     75 N           0.6100   34.5730   48.8990 N.am      6 SEP2        0.0000 
     76 CA         -0.1250   36.3150   49.3740 C.3       4 GLC5        0.0000 
     77 CA          0.3820   37.9340   50.6810 C.3      12 GLL5        0.0000 
     78 CA         -0.6320   34.6960   48.0670 C.3       8 GLP5        0.0000 
     79 N          -1.3910   37.5020   49.0565 N.am      2 SEC2        0.0000 
     80 N          -0.0600   37.4180   49.4060 N.am     10 SEL2        0.0000 
     81 N          -2.7220   37.5860   48.7070 N.am      6 SEP2        0.0000 
     82 N           0.2750   35.9955   49.1525 N.am      2 SEC2        0.0000 
     83 CA         -0.6380   38.0215   53.7765 C.3       4 GLC5        0.0000 
     84 CA         -0.1890   37.2020   51.8750 C.3      12 GLL5        0.0000 
     85 CA          0.3410   35.6635   52.7555 C.3       4 GLC5        0.0000 
     86 CA         -1.3990   40.0425   50.9190 C.3       4 GLC5        0.0000 
     87 CA         -1.9640   38.9010   52.4980 C.3      12 GLL5        0.0000 
     88 CA         -0.8340   41.1840   49.3400 C.3       8 GLP5        0.0000 
     89 N          -5.5980   40.8780   54.5530 N.am      2 SEC2        0.0000 
     90 N          -4.8630   40.8830   53.3680 N.am     10 SEL2        0.0000 
     91 N          -6.3330   40.8730   55.7380 N.am      6 SEP2        0.0000 
     92 N          -4.9920   42.4775   53.0550 N.am      2 SEC2        0.0000 
     93 N          -5.1210   44.0720   52.7420 N.am      6 SEP2        0.0000 
     94 O          -3.9280   42.8755   52.9380 O.2       1 ALC1        0.0000 
     95 O          -2.7350   41.6790   53.1340 O.2       9 ALL1        0.0000 
     96 O          -5.1210   44.0720   52.7420 O.2       5 ALP1        0.0000 
     97 CA         -1.8450   37.6985   53.9430 C.3       4 GLC5        0.0000 
     98 CA         -2.6030   36.5560   52.2080 C.3      12 GLL5        0.0000 
     99 CA         -0.8660   35.3405   52.9220 C.3       4 GLC5        0.0000 
    100 CA          8.0215   45.3070   51.2853 C.3       4 GLC5        0.0000 
    101 CA          8.8540   47.2350   51.7300 C.3       8 GLP5        0.0000 
    102 CA          8.9630   39.0473   48.8565 C.3       4 GLC5        0.0000 
    103 CA          8.4800   39.0682   45.8543 C.3       4 GLC5        0.0000 
    104 CA          7.0220   37.8790   44.9140 C.3       8 GLP5        0.0000 
    105 CA          1.0160   39.4487   49.8582 C.3       4 GLC5        0.0000 
    106 CA          0.9080   41.0700   48.9270 C.3       8 GLP5        0.0000 
    107 CA         -4.2165   38.8120   54.8708 C.3       4 GLC5        0.0000 
    108 CA         -3.3620   39.2470   52.8160 C.3      12 GLL5        0.0000 
    109 CA         -4.5590   38.9160   56.9250 C.3       8 GLP5        0.0000 
    110 CA         -2.3057   38.7312   54.2075 C.3       4 GLC5        0.0000 
    111 CA         -4.3860   38.1690   52.8170 C.3      12 GLL5        0.0000 
    112 CA         -3.8743   35.3972   51.4705 C.3       4 GLC5        0.0000 
    113 CA         -3.8920   36.7810   52.4880 C.3      12 GLL5        0.0000 
    114 CA         -4.5010   34.1260   50.5930 C.3       8 GLP5        0.0000 
    115 CA         -3.4760   35.9947   53.8651 C.3       4 GLC5        0.0000 
    116 CA         -3.5810   34.9740   55.3000 C.3       8 GLP5        0.0000 
@<TRIPOS>BOND
@<TRIPOS>SUBSTRUCTURE
     1 ALC1       19 GROUP        1 X    ALC  0     ROOT ALC X 1
     2 SEC2        4 GROUP        1 X    SEC  0     **** SEC X 2
     3 LYC4        1 GROUP        1 X    LYC  0     **** LYC X 4
     4 GLC5       13 GROUP        1 X    GLC  0     **** GLC X 6
     5 ALP1       21 GROUP        1 Y    ALP  0     ROOT ALP Y 8
     6 SEP2        6 GROUP        1 Y    SEP  0     **** SEP Y 9
     7 LYP4        3 GROUP        1 Y    LYP  0     **** LYP Y 11
     8 GLP5       15 GROUP        1 Y    GLP  0     **** GLP Y 13
     9 ALL1       20 GROUP        1 Z    ALL  0     ROOT ALL Z 15
    10 SEL2        5 GROUP        1 Z    SEL  0     **** SEL Z 16
    11 LYL4        2 GROUP        1 Z    LYL  0     **** LYL Z 18
    12 GLL5       14 GROUP        1 Z    GLL  0     **** GLL Z 20
@<TRIPOS>SET

