#    Name: 1nff_NAD_1_ligand
#    Modification time : Mon Mar 24 18:07:02 2014

@<TRIPOS>MOLECULE
1nff_NAD_1_ligand
   70    74     1     0     0
SMALL
NO_CHARGES


@<TRIPOS>ATOM
      1 PA          2.9660   43.4980   52.2540 P.3       1 NAD1300     0.0000 
      2 O1A         2.9810   44.1970   50.9480 O.co2     1 NAD1300     0.0000 
      3 O2A         2.7970   44.3830   53.4380 O.co2     1 NAD1300     0.0000 
      4 O5B         4.3390   42.7570   52.4810 O.3       1 NAD1300     0.0000 
      5 C5B         4.8330   41.8550   51.4760 C.3       1 NAD1300     0.0000 
      6 C4B         6.3210   41.9900   51.6650 C.3       1 NAD1300     0.0000 
      7 O4B         7.0300   41.1840   50.6610 O.3       1 NAD1300     0.0000 
      8 C3B         6.8580   43.4270   51.5170 C.3       1 NAD1300     0.0000 
      9 O3B         7.7330   43.7730   52.6300 O.3       1 NAD1300     0.0000 
     10 C2B         7.5200   43.3310   50.1640 C.3       1 NAD1300     0.0000 
     11 O2B         8.5410   44.3280   49.9930 O.3       1 NAD1300     0.0000 
     12 C1B         8.0840   41.9100   50.1790 C.3       1 NAD1300     0.0000 
     13 N9A         8.3940   41.4800   48.8360 N.pl3     1 NAD1300     0.0000 
     14 C8A         7.6640   41.6840   47.6930 C.2       1 NAD1300     0.0000 
     15 N7A         8.2420   41.1680   46.6000 N.2       1 NAD1300     0.0000 
     16 C5A         9.4020   40.6100   47.1080 C.ar      1 NAD1300     0.0000 
     17 C6A        10.4740   39.9050   46.4810 C.ar      1 NAD1300     0.0000 
     18 N6A        10.5440   39.6440   45.1810 N.pl3     1 NAD1300     0.0000 
     19 N1A        11.5050   39.4680   47.2830 N.ar      1 NAD1300     0.0000 
     20 C2A        11.4420   39.7350   48.6330 C.ar      1 NAD1300     0.0000 
     21 N3A        10.4900   40.3820   49.2870 N.ar      1 NAD1300     0.0000 
     22 C4A         9.5020   40.7930   48.4780 C.ar      1 NAD1300     0.0000 
     23 O3          1.8450   42.3650   52.1760 O.3       1 NAD1300     0.0000 
     24 PN          1.3190   41.4900   53.4230 P.3       1 NAD1300     0.0000 
     25 O1N        -0.0810   41.7370   53.8020 O.co2     1 NAD1300     0.0000 
     26 O2N         2.2510   41.6810   54.5850 O.co2     1 NAD1300     0.0000 
     27 O5D         1.3270   40.0290   52.8140 O.3       1 NAD1300     0.0000 
     28 C5D         2.4310   39.1160   53.0520 C.3       1 NAD1300     0.0000 
     29 C4D         2.0100   37.8020   52.4300 C.3       1 NAD1300     0.0000 
     30 O4D         0.6870   37.4900   52.9590 O.3       1 NAD1300     0.0000 
     31 C3D         1.8660   37.7210   50.8980 C.3       1 NAD1300     0.0000 
     32 O3D         2.2300   36.3890   50.4580 O.3       1 NAD1300     0.0000 
     33 C2D         0.3820   37.9340   50.6810 C.3       1 NAD1300     0.0000 
     34 O2D        -0.0600   37.4180   49.4060 O.3       1 NAD1300     0.0000 
     35 C1D        -0.1890   37.2020   51.8750 C.3       1 NAD1300     0.0000 
     36 N1N        -1.5830   37.5650   52.1900 N.pl3     1 NAD1300     0.0000 
     37 C2N        -1.9640   38.9010   52.4980 C.ar      1 NAD1300     0.0000 
     38 C3N        -3.3620   39.2470   52.8160 C.ar      1 NAD1300     0.0000 
     39 C7N        -3.6610   40.6800   53.1210 C.2       1 NAD1300     0.0000 
     40 O7N        -4.8630   40.8830   53.3680 O.2       1 NAD1300     0.0000 
     41 N7N        -2.7350   41.6790   53.1340 N.am      1 NAD1300     0.0000 
     42 C4N        -4.3860   38.1690   52.8170 C.ar      1 NAD1300     0.0000 
     43 C5N        -3.8920   36.7810   52.4880 C.ar      1 NAD1300     0.0000 
     44 C6N        -2.6030   36.5560   52.2080 C.ar      1 NAD1300     0.0000 
     45 H           4.5759   42.1742   50.4940 H         1 NAD1300     0.0000 
     46 H           4.5469   40.8485   51.6695 H         1 NAD1300     0.0000 
     47 H           6.5995   41.6355   52.6519 H         1 NAD1300     0.0000 
     48 H           6.0025   44.0610   51.4332 H         1 NAD1300     0.0000 
     49 H           6.7576   43.3687   49.4185 H         1 NAD1300     0.0000 
     50 H           8.9211   41.8994   50.8150 H         1 NAD1300     0.0000 
     51 H           6.7957   42.1679   47.6930 H         1 NAD1300     0.0000 
     52 H          11.4638   39.5544   44.7991 H         1 NAD1300     0.0000 
     53 H           9.6706   39.5605   44.7013 H         1 NAD1300     0.0000 
     54 H          12.2890   39.3594   49.2170 H         1 NAD1300     0.0000 
     55 H           2.5963   38.9657   54.1060 H         1 NAD1300     0.0000 
     56 H           3.3329   39.4563   52.5709 H         1 NAD1300     0.0000 
     57 H           2.6871   37.0136   52.7511 H         1 NAD1300     0.0000 
     58 H           2.4077   38.4831   50.4602 H         1 NAD1300     0.0000 
     59 H           0.1870   38.9777   50.8101 H         1 NAD1300     0.0000 
     60 H          -0.1317   36.1293   51.6468 H         1 NAD1300     0.0000 
     61 H          -1.2729   39.6501   52.5048 H         1 NAD1300     0.0000 
     62 H          -3.0674   42.5837   53.4005 H         1 NAD1300     0.0000 
     63 H          -1.8043   41.4197   52.8759 H         1 NAD1300     0.0000 
     64 H          -5.3145   38.3358   53.0149 H         1 NAD1300     0.0000 
     65 H          -4.6130   36.0492   52.4986 H         1 NAD1300     0.0000 
     66 H          -2.2722   35.5718   51.9773 H         1 NAD1300     0.0000 
     67 H           8.5383   43.1912   52.5165 H         1 NAD1300     0.0000 
     68 H           9.3307   43.9788   50.4975 H         1 NAD1300     0.0000 
     69 H           1.9058   35.7798   51.1818 H         1 NAD1300     0.0000 
     70 H           0.0323   38.1846   48.7707 H         1 NAD1300     0.0000 
@<TRIPOS>BOND
     1    2    1 ar   
     2    3    1 ar   
     3    4    1 1    
     4   23    1 1    
     5    5    4 1    
     6    6    5 1    
     7   45    5 1    
     8   46    5 1    
     9    7    6 1    
    10    8    6 1    
    11   47    6 1    
    12   12    7 1    
    13    9    8 1    
    14   10    8 1    
    15   48    8 1    
    16   67    9 1    
    17   11   10 1    
    18   12   10 1    
    19   49   10 1    
    20   68   11 1    
    21   13   12 1    
    22   50   12 1    
    23   14   13 1    
    24   22   13 1    
    25   15   14 2    
    26   51   14 1    
    27   16   15 1    
    28   17   16 ar   
    29   22   16 ar   
    30   18   17 1    
    31   19   17 ar   
    32   52   18 1    
    33   53   18 1    
    34   20   19 ar   
    35   21   20 ar   
    36   54   20 1    
    37   22   21 ar   
    38   24   23 1    
    39   25   24 ar   
    40   26   24 ar   
    41   27   24 1    
    42   28   27 1    
    43   29   28 1    
    44   55   28 1    
    45   56   28 1    
    46   30   29 1    
    47   31   29 1    
    48   57   29 1    
    49   35   30 1    
    50   32   31 1    
    51   33   31 1    
    52   58   31 1    
    53   69   32 1    
    54   34   33 1    
    55   35   33 1    
    56   59   33 1    
    57   70   34 1    
    58   36   35 1    
    59   60   35 1    
    60   37   36 ar   
    61   44   36 ar   
    62   38   37 ar   
    63   61   37 1    
    64   39   38 1    
    65   42   38 ar   
    66   40   39 2    
    67   41   39 am   
    68   62   41 1    
    69   63   41 1    
    70   43   42 ar   
    71   64   42 1    
    72   44   43 ar   
    73   65   43 1    
    74   66   44 1    
@<TRIPOS>SUBSTRUCTURE
     1 NAD1300     1 GROUP   
@<TRIPOS>SET

