#    Name: 3si4_B04_1_INTS_M
#    Modification time : Tue Mar 25 12:38:46 2014

@<TRIPOS>MOLECULE
3si4_B04_1_INTS_M
   50     0     9     0     0
SMALL
NO_CHARGES


@<TRIPOS>ATOM
      1 O          15.6750  -14.8470   23.9700 O.2       1 ALC1        0.0000 
      2 O          16.6960  -15.5690   23.2920 O.2       7 ALL1        0.0000 
      3 O          14.6540  -14.1250   24.6480 O.2       4 ALP1        0.0000 
      4 N          15.8245  -12.1650   24.0830 N.am      2 SEC2        0.0000 
      5 N          16.7810  -12.7970   23.0920 N.am      8 SEL2        0.0000 
      6 N          14.8680  -11.5330   25.0740 N.am      5 SEP2        0.0000 
      7 CA         17.8885  -13.2920   26.2210 C.3       3 GLC5        0.0000 
      8 CA         18.4400  -14.7650   24.7430 C.3       9 GLL5        0.0000 
      9 CA         17.3370  -11.8190   27.6990 C.3       6 GLP5        0.0000 
     10 CA         21.1090  -10.9345   24.1550 C.3       3 GLC5        0.0000 
     11 CA         21.3220  -12.4660   25.5340 C.3       9 GLL5        0.0000 
     12 CA         20.8960   -9.4030   22.7760 C.3       6 GLP5        0.0000 
     13 CA         22.8690  -11.5270   23.7690 C.3       3 GLC5        0.0000 
     14 CA         22.3970  -13.1350   24.9610 C.3       9 GLL5        0.0000 
     15 CA         23.3410   -9.9190   22.5770 C.3       6 GLP5        0.0000 
     16 CA         17.9465  -11.0210   22.9410 C.3       3 GLC5        0.0000 
     17 CA         18.2630  -11.7660   21.1060 C.3       9 GLL5        0.0000 
     18 CA         17.6300  -10.2760   24.7760 C.3       6 GLP5        0.0000 
     19 O          16.6475   -9.4980   21.5180 O.2       1 ALC1        0.0000 
     20 O          16.0900  -10.6930   20.7800 O.2       7 ALL1        0.0000 
     21 O          17.2050   -8.3030   22.2560 O.2       4 ALP1        0.0000 
     22 CA         19.3693  -14.7338   26.7130 C.3       3 GLC5        0.0000 
     23 CA         19.5990  -14.9820   28.6530 C.3       6 GLP5        0.0000 
     24 CA         20.1410  -13.8580   27.0750 C.3       3 GLC5        0.0000 
     25 CA         20.0440  -13.0020   25.4600 C.3       9 GLL5        0.0000 
     26 CA         19.1565  -11.5050   25.1365 C.3       3 GLC5        0.0000 
     27 CA         23.1028  -11.9937   26.4387 C.3       3 GLC5        0.0000 
     28 CA         24.3460  -11.1870   27.6300 C.3       6 GLP5        0.0000 
     29 CA         19.0730  -10.1595   19.3590 C.3       3 GLC5        0.0000 
     30 CA         19.3680   -8.6050   18.1710 C.3       6 GLP5        0.0000 
     31 CA         21.8445  -13.4813   20.2643 C.3       3 GLC5        0.0000 
     32 CA         20.3510  -12.6940   20.3150 C.3       9 GLL5        0.0000 
     33 CA         23.6870  -13.7260   19.8090 C.3       6 GLP5        0.0000 
     34 CA         20.2303  -10.8035   21.6035 C.3       3 GLC5        0.0000 
     35 CA         19.2632  -13.9383   19.1359 C.3       3 GLC5        0.0000 
     36 CA         19.2930  -11.6620   19.9880 C.3       9 GLL5        0.0000 
     37 CA         18.7890  -14.8980   17.6340 C.3       6 GLP5        0.0000 
     38 CA         15.2415  -10.0910   22.6110 C.3       3 GLC5        0.0000 
     39 CA         14.7210  -10.5330   20.2950 C.3       9 GLL5        0.0000 
     40 CA         16.2580   -9.7120   24.3590 C.3       6 GLP5        0.0000 
     41 CA         12.8835   -7.4600   21.9802 C.3       3 GLC5        0.0000 
     42 CA         13.5170   -9.1730   22.0410 C.3       9 GLL5        0.0000 
     43 CA         12.7040   -5.7950   21.3970 C.3       6 GLP5        0.0000 
     44 CA         10.8223   -8.4262   22.6552 C.3       3 GLC5        0.0000 
     45 CA         12.6090   -9.0770   23.0860 C.3       9 GLL5        0.0000 
     46 CA          9.3800   -7.2060   22.0240 C.3       6 GLP5        0.0000 
     47 CA         14.3747   -9.6913   23.6921 C.3       3 GLC5        0.0000 
     48 CA         11.9200  -10.2160   23.4870 C.3       9 GLL5        0.0000 
     49 CA         13.0564  -11.3784   24.4751 C.3       3 GLC5        0.0000 
     50 CA         13.8960  -12.2240   25.8880 C.3       6 GLP5        0.0000 
@<TRIPOS>BOND
@<TRIPOS>SUBSTRUCTURE
     1 ALC1        1 GROUP        1 X    ALC  0     ROOT ALC X 1
     2 SEC2        4 GROUP        1 X    SEC  0     **** SEC X 2
     3 GLC5        7 GROUP        1 X    GLC  0     **** GLC X 6
     4 ALP1        3 GROUP        1 Y    ALP  0     ROOT ALP Y 8
     5 SEP2        6 GROUP        1 Y    SEP  0     **** SEP Y 9
     6 GLP5        9 GROUP        1 Y    GLP  0     **** GLP Y 13
     7 ALL1        2 GROUP        1 Z    ALL  0     ROOT ALL Z 15
     8 SEL2        5 GROUP        1 Z    SEL  0     **** SEL Z 16
     9 GLL5        8 GROUP        1 Z    GLL  0     **** GLL Z 20
@<TRIPOS>SET

