#    Name: 3si4_B04_1_ligand
#    Modification time : Tue Mar 25 12:38:46 2014

@<TRIPOS>MOLECULE
3si4_B04_1_ligand
   55    57     1     0     0
SMALL
NO_CHARGES


@<TRIPOS>ATOM
      1 N4         16.6960  -15.5690   23.2920 N.4       1 B041        0.0000 
      2 C3         17.9550  -14.8470   23.2990 C.3       1 B041        0.0000 
      3 C5         17.7070  -13.4920   22.6930 C.2       1 B041        0.0000 
      4 O7         16.7810  -12.7970   23.0920 O.2       1 B041        0.0000 
      5 C2         18.4400  -14.7650   24.7430 C.3       1 B041        0.0000 
      6 C1         19.8390  -14.2060   24.8030 C.ar      1 B041        0.0000 
      7 C8         20.9130  -14.8860   24.2310 C.ar      1 B041        0.0000 
      8 C12        20.0440  -13.0020   25.4600 C.ar      1 B041        0.0000 
      9 C9         22.1940  -14.3480   24.3120 C.ar      1 B041        0.0000 
     10 C11        21.3220  -12.4660   25.5340 C.ar      1 B041        0.0000 
     11 C10        22.3970  -13.1350   24.9610 C.ar      1 B041        0.0000 
     12 N6         18.5140  -13.0720   21.7160 N.am      1 B041        0.0000 
     13 C13        18.2630  -11.7660   21.1060 C.3       1 B041        0.0000 
     14 C14        16.8660  -11.7520   20.5410 C.2       1 B041        0.0000 
     15 O15        16.4590  -12.7100   19.8990 O.2       1 B041        0.0000 
     16 C19        19.2930  -11.6620   19.9880 C.3       1 B041        0.0000 
     17 C20        20.3510  -12.6940   20.3150 C.3       1 B041        0.0000 
     18 C21        19.6530  -13.7790   21.1240 C.3       1 B041        0.0000 
     19 N16        16.0900  -10.6930   20.7800 N.am      1 B041        0.0000 
     20 C17        14.7210  -10.5330   20.2950 C.3       1 B041        0.0000 
     21 C18        13.7290  -10.4070   21.4310 C.ar      1 B041        0.0000 
     22 C22        13.5170   -9.1730   22.0410 C.ar      1 B041        0.0000 
     23 C23        12.6090   -9.0770   23.0860 C.ar      1 B041        0.0000 
     24 C24        11.9200  -10.2160   23.4870 C.ar      1 B041        0.0000 
     25 C25        12.1690  -11.4190   22.8380 C.ar      1 B041        0.0000 
     26 N26        13.0570  -11.4940   21.8380 N.pl3     1 B041        0.0000 
     27 C27        13.2920  -12.7830   21.1790 C.3       1 B041        0.0000 
     28 H          18.6833  -15.3742   22.7156 H         1 B041        0.0000 
     29 H          18.4237  -15.7637   25.1805 H         1 B041        0.0000 
     30 H          17.7631  -14.1245   25.3093 H         1 B041        0.0000 
     31 H          20.7587  -15.7801   23.7521 H         1 B041        0.0000 
     32 H          19.2524  -12.5079   25.8908 H         1 B041        0.0000 
     33 H          22.9884  -14.8468   23.8926 H         1 B041        0.0000 
     34 H          21.4755  -11.5677   26.0159 H         1 B041        0.0000 
     35 H          23.3419  -12.7336   25.0167 H         1 B041        0.0000 
     36 H          18.4077  -10.9912   21.7933 H         1 B041        0.0000 
     37 H          19.7242  -10.6838   19.9877 H         1 B041        0.0000 
     38 H          18.8314  -11.8955   19.0525 H         1 B041        0.0000 
     39 H          21.1261  -12.2480   20.9064 H         1 B041        0.0000 
     40 H          20.7416  -13.1162   19.4102 H         1 B041        0.0000 
     41 H          19.3304  -14.5510   20.4639 H         1 B041        0.0000 
     42 H          20.3205  -14.1366   21.8739 H         1 B041        0.0000 
     43 H          16.4482   -9.8791   21.3611 H         1 B041        0.0000 
     44 H          14.4290  -11.3947   19.6718 H         1 B041        0.0000 
     45 H          14.6389   -9.6352   19.6599 H         1 B041        0.0000 
     46 H          14.0276   -8.3455   21.7196 H         1 B041        0.0000 
     47 H          12.4484   -8.1832   23.5545 H         1 B041        0.0000 
     48 H          11.2400  -10.1687   24.2485 H         1 B041        0.0000 
     49 H          11.6441  -12.2661   23.1511 H         1 B041        0.0000 
     50 H          15.9132  -14.9513   23.3671 H         1 B041        0.0000 
     51 H          16.5744  -16.0953   22.4505 H         1 B041        0.0000 
     52 H          16.6339  -16.2146   24.0531 H         1 B041        0.0000 
     53 H          14.2461  -13.0720   21.2580 H         1 B041        0.0000 
     54 H          12.7316  -13.5103   21.5752 H         1 B041        0.0000 
     55 H          13.0768  -12.7459   20.2031 H         1 B041        0.0000 
@<TRIPOS>BOND
     1    2    1 1    
     2   50    1 1    
     3   51    1 1    
     4   52    1 1    
     5    3    2 1    
     6    5    2 1    
     7   28    2 1    
     8    4    3 2    
     9   12    3 am   
    10    6    5 1    
    11   29    5 1    
    12   30    5 1    
    13    7    6 ar   
    14    8    6 ar   
    15    9    7 ar   
    16   31    7 1    
    17   10    8 ar   
    18   32    8 1    
    19   11    9 ar   
    20   33    9 1    
    21   11   10 ar   
    22   34   10 1    
    23   35   11 1    
    24   13   12 1    
    25   18   12 1    
    26   14   13 1    
    27   16   13 1    
    28   36   13 1    
    29   15   14 2    
    30   19   14 am   
    31   17   16 1    
    32   37   16 1    
    33   38   16 1    
    34   18   17 1    
    35   39   17 1    
    36   40   17 1    
    37   41   18 1    
    38   42   18 1    
    39   20   19 1    
    40   43   19 1    
    41   21   20 1    
    42   44   20 1    
    43   45   20 1    
    44   22   21 ar   
    45   26   21 ar   
    46   23   22 ar   
    47   46   22 1    
    48   24   23 ar   
    49   47   23 1    
    50   25   24 ar   
    51   48   24 1    
    52   26   25 ar   
    53   49   25 1    
    54   27   26 1    
    55   53   27 1    
    56   54   27 1    
    57   55   27 1    
@<TRIPOS>SUBSTRUCTURE
     1 B041        1 GROUP   
@<TRIPOS>SET

