#    Name: 3qbh_QBH_3_INTS_M
#    Modification time : Tue Mar 25 09:33:07 2014

@<TRIPOS>MOLECULE
3qbh_QBH_3_INTS_M
   81     0     9     0     0
SMALL
NO_CHARGES


@<TRIPOS>ATOM
      1 CA         12.3810  -40.2660   51.1255 C.3       3 GLC5        0.0000 
      2 CA         11.7870  -40.8040   49.0530 C.3       9 GLL5        0.0000 
      3 CA         12.9750  -39.7280   53.1980 C.3       6 GLP5        0.0000 
      4 CA         11.4110  -39.2935   47.4630 C.3       3 GLC5        0.0000 
      5 CA         11.0350  -37.7830   45.8730 C.3       6 GLP5        0.0000 
      6 CA          8.2315  -42.4715   46.4400 C.3       3 GLC5        0.0000 
      7 CA          8.0350  -43.4280   48.4490 C.3       9 GLL5        0.0000 
      8 CA          8.4280  -41.5150   44.4310 C.3       6 GLP5        0.0000 
      9 CA          4.1925  -43.9190   52.9460 C.3       3 GLC5        0.0000 
     10 CA          5.1990  -43.2480   51.0630 C.3       9 GLL5        0.0000 
     11 CA          3.1860  -44.5900   54.8290 C.3       6 GLP5        0.0000 
     12 O           2.6520  -42.8175   52.0145 O.2       1 ALC1        0.0000 
     13 O           3.1360  -42.0150   51.1500 O.2       7 ALL1        0.0000 
     14 O           2.1680  -43.6200   52.8790 O.2       4 ALP1        0.0000 
     15 CA          2.4015  -42.2700   48.5695 C.3       3 GLC5        0.0000 
     16 CA          3.6510  -40.7950   48.4690 C.3       9 GLL5        0.0000 
     17 CA          1.1520  -43.7450   48.6700 C.3       6 GLP5        0.0000 
     18 CA          2.5660  -39.0875   50.2070 C.3       3 GLC5        0.0000 
     19 CA          4.2690  -38.7400   50.0030 C.3       9 GLL5        0.0000 
     20 CA          0.8630  -39.4350   50.4110 C.3       6 GLP5        0.0000 
     21 N           7.6720  -36.9450   47.1470 N.am      2 SEC2        0.0000 
     22 N           7.2260  -37.7610   48.5870 N.am      8 SEL2        0.0000 
     23 N           8.1180  -36.1290   45.7070 N.am      5 SEP2        0.0000 
     24 CA          7.0005  -40.2350   45.4690 C.3       3 GLC5        0.0000 
     25 CA          5.5730  -38.9550   46.5070 C.3       9 GLL5        0.0000 
     26 CA          7.5505  -38.5250   46.0945 C.3       3 GLC5        0.0000 
     27 CA          9.5280  -38.0950   45.6820 C.3       6 GLP5        0.0000 
     28 CA          4.0660  -36.7510   43.2060 C.3       3 GLC5        0.0000 
     29 CA          5.0950  -38.3740   44.0680 C.3       9 GLL5        0.0000 
     30 CA          3.0370  -35.1280   42.3440 C.3       6 GLP5        0.0000 
     31 CA          5.9335  -37.3000   42.5170 C.3       3 GLC5        0.0000 
     32 CA          6.7720  -36.2260   40.9660 C.3       6 GLP5        0.0000 
     33 O          10.4315  -44.2530   46.3550 O.2       1 ALC1        0.0000 
     34 O          10.8520  -44.3630   48.0070 O.2       7 ALL1        0.0000 
     35 O          10.0110  -44.1430   44.7030 O.2       4 ALP1        0.0000 
     36 O          10.2965  -45.0915   47.0525 O.2       1 ALC1        0.0000 
     37 O           9.7410  -45.8200   46.0980 O.2       4 ALP1        0.0000 
     38 CA         15.9915  -43.5665   47.8755 C.3       3 GLC5        0.0000 
     39 CA         14.4630  -42.5020   48.4550 C.3       9 GLL5        0.0000 
     40 CA         17.5200  -44.6310   47.2960 C.3       6 GLP5        0.0000 
     41 CA         15.7180  -41.7605   46.8205 C.3       3 GLC5        0.0000 
     42 CA         16.9730  -41.0190   45.1860 C.3       6 GLP5        0.0000 
     43 CA         13.9355  -42.1040   53.2235 C.3       3 GLC5        0.0000 
     44 CA         15.1390  -43.4510   52.1470 C.3       9 GLL5        0.0000 
     45 CA         12.7320  -40.7570   54.3000 C.3       6 GLP5        0.0000 
     46 CA         13.9480  -41.2085   52.0850 C.3       3 GLC5        0.0000 
     47 CA         14.9210  -42.6890   50.9720 C.3       9 GLL5        0.0000 
     48 CA         12.6440  -47.7100   48.9320 C.3       3 GLC5        0.0000 
     49 CA         13.4810  -47.6210   50.6500 C.3       9 GLL5        0.0000 
     50 CA         11.8070  -47.7990   47.2140 C.3       6 GLP5        0.0000 
     51 CA         12.4030  -48.6035   51.7535 C.3       3 GLC5        0.0000 
     52 CA         11.3250  -49.5860   52.8570 C.3       6 GLP5        0.0000 
     53 CA         11.7090  -47.2965   50.5555 C.3       3 GLC5        0.0000 
     54 CA          9.9370  -46.9720   50.4610 C.3       6 GLP5        0.0000 
     55 CA         17.1370  -48.6945   48.7265 C.3       3 GLC5        0.0000 
     56 CA         15.8550  -47.6920   49.6910 C.3       9 GLL5        0.0000 
     57 CA         18.4190  -49.6970   47.7620 C.3       6 GLP5        0.0000 
     58 CA         16.6875  -46.1615   48.4935 C.3       3 GLC5        0.0000 
     59 N          10.5620  -40.8975   53.0750 N.am      2 SEC2        0.0000 
     60 N          10.7520  -41.2570   51.4630 N.am      8 SEL2        0.0000 
     61 N          10.3720  -40.5380   54.6870 N.am      5 SEP2        0.0000 
     62 CA         10.8055  -44.2320   49.8053 C.3       3 GLC5        0.0000 
     63 CA         11.9000  -42.3350   48.8010 C.3       9 GLL5        0.0000 
     64 CA         10.3670  -45.8090   51.0910 C.3       6 GLP5        0.0000 
     65 CA          9.5175  -44.4552   49.9345 C.3       3 GLC5        0.0000 
     66 CA          9.3010  -42.7750   49.1070 C.3       9 GLL5        0.0000 
     67 CA          5.9315  -43.8573   47.5075 C.3       3 GLC5        0.0000 
     68 CA          4.4850  -44.4710   46.2120 C.3       6 GLP5        0.0000 
     69 CA          7.1245  -45.2293   48.2490 C.3       3 GLC5        0.0000 
     70 CA          6.7210  -43.0590   49.1570 C.3       9 GLL5        0.0000 
     71 CA          6.8710  -47.2150   47.6950 C.3       6 GLP5        0.0000 
     72 CA          4.4592  -42.9262   47.4378 C.3       3 GLC5        0.0000 
     73 CA          5.8230  -42.1520   48.5390 C.3       9 GLL5        0.0000 
     74 CA          2.3520  -39.7385   49.4665 C.3       3 GLC5        0.0000 
     75 CA          3.3882  -39.1827   44.3980 C.3       3 GLC5        0.0000 
     76 CA          4.5880  -38.2570   45.5320 C.3       9 GLL5        0.0000 
     77 CA          1.9350  -40.0500   43.9960 C.3       6 GLP5        0.0000 
     78 CA          6.1273  -36.6517   44.9685 C.3       3 GLC5        0.0000 
     79 CA          7.4130  -34.9880   45.1370 C.3       6 GLP5        0.0000 
     80 CA         13.3712  -44.2578   52.9890 C.3       3 GLC5        0.0000 
     81 CA         11.6020  -44.3570   53.8610 C.3       6 GLP5        0.0000 
@<TRIPOS>BOND
@<TRIPOS>SUBSTRUCTURE
     1 ALC1       12 GROUP        1 X    ALC  0     ROOT ALC X 1
     2 SEC2       21 GROUP        1 X    SEC  0     **** SEC X 2
     3 GLC5        1 GROUP        1 X    GLC  0     **** GLC X 6
     4 ALP1       14 GROUP        1 Y    ALP  0     ROOT ALP Y 8
     5 SEP2       23 GROUP        1 Y    SEP  0     **** SEP Y 9
     6 GLP5        3 GROUP        1 Y    GLP  0     **** GLP Y 13
     7 ALL1       13 GROUP        1 Z    ALL  0     ROOT ALL Z 15
     8 SEL2       22 GROUP        1 Z    SEL  0     **** SEL Z 16
     9 GLL5        2 GROUP        1 Z    GLL  0     **** GLL Z 20
@<TRIPOS>SET

