#    Name: 3qbh_QBH_3_ligand
#    Modification time : Tue Mar 25 09:33:07 2014

@<TRIPOS>MOLECULE
3qbh_QBH_3_ligand
   77    80     1     0     0
SMALL
NO_CHARGES


@<TRIPOS>ATOM
      1 S1         10.4810  -40.5120   50.2440 S.o2      1 QBH387      0.0000 
      2 C2         11.7870  -40.8040   49.0530 C.3       1 QBH387      0.0000 
      3 C5         11.9000  -42.3350   48.8010 C.3       1 QBH387      0.0000 
      4 C7         10.5880  -42.9750   48.2380 C.3       1 QBH387      0.0000 
      5 C9          9.3010  -42.7750   49.1070 C.3       1 QBH387      0.0000 
      6 C11         9.0750  -41.2560   49.4230 C.3       1 QBH387      0.0000 
      7 C14         8.0350  -43.4280   48.4490 C.3       1 QBH387      0.0000 
      8 C17         6.7210  -43.0590   49.1570 C.ar      1 QBH387      0.0000 
      9 C18         5.8230  -42.1520   48.5390 C.ar      1 QBH387      0.0000 
     10 C20         4.6090  -41.7840   49.1770 C.ar      1 QBH387      0.0000 
     11 C21         4.3050  -42.3400   50.4560 C.ar      1 QBH387      0.0000 
     12 C22         5.1990  -43.2480   51.0630 C.ar      1 QBH387      0.0000 
     13 C24         6.4020  -43.6120   50.4230 C.ar      1 QBH387      0.0000 
     14 O26         3.1360  -42.0150   51.1500 O.3       1 QBH387      0.0000 
     15 C28         3.6510  -40.7950   48.4690 C.3       1 QBH387      0.0000 
     16 C31         4.0310  -39.2890   48.5750 C.3       1 QBH387      0.0000 
     17 N33         5.2600  -38.8240   47.9420 N.am      1 QBH387      0.0000 
     18 C34         6.1330  -38.2490   48.8120 C.2       1 QBH387      0.0000 
     19 O35         5.6320  -38.2850   50.0490 O.3       1 QBH387      0.0000 
     20 C36         4.2690  -38.7400   50.0030 C.3       1 QBH387      0.0000 
     21 O39         7.2260  -37.7610   48.5870 O.2       1 QBH387      0.0000 
     22 C40         5.5730  -38.9550   46.5070 C.3       1 QBH387      0.0000 
     23 C43         4.5880  -38.2570   45.5320 C.3       1 QBH387      0.0000 
     24 C46         5.0950  -38.3740   44.0680 C.3       1 QBH387      0.0000 
     25 O50        10.8520  -44.3630   48.0070 O.3       1 QBH387      0.0000 
     26 N52        13.0670  -42.6730   47.9310 N.3       1 QBH387      0.0000 
     27 C54        14.4630  -42.5020   48.4550 C.3       1 QBH387      0.0000 
     28 C57        14.7020  -43.3360   49.7310 C.ar      1 QBH387      0.0000 
     29 C58        14.7080  -44.7520   49.6840 C.ar      1 QBH387      0.0000 
     30 C60        14.9260  -45.5340   50.8530 C.ar      1 QBH387      0.0000 
     31 C61        15.1420  -44.8660   52.0870 C.ar      1 QBH387      0.0000 
     32 C63        15.1390  -43.4510   52.1470 C.ar      1 QBH387      0.0000 
     33 C65        14.9210  -42.6890   50.9720 C.ar      1 QBH387      0.0000 
     34 C67        14.9270  -47.0780   50.7710 C.3       1 QBH387      0.0000 
     35 C69        13.4810  -47.6210   50.6500 C.3       1 QBH387      0.0000 
     36 C73        15.8550  -47.6920   49.6910 C.3       1 QBH387      0.0000 
     37 O77        10.2650  -39.0870   50.3310 O.2       1 QBH387      0.0000 
     38 O78        10.7520  -41.2570   51.4630 O.2       1 QBH387      0.0000 
     39 H          12.6405  -40.4037   49.5224 H         1 QBH387      0.0000 
     40 H          11.4657  -40.2731   48.2022 H         1 QBH387      0.0000 
     41 H          12.0720  -42.8095   49.7944 H         1 QBH387      0.0000 
     42 H          10.4008  -42.4820   47.2624 H         1 QBH387      0.0000 
     43 H           9.4728  -43.2818   50.0648 H         1 QBH387      0.0000 
     44 H           8.9646  -40.6709   48.5369 H         1 QBH387      0.0000 
     45 H           8.2733  -41.1012   50.1107 H         1 QBH387      0.0000 
     46 H           8.1641  -44.5145   48.4646 H         1 QBH387      0.0000 
     47 H           7.9885  -43.1056   47.4043 H         1 QBH387      0.0000 
     48 H           6.0519  -41.7574   47.6220 H         1 QBH387      0.0000 
     49 H           4.9707  -43.6478   51.9807 H         1 QBH387      0.0000 
     50 H           7.0416  -44.2696   50.8660 H         1 QBH387      0.0000 
     51 H           2.6349  -40.9277   48.8839 H         1 QBH387      0.0000 
     52 H           3.5914  -41.0645   47.3985 H         1 QBH387      0.0000 
     53 H           3.1982  -38.6717   48.1781 H         1 QBH387      0.0000 
     54 H           4.0841  -39.5454   50.6993 H         1 QBH387      0.0000 
     55 H           3.5650  -37.9368   50.1674 H         1 QBH387      0.0000 
     56 H           5.6178  -40.0306   46.2180 H         1 QBH387      0.0000 
     57 H           6.5900  -38.5511   46.2950 H         1 QBH387      0.0000 
     58 H           4.5096  -37.2105   45.7960 H         1 QBH387      0.0000 
     59 H           3.6180  -38.7304   45.6087 H         1 QBH387      0.0000 
     60 H          14.6488  -41.4497   48.6910 H         1 QBH387      0.0000 
     61 H          15.1887  -42.8144   47.6979 H         1 QBH387      0.0000 
     62 H          14.5514  -45.2286   48.7853 H         1 QBH387      0.0000 
     63 H          15.3006  -45.4113   52.9370 H         1 QBH387      0.0000 
     64 H          15.2941  -42.9784   53.0383 H         1 QBH387      0.0000 
     65 H          14.9219  -41.6685   51.0206 H         1 QBH387      0.0000 
     66 H          15.3011  -47.4498   51.7635 H         1 QBH387      0.0000 
     67 H           5.9902  -37.9445   43.9496 H         1 QBH387      0.0000 
     68 H           5.1874  -39.3278   43.7821 H         1 QBH387      0.0000 
     69 H           4.4709  -37.9337   43.4225 H         1 QBH387      0.0000 
     70 H          13.4624  -48.6194   50.5971 H         1 QBH387      0.0000 
     71 H          12.9189  -47.3586   51.4343 H         1 QBH387      0.0000 
     72 H          13.0218  -47.2755   49.8316 H         1 QBH387      0.0000 
     73 H          16.8115  -47.4388   49.8357 H         1 QBH387      0.0000 
     74 H          15.8133  -48.6911   49.6899 H         1 QBH387      0.0000 
     75 H          15.6070  -47.3873   48.7714 H         1 QBH387      0.0000 
     76 H           2.9725  -42.7911   51.7591 H         1 QBH387      0.0000 
     77 H          10.3004  -44.6017   47.2078 H         1 QBH387      0.0000 
@<TRIPOS>BOND
     1    2    1 1    
     2    6    1 1    
     3   37    1 2    
     4   38    1 2    
     5    3    2 1    
     6   39    2 1    
     7   40    2 1    
     8    4    3 1    
     9   26    3 1    
    10   41    3 1    
    11    5    4 1    
    12   25    4 1    
    13   42    4 1    
    14    6    5 1    
    15    7    5 1    
    16   43    5 1    
    17   44    6 1    
    18   45    6 1    
    19    8    7 1    
    20   46    7 1    
    21   47    7 1    
    22    9    8 ar   
    23   13    8 ar   
    24   10    9 ar   
    25   48    9 1    
    26   11   10 ar   
    27   15   10 1    
    28   12   11 ar   
    29   14   11 1    
    30   13   12 ar   
    31   49   12 1    
    32   50   13 1    
    33   76   14 1    
    34   16   15 1    
    35   51   15 1    
    36   52   15 1    
    37   17   16 1    
    38   20   16 1    
    39   53   16 1    
    40   18   17 am   
    41   22   17 1    
    42   19   18 1    
    43   21   18 2    
    44   20   19 1    
    45   54   20 1    
    46   55   20 1    
    47   23   22 1    
    48   56   22 1    
    49   57   22 1    
    50   24   23 1    
    51   58   23 1    
    52   59   23 1    
    53   67   24 1    
    54   68   24 1    
    55   69   24 1    
    56   77   25 1    
    57   27   26 1    
    58   28   27 1    
    59   60   27 1    
    60   61   27 1    
    61   29   28 ar   
    62   33   28 ar   
    63   30   29 ar   
    64   62   29 1    
    65   31   30 ar   
    66   34   30 1    
    67   32   31 ar   
    68   63   31 1    
    69   33   32 ar   
    70   64   32 1    
    71   65   33 1    
    72   35   34 1    
    73   36   34 1    
    74   66   34 1    
    75   70   35 1    
    76   71   35 1    
    77   72   35 1    
    78   73   36 1    
    79   74   36 1    
    80   75   36 1    
@<TRIPOS>SUBSTRUCTURE
     1 QBH387      1 GROUP   
@<TRIPOS>SET

