#    Name: 1t9b_1CS_1_INTS_M
#    Modification time : Tue Mar 25 04:33:42 2014

@<TRIPOS>MOLECULE
1t9b_1CS_1_INTS_M
   52     0     6     0     0
SMALL
NO_CHARGES


@<TRIPOS>ATOM
      1 CA         26.4500   28.7805  139.1770 C.3       2 GLC5        0.0000 
      2 CA         25.8790   30.1660  137.7790 C.3       6 GLL5        0.0000 
      3 CA         27.0210   27.3950  140.5750 C.3       4 GLP5        0.0000 
      4 CA         26.8200   31.2120  136.5170 C.3       2 GLC5        0.0000 
      5 CA         27.7610   32.2580  135.2550 C.3       4 GLP5        0.0000 
      6 CA         23.7175   29.9045  137.6760 C.3       2 GLC5        0.0000 
      7 CA         21.5560   29.6430  137.5730 C.3       4 GLP5        0.0000 
      8 CA         25.4830   31.8320  138.1900 C.3       2 GLC5        0.0000 
      9 CA         25.0870   33.4980  138.6010 C.3       4 GLP5        0.0000 
     10 N          24.4500   27.8305  138.4005 N.am      1 SEC2        0.0000 
     11 N          25.3140   28.8750  137.6340 N.am      5 SEL2        0.0000 
     12 N          23.5860   26.7860  139.1670 N.am      3 SEP2        0.0000 
     13 CA         26.8990   30.6800  134.0145 C.3       2 GLC5        0.0000 
     14 CA         26.0370   29.1020  132.7740 C.3       6 GLL5        0.0000 
     15 CA         27.1760   29.9840  131.5490 C.3       2 GLC5        0.0000 
     16 CA         28.3150   30.8660  130.3240 C.3       4 GLP5        0.0000 
     17 CA         27.5710   28.3730  133.5945 C.3       2 GLC5        0.0000 
     18 CA         29.1050   27.6440  134.4150 C.3       4 GLP5        0.0000 
     19 CA         23.6590   26.7620  133.1360 C.3       2 GLC5        0.0000 
     20 CA         24.5420   26.3820  134.9240 C.3       6 GLL5        0.0000 
     21 CA         22.7760   27.1420  131.3480 C.3       4 GLP5        0.0000 
     22 N          23.5390   25.7400  138.1090 N.am      1 SEC2        0.0000 
     23 N          23.4920   24.6940  137.0510 N.am      5 SEL2        0.0000 
     24 N          22.8355   24.8820  138.4060 N.am      1 SEC2        0.0000 
     25 N          22.1790   25.0700  139.7610 N.am      3 SEP2        0.0000 
     26 CA         19.8100   23.1200  141.2705 C.3       2 GLC5        0.0000 
     27 CA         19.6400   22.5470  139.1710 C.3       6 GLL5        0.0000 
     28 CA         19.9800   23.6930  143.3700 C.3       4 GLP5        0.0000 
     29 N          24.1245   26.8985  137.6745 N.am      1 SEC2        0.0000 
     30 N          24.6630   27.0110  136.1820 N.am      5 SEL2        0.0000 
     31 CA         19.9085   24.7110  132.9615 C.3       2 GLC5        0.0000 
     32 CA         20.1170   24.4860  135.0260 C.3       6 GLL5        0.0000 
     33 CA         19.7000   24.9360  130.8970 C.3       4 GLP5        0.0000 
     34 CA         19.0100   22.6165  135.3495 C.3       2 GLC5        0.0000 
     35 CA         17.9030   20.7470  135.6730 C.3       4 GLP5        0.0000 
     36 CA         24.2888   27.9387  132.3440 C.3       2 GLC5        0.0000 
     37 CA         25.5660   28.3690  133.9060 C.3       6 GLL5        0.0000 
     38 CA         19.3772   21.5892  136.6665 C.3       2 GLC5        0.0000 
     39 CA         20.9380   22.7280  137.0080 C.3       6 GLL5        0.0000 
     40 CA         18.5355   21.9032  137.3007 C.3       2 GLC5        0.0000 
     41 CA         17.4930   21.6728  139.1608 C.3       2 GLC5        0.0000 
     42 CA         18.6960   23.5720  138.6860 C.3       6 GLL5        0.0000 
     43 CA         15.8180   20.2860  139.3930 C.3       4 GLP5        0.0000 
     44 CA         17.1620   23.9530  139.1763 C.3       2 GLC5        0.0000 
     45 CA         18.8820   24.1420  137.4030 C.3       6 GLL5        0.0000 
     46 CA         15.5350   24.0490  140.3080 C.3       4 GLP5        0.0000 
     47 CA         19.0460   25.7135  138.9338 C.3       2 GLC5        0.0000 
     48 CA         19.3030   27.5700  139.8230 C.3       4 GLP5        0.0000 
     49 CA         18.6668   22.3447  136.3255 C.3       2 GLC5        0.0000 
     50 CA         17.5095   24.2220  136.7074 C.3       2 GLC5        0.0000 
     51 CA         19.9790   23.7430  136.5530 C.3       6 GLL5        0.0000 
     52 CA         15.6350   24.6440  136.1160 C.3       4 GLP5        0.0000 
@<TRIPOS>BOND
@<TRIPOS>SUBSTRUCTURE
     1 SEC2       10 GROUP        1 X    SEC  0     ROOT SEC X 2
     2 GLC5        1 GROUP        1 X    GLC  0     **** GLC X 6
     3 SEP2       12 GROUP        1 Y    SEP  0     ROOT SEP Y 9
     4 GLP5        3 GROUP        1 Y    GLP  0     **** GLP Y 13
     5 SEL2       11 GROUP        1 Z    SEL  0     ROOT SEL Z 16
     6 GLL5        2 GROUP        1 Z    GLL  0     **** GLL Z 20
@<TRIPOS>SET

