#    Name: 1t9b_1CS_1_ligand
#    Modification time : Tue Mar 25 04:33:43 2014

@<TRIPOS>MOLECULE
1t9b_1CS_1_ligand
   35    36     1     0     0
SMALL
NO_CHARGES


@<TRIPOS>ATOM
      1 C5'        25.8790   30.1660  137.7790 C.3       1 1CS695      0.0000 
      2 O4'        25.3140   28.8750  137.6340 O.3       1 1CS695      0.0000 
      3 C4'        25.2060   28.2670  136.3270 C.ar      1 1CS695      0.0000 
      4 N5'        25.6770   28.9940  135.1990 N.ar      1 1CS695      0.0000 
      5 C6'        25.5660   28.3690  133.9060 C.ar      1 1CS695      0.0000 
      6 C7'        26.0370   29.1020  132.7740 C.3       1 1CS695      0.0000 
      7 N1'        25.0040   27.0730  133.7460 N.ar      1 1CS695      0.0000 
      8 C2'        24.5420   26.3820  134.9240 C.ar      1 1CS695      0.0000 
      9 N10        24.0020   25.1520  134.8100 N.am      1 1CS695      0.0000 
     10 C9         23.5310   24.4130  135.8380 C.2       1 1CS695      0.0000 
     11 O9         23.4920   24.6940  137.0510 O.2       1 1CS695      0.0000 
     12 N8         23.0560   23.2540  135.3240 N.am      1 1CS695      0.0000 
     13 S7         22.3540   22.0450  136.2270 S.o2      1 1CS695      0.0000 
     14 O7A        23.1170   21.0510  136.9430 O.2       1 1CS695      0.0000 
     15 O7B        21.6960   21.6790  134.9860 O.2       1 1CS695      0.0000 
     16 C2         20.9380   22.7280  137.0080 C.ar      1 1CS695      0.0000 
     17 C3         20.7650   22.1350  138.3120 C.ar      1 1CS695      0.0000 
     18 C4         19.6400   22.5470  139.1710 C.ar      1 1CS695      0.0000 
     19 C5         18.6960   23.5720  138.6860 C.ar      1 1CS695      0.0000 
     20 C6         18.8820   24.1420  137.4030 C.ar      1 1CS695      0.0000 
     21 C1         19.9790   23.7430  136.5530 C.ar      1 1CS695      0.0000 
     22 N3'        24.6630   27.0110  136.1820 N.ar      1 1CS695      0.0000 
     23 CL11       20.1170   24.4860  135.0260 Cl        1 1CS695      0.0000 
     24 H          23.9409   24.7246  133.8235 H         1 1CS695      0.0000 
     25 H          23.0732   22.9886  134.3283 H         1 1CS695      0.0000 
     26 H          21.4075   21.4362  138.6489 H         1 1CS695      0.0000 
     27 H          19.5178   22.1376  140.0704 H         1 1CS695      0.0000 
     28 H          17.9330   23.8466  139.2831 H         1 1CS695      0.0000 
     29 H          18.2296   24.8549  137.0591 H         1 1CS695      0.0000 
     30 H          26.8242   30.1964  137.4540 H         1 1CS695      0.0000 
     31 H          25.3694   30.8545  137.2631 H         1 1CS695      0.0000 
     32 H          25.8878   30.4624  138.7340 H         1 1CS695      0.0000 
     33 H          27.0107   29.3168  132.8496 H         1 1CS695      0.0000 
     34 H          25.9149   28.5906  131.9234 H         1 1CS695      0.0000 
     35 H          25.5528   29.9703  132.6661 H         1 1CS695      0.0000 
@<TRIPOS>BOND
     1    2    1 1    
     2   30    1 1    
     3   31    1 1    
     4   32    1 1    
     5    3    2 1    
     6    4    3 ar   
     7   22    3 ar   
     8    5    4 ar   
     9    6    5 1    
    10    7    5 ar   
    11   33    6 1    
    12   34    6 1    
    13   35    6 1    
    14    8    7 ar   
    15    9    8 1    
    16   22    8 ar   
    17   10    9 am   
    18   24    9 1    
    19   11   10 2    
    20   12   10 am   
    21   13   12 1    
    22   25   12 1    
    23   14   13 2    
    24   15   13 2    
    25   16   13 1    
    26   17   16 ar   
    27   21   16 ar   
    28   18   17 ar   
    29   26   17 1    
    30   19   18 ar   
    31   27   18 1    
    32   20   19 ar   
    33   28   19 1    
    34   21   20 ar   
    35   29   20 1    
    36   23   21 1    
@<TRIPOS>SUBSTRUCTURE
     1 1CS695      1 GROUP   
@<TRIPOS>SET

