#    Name: 2x9v_TMQ_3_INTS_M
#    Modification time : Tue Mar 25 05:37:13 2014

@<TRIPOS>MOLECULE
2x9v_TMQ_3_INTS_M
   49     0     6     0     0
SMALL
NO_CHARGES


@<TRIPOS>ATOM
      1 CA          4.9525   15.7815   32.2110 C.3       2 GLC5        0.0000 
      2 CA          3.6130   15.3940   33.1960 C.3       6 GLL5        0.0000 
      3 CA          6.2920   16.1690   31.2260 C.3       4 GLP5        0.0000 
      4 CA          2.5715   14.0525   33.5730 C.3       2 GLC5        0.0000 
      5 CA          1.5300   12.7110   33.9500 C.3       4 GLP5        0.0000 
      6 CA          4.2310   16.0185   31.3210 C.3       2 GLC5        0.0000 
      7 CA          2.1700   15.8680   31.4160 C.3       6 GLL5        0.0000 
      8 CA          1.8500   14.2895   32.6830 C.3       2 GLC5        0.0000 
      9 CA          4.4370   16.8270   32.1605 C.3       2 GLC5        0.0000 
     10 CA          2.5820   17.4850   33.0950 C.3       6 GLL5        0.0000 
     11 CA          1.3830   21.4150   33.9695 C.3       2 GLC5        0.0000 
     12 CA          1.5750   19.6770   33.1080 C.3       6 GLL5        0.0000 
     13 CA          1.1910   23.1530   34.8310 C.3       4 GLP5        0.0000 
     14 CA         -1.2640   21.4910   31.7830 C.3       2 GLC5        0.0000 
     15 CA          0.0190   20.5020   31.3420 C.3       6 GLL5        0.0000 
     16 CA         -2.5470   22.4800   32.2240 C.3       4 GLP5        0.0000 
     17 CA          0.1120   22.5875   31.2750 C.3       2 GLC5        0.0000 
     18 CA          0.2050   24.6730   31.2080 C.3       4 GLP5        0.0000 
     19 CA          1.8535   22.5645   32.8460 C.3       2 GLC5        0.0000 
     20 CA          2.5160   21.9760   30.8610 C.3       6 GLL5        0.0000 
     21 CA          2.0205   18.1330   29.3025 C.3       2 GLC5        0.0000 
     22 CA          0.2970   17.8730   30.0220 C.3       6 GLL5        0.0000 
     23 CA          3.7440   18.3930   28.5830 C.3       4 GLP5        0.0000 
     24 CA         -0.7655   16.6600   30.8395 C.3       2 GLC5        0.0000 
     25 CA         -1.8280   15.4470   31.6570 C.3       4 GLP5        0.0000 
     26 CA          4.5675   20.4925   31.1820 C.3       2 GLC5        0.0000 
     27 CA          4.8400   21.9770   32.6710 C.3       6 GLL5        0.0000 
     28 CA          4.2950   19.0080   29.6930 C.3       4 GLP5        0.0000 
     29 CA          3.7420   22.6610   33.9135 C.3       2 GLC5        0.0000 
     30 CA          2.6440   23.3450   35.1560 C.3       4 GLP5        0.0000 
     31 CA          3.6260   25.1325   30.2800 C.3       2 GLC5        0.0000 
     32 CA          5.4080   24.8770   29.0680 C.3       6 GLL5        0.0000 
     33 CA          1.8440   25.3880   31.4920 C.3       4 GLP5        0.0000 
     34 CA          2.1525   20.6425   25.2350 C.3       2 GLC5        0.0000 
     35 CA          3.0300   22.2550   25.7630 C.3       6 GLL5        0.0000 
     36 CA          1.2750   19.0300   24.7070 C.3       4 GLP5        0.0000 
     37 CA          4.5255   21.1260   25.2005 C.3       2 GLC5        0.0000 
     38 CA          6.0210   19.9970   24.6380 C.3       4 GLP5        0.0000 
     39 O           4.9385   13.2255   33.4410 O.2       1 ALC1        0.0000 
     40 O           4.4390   14.5220   33.7920 O.2       5 ALL1        0.0000 
     41 O           5.4380   11.9290   33.0900 O.2       3 ALP1        0.0000 
     42 O           4.6775   15.5425   34.9075 O.2       1 ALC1        0.0000 
     43 O           4.9160   16.5630   36.0230 O.2       3 ALP1        0.0000 
     44 O           1.9285   14.0780   29.7980 O.2       1 ALC1        0.0000 
     45 O           1.6480   15.3810   30.2840 O.2       5 ALL1        0.0000 
     46 O           2.2090   12.7750   29.3120 O.2       3 ALP1        0.0000 
     47 CA          1.0377   23.1983   30.1762 C.3       2 GLC5        0.0000 
     48 CA          1.6700   21.6040   29.8060 C.3       6 GLL5        0.0000 
     49 CA          2.7336   23.9766   30.7400 C.3       2 GLC5        0.0000 
@<TRIPOS>BOND
@<TRIPOS>SUBSTRUCTURE
     1 ALC1       39 GROUP        1 X    ALC  0     ROOT ALC X 1
     2 GLC5        1 GROUP        1 X    GLC  0     **** GLC X 6
     3 ALP1       41 GROUP        1 Y    ALP  0     ROOT ALP Y 8
     4 GLP5        3 GROUP        1 Y    GLP  0     **** GLP Y 13
     5 ALL1       40 GROUP        1 Z    ALL  0     ROOT ALL Z 15
     6 GLL5        2 GROUP        1 Z    GLL  0     **** GLL Z 20
@<TRIPOS>SET

