#    Name: 2x9v_TMQ_3_ligand
#    Modification time : Tue Mar 25 05:37:13 2014

@<TRIPOS>MOLECULE
2x9v_TMQ_3_ligand
   50    52     1     0     0
SMALL
NO_CHARGES


@<TRIPOS>ATOM
      1 N1          3.4170   16.6140   33.7190 N.ar      1 TMQ1270     0.0000 
      2 C2          3.6130   15.3940   33.1960 C.ar      1 TMQ1270     0.0000 
      3 N3          2.9850   15.0140   32.0710 N.ar      1 TMQ1270     0.0000 
      4 C4          2.1700   15.8680   31.4160 C.ar      1 TMQ1270     0.0000 
      5 C3A         2.5820   17.4850   33.0950 C.ar      1 TMQ1270     0.0000 
      6 C4A         1.9160   17.1720   31.9010 C.ar      1 TMQ1270     0.0000 
      7 C5          1.0570   18.1440   31.3030 C.ar      1 TMQ1270     0.0000 
      8 C6          0.9060   19.3910   31.9050 C.ar      1 TMQ1270     0.0000 
      9 C7          1.5750   19.6770   33.1080 C.ar      1 TMQ1270     0.0000 
     10 C8          2.4030   18.7280   33.6860 C.ar      1 TMQ1270     0.0000 
     11 C9          0.0190   20.5020   31.3420 C.3       1 TMQ1270     0.0000 
     12 N10         0.4880   20.9590   30.0360 N.pl3     1 TMQ1270     0.0000 
     13 C11         1.6700   21.6040   29.8060 C.ar      1 TMQ1270     0.0000 
     14 C12         2.5160   21.9760   30.8610 C.ar      1 TMQ1270     0.0000 
     15 C13         3.7250   22.5930   30.6270 C.ar      1 TMQ1270     0.0000 
     16 C14         4.1260   22.8460   29.2320 C.ar      1 TMQ1270     0.0000 
     17 C15         3.2940   22.4680   28.1970 C.ar      1 TMQ1270     0.0000 
     18 C16         2.0710   21.8430   28.4830 C.ar      1 TMQ1270     0.0000 
     19 C17         0.2970   17.8730   30.0220 C.3       1 TMQ1270     0.0000 
     20 O18         4.5380   22.9650   31.6820 O.3       1 TMQ1270     0.0000 
     21 O19         5.3170   23.4560   28.9760 O.3       1 TMQ1270     0.0000 
     22 O20         3.7220   22.7310   26.9180 O.3       1 TMQ1270     0.0000 
     23 C21         4.8400   21.9770   32.6710 C.3       1 TMQ1270     0.0000 
     24 C22         5.4080   24.8770   29.0680 C.3       1 TMQ1270     0.0000 
     25 C23         3.0300   22.2550   25.7630 C.3       1 TMQ1270     0.0000 
     26 N24         4.4390   14.5220   33.7920 N.pl3     1 TMQ1270     0.0000 
     27 N25         1.6480   15.3810   30.2840 N.pl3     1 TMQ1270     0.0000 
     28 H           1.4439   20.5940   33.5525 H         1 TMQ1270     0.0000 
     29 H           2.8949   18.9481   34.5702 H         1 TMQ1270     0.0000 
     30 H           0.0101   21.3309   32.0654 H         1 TMQ1270     0.0000 
     31 H          -1.0091   20.1162   31.2743 H         1 TMQ1270     0.0000 
     32 H          -0.1659   20.7569   29.2282 H         1 TMQ1270     0.0000 
     33 H           2.2149   21.7775   31.8345 H         1 TMQ1270     0.0000 
     34 H           1.4554   21.5539   27.7064 H         1 TMQ1270     0.0000 
     35 H           4.5124   13.6217   33.3630 H         1 TMQ1270     0.0000 
     36 H           4.9077   14.8500   34.6122 H         1 TMQ1270     0.0000 
     37 H           1.0561   16.0016   29.7697 H         1 TMQ1270     0.0000 
     38 H           1.8967   14.4401   30.0539 H         1 TMQ1270     0.0000 
     39 H           0.9126   17.6655   29.2618 H         1 TMQ1270     0.0000 
     40 H          -0.3247   17.0954   30.1164 H         1 TMQ1270     0.0000 
     41 H          -0.2563   18.6586   29.7451 H         1 TMQ1270     0.0000 
     42 H           5.3132   21.1892   32.2766 H         1 TMQ1270     0.0000 
     43 H           5.4288   22.3415   33.3924 H         1 TMQ1270     0.0000 
     44 H           4.0133   21.6306   33.1144 H         1 TMQ1270     0.0000 
     45 H           6.3296   25.2044   28.8597 H         1 TMQ1270     0.0000 
     46 H           4.7848   25.3311   28.4313 H         1 TMQ1270     0.0000 
     47 H           5.1806   25.2051   29.9849 H         1 TMQ1270     0.0000 
     48 H           3.4812   22.5383   24.9167 H         1 TMQ1270     0.0000 
     49 H           2.9772   21.2565   25.7469 H         1 TMQ1270     0.0000 
     50 H           2.0918   22.5988   25.7242 H         1 TMQ1270     0.0000 
@<TRIPOS>BOND
     1    2    1 ar   
     2    5    1 ar   
     3    3    2 ar   
     4   26    2 1    
     5    4    3 ar   
     6    6    4 ar   
     7   27    4 1    
     8    6    5 ar   
     9   10    5 ar   
    10    7    6 ar   
    11    8    7 ar   
    12   19    7 1    
    13    9    8 ar   
    14   11    8 1    
    15   10    9 ar   
    16   28    9 1    
    17   29   10 1    
    18   12   11 1    
    19   30   11 1    
    20   31   11 1    
    21   13   12 1    
    22   32   12 1    
    23   14   13 ar   
    24   18   13 ar   
    25   15   14 ar   
    26   33   14 1    
    27   16   15 ar   
    28   20   15 1    
    29   17   16 ar   
    30   21   16 1    
    31   18   17 ar   
    32   22   17 1    
    33   34   18 1    
    34   39   19 1    
    35   40   19 1    
    36   41   19 1    
    37   23   20 1    
    38   24   21 1    
    39   25   22 1    
    40   42   23 1    
    41   43   23 1    
    42   44   23 1    
    43   45   24 1    
    44   46   24 1    
    45   47   24 1    
    46   48   25 1    
    47   49   25 1    
    48   50   25 1    
    49   35   26 1    
    50   36   26 1    
    51   37   27 1    
    52   38   27 1    
@<TRIPOS>SUBSTRUCTURE
     1 TMQ1270     1 GROUP   
@<TRIPOS>SET

