#    Name: 1jla_TNK_1_INTS_M
#    Modification time : Tue Mar 25 09:01:37 2014

@<TRIPOS>MOLECULE
1jla_TNK_1_INTS_M
   70     0     6     0     0
SMALL
NO_CHARGES


@<TRIPOS>ATOM
      1 CA         -2.7920  -31.9075   27.2110 C.3       2 GLC5        0.0000 
      2 CA         -2.1390  -33.8020   27.9850 C.3       6 GLL5        0.0000 
      3 CA         -3.4450  -30.0130   26.4370 C.3       4 GLP5        0.0000 
      4 CA         -1.0270  -33.7810   24.1540 C.3       2 GLC5        0.0000 
      5 CA         -1.8260  -35.6760   24.6790 C.3       6 GLL5        0.0000 
      6 CA         -0.2280  -31.8860   23.6290 C.3       4 GLP5        0.0000 
      7 O          -1.5650  -35.7430   20.5775 O.2       1 ALC1        0.0000 
      8 O          -1.6430  -35.7660   21.9260 O.2       5 ALL1        0.0000 
      9 O          -1.4870  -35.7200   19.2290 O.2       3 ALP1        0.0000 
     10 CA          0.4710  -34.9060   23.7740 C.3       2 GLC5        0.0000 
     11 CA         -0.9480  -36.6120   24.0760 C.3       6 GLL5        0.0000 
     12 CA          1.8900  -33.2000   23.4720 C.3       4 GLP5        0.0000 
     13 CA         -1.9585  -37.7310   22.5075 C.3       2 GLC5        0.0000 
     14 CA         -2.9690  -38.8500   20.9390 C.3       4 GLP5        0.0000 
     15 CA         -3.2755  -36.9460   26.6160 C.3       2 GLC5        0.0000 
     16 CA         -2.0230  -35.5800   26.2030 C.3       6 GLL5        0.0000 
     17 CA         -4.5280  -38.3120   27.0290 C.3       4 GLP5        0.0000 
     18 CA         -2.7535  -38.5480   26.2655 C.3       2 GLC5        0.0000 
     19 CA         -0.9790  -38.7840   25.5020 C.3       6 GLL5        0.0000 
     20 CA         -1.1980  -40.5225   26.5935 C.3       2 GLC5        0.0000 
     21 CA         -1.4170  -42.2610   27.6850 C.3       4 GLP5        0.0000 
     22 CA         -1.9640  -40.2340   24.9010 C.3       2 GLC5        0.0000 
     23 CA         -2.9490  -41.6840   24.3000 C.3       4 GLP5        0.0000 
     24 CA          2.2895  -37.3370   26.6090 C.3       2 GLC5        0.0000 
     25 CA          1.0590  -37.1900   25.5710 C.3       6 GLL5        0.0000 
     26 CA          3.5200  -37.4840   27.6470 C.3       4 GLP5        0.0000 
     27 CA         -1.9115  -32.8715   24.0445 C.3       2 GLC5        0.0000 
     28 CA         -3.5950  -33.8570   24.4600 C.3       6 GLL5        0.0000 
     29 CA         -4.2470  -32.1450   25.3245 C.3       2 GLC5        0.0000 
     30 CA         -4.8990  -30.4330   26.1890 C.3       4 GLP5        0.0000 
     31 CA         -4.2560  -32.3195   22.9650 C.3       2 GLC5        0.0000 
     32 CA         -4.9170  -30.7820   21.4700 C.3       4 GLP5        0.0000 
     33 CA         -5.9780  -34.0685   26.7255 C.3       2 GLC5        0.0000 
     34 CA         -5.9150  -33.9310   24.8330 C.3       6 GLL5        0.0000 
     35 CA         -6.0410  -34.2060   28.6180 C.3       4 GLP5        0.0000 
     36 CA         -5.4070  -32.1820   25.5110 C.3       2 GLC5        0.0000 
     37 CA         -7.3005  -37.6045   24.9545 C.3       2 GLC5        0.0000 
     38 CA         -9.0930  -36.7290   24.0330 C.3       6 GLL5        0.0000 
     39 CA         -5.5080  -38.4800   25.8760 C.3       4 GLP5        0.0000 
     40 CA         -6.8360  -36.6840   25.6130 C.3       2 GLC5        0.0000 
     41 CA         -8.1640  -34.8880   25.3500 C.3       6 GLL5        0.0000 
     42 CA         -8.8260  -34.2075   23.6705 C.3       2 GLC5        0.0000 
     43 CA         -9.4880  -33.5270   21.9910 C.3       4 GLP5        0.0000 
     44 CA         -3.7278  -32.6825   29.1262 C.3       2 GLC5        0.0000 
     45 CA         -5.6210  -32.0510   29.8520 C.3       4 GLP5        0.0000 
     46 CA         -1.0765  -30.8448   29.5070 C.3       2 GLC5        0.0000 
     47 CA         -1.5300  -32.8260   28.8160 C.3       6 GLL5        0.0000 
     48 CA         -1.3120  -29.0200   30.2790 C.3       4 GLP5        0.0000 
     49 CA         -2.0715  -31.1438   28.3060 C.3       2 GLC5        0.0000 
     50 CA         -0.1520  -32.5130   28.6540 C.3       6 GLL5        0.0000 
     51 CA         -3.3020  -29.6180   27.8770 C.3       4 GLP5        0.0000 
     52 CA         -0.1360  -32.8114   25.4620 C.3       2 GLC5        0.0000 
     53 CA          0.6070  -33.1720   27.6660 C.3       6 GLL5        0.0000 
     54 CA         -3.1090  -37.1855   24.4642 C.3       2 GLC5        0.0000 
     55 CA         -4.8310  -38.2270   24.5510 C.3       4 GLP5        0.0000 
     56 CA         -0.8675  -36.3874   27.8417 C.3       2 GLC5        0.0000 
     57 CA         -0.3760  -37.8340   29.1200 C.3       4 GLP5        0.0000 
     58 CA         -0.0624  -37.7759   27.2399 C.3       2 GLC5        0.0000 
     59 CA         -5.6572  -36.3082   24.6100 C.3       2 GLC5        0.0000 
     60 CA         -6.1463  -37.2182   23.9242 C.3       2 GLC5        0.0000 
     61 CA         -6.9530  -35.7380   23.4180 C.3       6 GLL5        0.0000 
     62 CA         -8.4892  -38.6850   23.2895 C.3       2 GLC5        0.0000 
     63 CA         -7.9700  -36.6810   23.1770 C.3       6 GLL5        0.0000 
     64 CA         -8.4470  -40.6650   22.9740 C.3       4 GLP5        0.0000 
     65 CA         -8.4871  -34.7570   22.7801 C.3       2 GLC5        0.0000 
     66 CA         -9.9720  -35.2883   23.2810 C.3       2 GLC5        0.0000 
     67 CA        -10.8030  -34.2980   21.9850 C.3       4 GLP5        0.0000 
     68 CA         -9.4627  -34.8465   26.9118 C.3       2 GLC5        0.0000 
     69 CA         -9.1890  -35.8280   25.1210 C.3       6 GLL5        0.0000 
     70 CA        -10.2490  -34.3350   28.5880 C.3       4 GLP5        0.0000 
@<TRIPOS>BOND
@<TRIPOS>SUBSTRUCTURE
     1 ALC1        7 GROUP        1 X    ALC  0     ROOT ALC X 1
     2 GLC5        1 GROUP        1 X    GLC  0     **** GLC X 6
     3 ALP1        9 GROUP        1 Y    ALP  0     ROOT ALP Y 8
     4 GLP5        3 GROUP        1 Y    GLP  0     **** GLP Y 13
     5 ALL1        8 GROUP        1 Z    ALL  0     ROOT ALL Z 15
     6 GLL5        2 GROUP        1 Z    GLL  0     **** GLL Z 20
@<TRIPOS>SET

