#    Name: 1jla_TNK_1_ligand
#    Modification time : Tue Mar 25 09:01:37 2014

@<TRIPOS>MOLECULE
1jla_TNK_1_ligand
   51    53     1     0     0
SMALL
NO_CHARGES


@<TRIPOS>ATOM
      1 C1         -1.3780  -34.4600   27.0050 C.ar      1 TNK999      0.0000 
      2 C2         -2.1390  -33.8020   27.9850 C.ar      1 TNK999      0.0000 
      3 C3         -1.5300  -32.8260   28.8160 C.ar      1 TNK999      0.0000 
      4 C4         -0.1520  -32.5130   28.6540 C.ar      1 TNK999      0.0000 
      5 C5          0.6070  -33.1720   27.6660 C.ar      1 TNK999      0.0000 
      6 C6         -0.0120  -34.1430   26.8430 C.ar      1 TNK999      0.0000 
      7 C7         -1.8260  -35.6760   24.6790 C.2       1 TNK999      0.0000 
      8 N8         -2.6010  -34.8070   23.8740 N.am      1 TNK999      0.0000 
      9 C9         -2.5220  -34.8430   22.4620 C.2       1 TNK999      0.0000 
     10 O9         -3.2020  -34.1350   21.7220 O.2       1 TNK999      0.0000 
     11 N10        -1.6430  -35.7660   21.9260 N.am      1 TNK999      0.0000 
     12 C11        -0.8410  -36.6590   22.6310 C.2       1 TNK999      0.0000 
     13 O11        -0.0970  -37.4240   22.0200 O.2       1 TNK999      0.0000 
     14 C12        -0.9480  -36.6120   24.0760 C.2       1 TNK999      0.0000 
     15 C13        -2.0230  -35.5800   26.2030 C.3       1 TNK999      0.0000 
     16 C14        -0.1340  -37.7070   24.7950 C.3       1 TNK999      0.0000 
     17 C15        -0.9790  -38.7840   25.5020 C.3       1 TNK999      0.0000 
     18 C16         1.0590  -37.1900   25.5710 C.3       1 TNK999      0.0000 
     19 C17        -3.5950  -33.8570   24.4600 C.3       1 TNK999      0.0000 
     20 O17        -4.8720  -34.0610   23.8810 O.3       1 TNK999      0.0000 
     21 C18        -5.9150  -33.9310   24.8330 C.3       1 TNK999      0.0000 
     22 C19        -7.0520  -34.8480   24.5050 C.ar      1 TNK999      0.0000 
     23 C20        -6.9530  -35.7380   23.4180 C.ar      1 TNK999      0.0000 
     24 C21        -7.9700  -36.6810   23.1770 C.ar      1 TNK999      0.0000 
     25 C22        -9.0930  -36.7290   24.0330 C.ar      1 TNK999      0.0000 
     26 C23        -9.1890  -35.8280   25.1210 C.ar      1 TNK999      0.0000 
     27 C24        -8.1640  -34.8880   25.3500 C.ar      1 TNK999      0.0000 
     28 H          -3.1285  -34.0207   28.1045 H         1 TNK999      0.0000 
     29 H          -2.0786  -32.3487   29.5290 H         1 TNK999      0.0000 
     30 H           0.2807  -31.8122   29.2544 H         1 TNK999      0.0000 
     31 H           1.5932  -32.9531   27.5431 H         1 TNK999      0.0000 
     32 H           0.5392  -34.6204   26.1218 H         1 TNK999      0.0000 
     33 H          -1.5686  -35.8003   20.8519 H         1 TNK999      0.0000 
     34 H          -3.1390  -35.5641   26.4036 H         1 TNK999      0.0000 
     35 H          -1.7018  -36.5702   26.6528 H         1 TNK999      0.0000 
     36 H           0.3566  -38.3007   23.8931 H         1 TNK999      0.0000 
     37 H          -3.2342  -32.8285   24.2888 H         1 TNK999      0.0000 
     38 H          -3.6183  -34.0099   25.5524 H         1 TNK999      0.0000 
     39 H          -6.3036  -32.8973   24.8665 H         1 TNK999      0.0000 
     40 H          -5.5621  -34.1693   25.8525 H         1 TNK999      0.0000 
     41 H          -6.1368  -35.6987   22.7998 H         1 TNK999      0.0000 
     42 H          -7.8989  -37.3254   22.3914 H         1 TNK999      0.0000 
     43 H          -9.8332  -37.4103   23.8688 H         1 TNK999      0.0000 
     44 H         -10.0017  -35.8615   25.7379 H         1 TNK999      0.0000 
     45 H          -8.2394  -34.2371   26.1367 H         1 TNK999      0.0000 
     46 H          -0.4063  -39.4697   25.9513 H         1 TNK999      0.0000 
     47 H          -1.5703  -38.3896   26.2054 H         1 TNK999      0.0000 
     48 H          -1.5714  -39.2715   24.8606 H         1 TNK999      0.0000 
     49 H           1.5584  -37.9303   26.0211 H         1 TNK999      0.0000 
     50 H           1.7099  -36.7152   24.9787 H         1 TNK999      0.0000 
     51 H           0.7866  -36.5441   26.2842 H         1 TNK999      0.0000 
@<TRIPOS>BOND
     1    2    1 ar   
     2    6    1 ar   
     3   15    1 1    
     4    3    2 ar   
     5   28    2 1    
     6    4    3 ar   
     7   29    3 1    
     8    5    4 ar   
     9   30    4 1    
    10    6    5 ar   
    11   31    5 1    
    12   32    6 1    
    13    8    7 1    
    14   14    7 2    
    15   15    7 1    
    16    9    8 1    
    17   19    8 1    
    18   10    9 2    
    19   11    9 1    
    20   12   11 1    
    21   33   11 1    
    22   13   12 2    
    23   14   12 1    
    24   16   14 1    
    25   34   15 1    
    26   35   15 1    
    27   17   16 1    
    28   18   16 1    
    29   36   16 1    
    30   46   17 1    
    31   47   17 1    
    32   48   17 1    
    33   49   18 1    
    34   50   18 1    
    35   51   18 1    
    36   20   19 1    
    37   37   19 1    
    38   38   19 1    
    39   21   20 1    
    40   22   21 1    
    41   39   21 1    
    42   40   21 1    
    43   23   22 ar   
    44   27   22 ar   
    45   24   23 ar   
    46   41   23 1    
    47   25   24 ar   
    48   42   24 1    
    49   26   25 ar   
    50   43   25 1    
    51   27   26 ar   
    52   44   26 1    
    53   45   27 1    
@<TRIPOS>SUBSTRUCTURE
     1 TNK999      1 GROUP   
@<TRIPOS>SET

