#    Name: 2ipj_FFA_1_INTS_M
#    Modification time : Tue Mar 25 18:29:26 2014

@<TRIPOS>MOLECULE
2ipj_FFA_1_INTS_M
   53     0     6     0     0
SMALL
NO_CHARGES


@<TRIPOS>ATOM
      1 CA        120.8030   18.8115  165.6090 C.3       2 GLC5        0.0000 
      2 CA        118.8310   18.2320  166.0420 C.3       6 GLL5        0.0000 
      3 CA        122.7750   19.3910  165.1760 C.3       4 GLP5        0.0000 
      4 CA        117.5110   15.5700  166.5000 C.3       2 GLC5        0.0000 
      5 CA        118.1510   17.5720  167.0190 C.3       6 GLL5        0.0000 
      6 CA        116.8710   13.5680  165.9810 C.3       4 GLP5        0.0000 
      7 CA        117.8825   19.1915  170.0430 C.3       2 GLC5        0.0000 
      8 CA        116.6190   17.9060  169.0740 C.3       6 GLL5        0.0000 
      9 CA        119.1460   20.4770  171.0120 C.3       4 GLP5        0.0000 
     10 CA        120.2465   16.3205  170.3745 C.3       2 GLC5        0.0000 
     11 CA        118.7000   16.4210  169.2540 C.3       6 GLL5        0.0000 
     12 CA        121.7930   16.2200  171.4950 C.3       4 GLP5        0.0000 
     13 CA        120.1295   15.4155  166.6305 C.3       2 GLC5        0.0000 
     14 CA        118.8380   16.3920  167.7160 C.3       6 GLL5        0.0000 
     15 CA        121.4210   14.4390  165.5450 C.3       4 GLP5        0.0000 
     16 CA        118.1245   18.5590  171.1430 C.3       2 GLC5        0.0000 
     17 CA        117.1030   16.6410  171.2740 C.3       6 GLL5        0.0000 
     18 CA        119.6955   15.8475  171.8195 C.3       2 GLC5        0.0000 
     19 CA        117.5980   15.4750  172.1440 C.3       6 GLL5        0.0000 
     20 CA        117.2455   13.6945  171.8105 C.3       2 GLC5        0.0000 
     21 CA        116.8930   11.9140  171.4770 C.3       4 GLP5        0.0000 
     22 CA        118.1830   17.0320  174.6785 C.3       2 GLC5        0.0000 
     23 CA        117.0140   15.8480  173.5330 C.3       6 GLL5        0.0000 
     24 CA        119.3520   18.2160  175.8240 C.3       4 GLP5        0.0000 
     25 CA        117.5185   13.9825  173.6150 C.3       2 GLC5        0.0000 
     26 CA        118.0230   12.1170  173.6970 C.3       4 GLP5        0.0000 
     27 CA        114.2105   14.3820  172.6900 C.3       2 GLC5        0.0000 
     28 CA        114.6390   15.6590  171.3340 C.3       6 GLL5        0.0000 
     29 CA        113.7820   13.1050  174.0460 C.3       4 GLP5        0.0000 
     30 CA        115.7660   13.7865  171.4055 C.3       2 GLC5        0.0000 
     31 CA        114.1590   16.0480  173.4740 C.3       2 GLC5        0.0000 
     32 CA        113.6790   16.4370  175.6140 C.3       4 GLP5        0.0000 
     33 CA        115.6170   15.1345  166.4955 C.3       2 GLC5        0.0000 
     34 CA        115.7330   16.9020  166.8060 C.3       6 GLL5        0.0000 
     35 CA        115.5010   13.3670  166.1850 C.3       4 GLP5        0.0000 
     36 N         115.5205   19.3025  174.3535 N.am      1 SEC2        0.0000 
     37 N         115.9580   18.0090  173.8920 N.am      5 SEL2        0.0000 
     38 N         115.0830   20.5960  174.8150 N.am      3 SEP2        0.0000 
     39 N         117.1465   18.3280  174.4480 N.am      1 SEC2        0.0000 
     40 N         118.3350   18.6470  175.0040 N.am      3 SEP2        0.0000 
     41 CA        119.5135   18.8785  167.7742 C.3       2 GLC5        0.0000 
     42 CA        120.5360   19.8550  169.0180 C.3       4 GLP5        0.0000 
     43 CA        119.6525   18.1307  168.7515 C.3       2 GLC5        0.0000 
     44 CA        118.2540   14.6837  167.6695 C.3       2 GLC5        0.0000 
     45 CA        117.7390   12.9610  166.8540 C.3       4 GLP5        0.0000 
     46 CA        115.4873   19.5580  171.4735 C.3       2 GLC5        0.0000 
     47 CA        115.1490   18.1590  169.6010 C.3       6 GLL5        0.0000 
     48 CA        115.8340   20.9560  172.5680 C.3       4 GLP5        0.0000 
     49 CA        115.7635   18.8592  172.5415 C.3       2 GLC5        0.0000 
     50 CA        115.6340   16.8050  171.7460 C.3       6 GLL5        0.0000 
     51 CA        115.0825   14.6945  173.7272 C.3       2 GLC5        0.0000 
     52 CA        115.7520   16.7200  173.2840 C.3       6 GLL5        0.0000 
     53 CA        115.0162   16.3711  174.3190 C.3       2 GLC5        0.0000 
@<TRIPOS>BOND
@<TRIPOS>SUBSTRUCTURE
     1 SEC2       36 GROUP        1 X    SEC  0     ROOT SEC X 2
     2 GLC5        1 GROUP        1 X    GLC  0     **** GLC X 6
     3 SEP2       38 GROUP        1 Y    SEP  0     ROOT SEP Y 9
     4 GLP5        3 GROUP        1 Y    GLP  0     **** GLP Y 13
     5 SEL2       37 GROUP        1 Z    SEL  0     ROOT SEL Z 16
     6 GLL5        2 GROUP        1 Z    GLL  0     **** GLL Z 20
@<TRIPOS>SET

