#    Name: 2ipj_FFA_1_ligand
#    Modification time : Tue Mar 25 18:29:27 2014

@<TRIPOS>MOLECULE
2ipj_FFA_1_ligand
   49    52     1     0     0
SMALL
NO_CHARGES


@<TRIPOS>ATOM
      1 C1        116.3270   19.3780  167.0000 C.3       1 FFA325      0.0000 
      2 C2        116.8290   19.8260  165.6010 C.3       1 FFA325      0.0000 
      3 C3        118.2570   19.3800  165.2810 C.2       1 FFA325      0.0000 
      4 C4        118.8310   18.2320  166.0420 C.2       1 FFA325      0.0000 
      5 C5        118.1510   17.5720  167.0190 C.2       1 FFA325      0.0000 
      6 C6        116.7010   17.9160  167.4840 C.3       1 FFA325      0.0000 
      7 C7        116.6190   17.9060  169.0740 C.3       1 FFA325      0.0000 
      8 C8        117.2270   16.5990  169.7140 C.3       1 FFA325      0.0000 
      9 C9        118.7000   16.4210  169.2540 C.3       1 FFA325      0.0000 
     10 C10       118.8380   16.3920  167.7160 C.3       1 FFA325      0.0000 
     11 C11       115.1490   18.1590  169.6010 C.3       1 FFA325      0.0000 
     12 C12       115.1320   18.1610  171.1570 C.3       1 FFA325      0.0000 
     13 C14       117.1030   16.6410  171.2740 C.3       1 FFA325      0.0000 
     14 C13       115.6340   16.8050  171.7460 C.3       1 FFA325      0.0000 
     15 C15       117.5980   15.4750  172.1440 C.3       1 FFA325      0.0000 
     16 C16       117.0140   15.8480  173.5330 C.3       1 FFA325      0.0000 
     17 C17       115.7520   16.7200  173.2840 C.3       1 FFA325      0.0000 
     18 C18       114.6390   15.6590  171.3340 C.3       1 FFA325      0.0000 
     19 C19       115.7330   16.9020  166.8060 C.3       1 FFA325      0.0000 
     20 O3        118.9120   19.9400  164.4120 O.2       1 FFA325      0.0000 
     21 O17       115.9580   18.0090  173.8920 O.3       1 FFA325      0.0000 
     22 H         115.2200   19.4675  167.0288 H         1 FFA325      0.0000 
     23 H         116.7078   20.0909  167.7623 H         1 FFA325      0.0000 
     24 H         116.7706   20.9226  165.5465 H         1 FFA325      0.0000 
     25 H         116.1441   19.4226  164.8413 H         1 FFA325      0.0000 
     26 H         119.8001   17.9643  165.7733 H         1 FFA325      0.0000 
     27 H         117.2311   18.7523  169.4314 H         1 FFA325      0.0000 
     28 H         116.6493   15.7606  169.3489 H         1 FFA325      0.0000 
     29 H         119.0854   15.4866  169.6649 H         1 FFA325      0.0000 
     30 H         119.2935   17.2463  169.6504 H         1 FFA325      0.0000 
     31 H         119.9053   16.3942  167.4588 H         1 FFA325      0.0000 
     32 H         118.4080   15.4536  167.3422 H         1 FFA325      0.0000 
     33 H         114.5148   17.3694  169.2355 H         1 FFA325      0.0000 
     34 H         114.8158   19.1157  169.2365 H         1 FFA325      0.0000 
     35 H         114.1162   18.3373  171.4998 H         1 FFA325      0.0000 
     36 H         115.7754   18.9590  171.5171 H         1 FFA325      0.0000 
     37 H         117.6116   17.5582  171.6485 H         1 FFA325      0.0000 
     38 H         118.6455   15.4823  172.1929 H         1 FFA325      0.0000 
     39 H         117.1706   14.5752  171.8164 H         1 FFA325      0.0000 
     40 H         117.7345   16.4170  174.0794 H         1 FFA325      0.0000 
     41 H         116.7313   14.9567  174.0498 H         1 FFA325      0.0000 
     42 H         114.9200   16.1964  173.6643 H         1 FFA325      0.0000 
     43 H         114.5679   15.5682  170.3407 H         1 FFA325      0.0000 
     44 H         114.9283   14.7703  171.6896 H         1 FFA325      0.0000 
     45 H         113.7158   15.8266  171.6798 H         1 FFA325      0.0000 
     46 H         115.7987   16.9357  165.8087 H         1 FFA325      0.0000 
     47 H         115.9290   15.9607  167.0810 H         1 FFA325      0.0000 
     48 H         114.7787   17.0840  167.0432 H         1 FFA325      0.0000 
     49 H         116.3880   18.5648  173.1806 H         1 FFA325      0.0000 
@<TRIPOS>BOND
     1    2    1 1    
     2    6    1 1    
     3   22    1 1    
     4   23    1 1    
     5    3    2 1    
     6   24    2 1    
     7   25    2 1    
     8    4    3 1    
     9   20    3 2    
    10    5    4 2    
    11   26    4 1    
    12    6    5 1    
    13   10    5 1    
    14    7    6 1    
    15   19    6 1    
    16    8    7 1    
    17   11    7 1    
    18   27    7 1    
    19    9    8 1    
    20   13    8 1    
    21   28    8 1    
    22   10    9 1    
    23   29    9 1    
    24   30    9 1    
    25   31   10 1    
    26   32   10 1    
    27   12   11 1    
    28   33   11 1    
    29   34   11 1    
    30   14   12 1    
    31   35   12 1    
    32   36   12 1    
    33   14   13 1    
    34   15   13 1    
    35   37   13 1    
    36   17   14 1    
    37   18   14 1    
    38   16   15 1    
    39   38   15 1    
    40   39   15 1    
    41   17   16 1    
    42   40   16 1    
    43   41   16 1    
    44   21   17 1    
    45   42   17 1    
    46   43   18 1    
    47   44   18 1    
    48   45   18 1    
    49   46   19 1    
    50   47   19 1    
    51   48   19 1    
    52   49   21 1    
@<TRIPOS>SUBSTRUCTURE
     1 FFA325      1 GROUP   
@<TRIPOS>SET

