#    Name: 4aoj_V4Z_1_INTS_M
#    Modification time : Tue Mar 25 05:55:15 2014

@<TRIPOS>MOLECULE
4aoj_V4Z_1_INTS_M
   71     0     6     0     0
SMALL
NO_CHARGES


@<TRIPOS>ATOM
      1 CA         88.9600   55.0335   25.1145 C.3       2 GLC5        0.0000 
      2 CA         90.0090   56.3740   24.0620 C.3       6 GLL5        0.0000 
      3 CA         87.9110   53.6930   26.1670 C.3       4 GLP5        0.0000 
      4 CA         92.7440   59.7740   24.0740 C.3       2 GLC5        0.0000 
      5 CA         91.1100   58.6700   24.1300 C.3       6 GLL5        0.0000 
      6 CA         94.3780   60.8780   24.0180 C.3       4 GLP5        0.0000 
      7 CA         91.8360   59.5970   25.8370 C.3       2 GLC5        0.0000 
      8 CA         92.5620   60.5240   27.5440 C.3       4 GLP5        0.0000 
      9 CA         90.3660   60.1990   22.8405 C.3       2 GLC5        0.0000 
     10 CA         89.6220   61.7280   21.5510 C.3       4 GLP5        0.0000 
     11 CA         94.1415   58.9780   24.9450 C.3       2 GLC5        0.0000 
     12 CA         93.9050   57.0780   25.8720 C.3       6 GLL5        0.0000 
     13 CA         93.2780   55.4300   26.0015 C.3       2 GLC5        0.0000 
     14 CA         92.6510   53.7820   26.1310 C.3       4 GLP5        0.0000 
     15 CA         95.7850   59.0540   27.2225 C.3       2 GLC5        0.0000 
     16 CA         94.7500   57.2210   27.0150 C.3       6 GLL5        0.0000 
     17 CA         96.8200   60.8870   27.4300 C.3       4 GLP5        0.0000 
     18 CA         94.6855   55.6970   28.5605 C.3       2 GLC5        0.0000 
     19 CA         94.6210   54.1730   30.1060 C.3       4 GLP5        0.0000 
     20 CA         94.9365   55.4055   26.3210 C.3       2 GLC5        0.0000 
     21 CA         95.1230   53.5900   25.6270 C.3       4 GLP5        0.0000 
     22 O          96.4665   56.4650   28.3210 O.2       1 ALC1        0.0000 
     23 O          96.1180   57.2550   27.0060 O.2       5 ALL1        0.0000 
     24 O          96.8150   55.6750   29.6360 O.2       3 ALP1        0.0000 
     25 CA         96.9130   59.0220   26.6900 C.3       2 GLC5        0.0000 
     26 CA         97.0060   57.1570   25.9500 C.3       6 GLL5        0.0000 
     27 CA         96.0645   55.3735   25.7885 C.3       2 GLC5        0.0000 
     28 CA         94.1840   58.1255   19.3760 C.3       2 GLC5        0.0000 
     29 CA         95.6730   57.4070   20.6740 C.3       6 GLL5        0.0000 
     30 CA         92.6950   58.8440   18.0780 C.3       4 GLP5        0.0000 
     31 CA         92.8615   54.0960   24.2650 C.3       2 GLC5        0.0000 
     32 CA         93.0720   54.4100   22.3990 C.3       6 GLL5        0.0000 
     33 CA         93.1655   50.6460   21.2410 C.3       2 GLC5        0.0000 
     34 CA         93.0800   52.0490   22.2780 C.3       6 GLL5        0.0000 
     35 CA         93.2510   49.2430   20.2040 C.3       4 GLP5        0.0000 
     36 CA         93.3010   50.2080   23.1065 C.3       2 GLC5        0.0000 
     37 CA         93.5220   48.3670   23.9350 C.3       4 GLP5        0.0000 
     38 CA         91.6800   52.1555   20.9095 C.3       2 GLC5        0.0000 
     39 CA         90.2800   52.2620   19.5410 C.3       4 GLP5        0.0000 
     40 CA         96.6690   52.4245   22.3335 C.3       2 GLC5        0.0000 
     41 CA         95.1110   53.3100   22.0640 C.3       6 GLL5        0.0000 
     42 CA         98.2270   51.5390   22.6030 C.3       4 GLP5        0.0000 
     43 CA         95.1170   53.4500   23.8455 C.3       2 GLC5        0.0000 
     44 CA         99.1270   59.1070   27.7935 C.3       2 GLC5        0.0000 
     45 CA         99.0460   57.2590   27.8660 C.3       6 GLL5        0.0000 
     46 CA         99.2080   60.9550   27.7210 C.3       4 GLP5        0.0000 
     47 CA         98.2470   58.4725   29.3820 C.3       2 GLC5        0.0000 
     48 CA         97.4480   59.6860   30.8980 C.3       4 GLP5        0.0000 
     49 CA         98.8305   56.7405   29.8290 C.3       2 GLC5        0.0000 
     50 CA         98.6150   56.2220   31.7920 C.3       4 GLP5        0.0000 
     51 CA         99.0900   55.5425   27.2865 C.3       2 GLC5        0.0000 
     52 CA         99.1340   53.8260   26.7070 C.3       4 GLP5        0.0000 
     53 CA         91.6312   55.2845   25.2010 C.3       2 GLC5        0.0000 
     54 CA         89.2754   58.5168   24.6217 C.3       2 GLC5        0.0000 
     55 CA         91.2140   57.2000   24.4800 C.3       6 GLL5        0.0000 
     56 CA         87.6900   59.3050   25.0430 C.3       4 GLP5        0.0000 
     57 CA         93.4447   58.8368   26.9937 C.3       2 GLC5        0.0000 
     58 CA         94.8353   58.7832   21.4990 C.3       2 GLC5        0.0000 
     59 CA         95.7920   56.9060   22.1080 C.3       6 GLL5        0.0000 
     60 CA         93.9380   60.4100   21.6070 C.3       4 GLP5        0.0000 
     61 CA         94.7725   54.5905   23.9420 C.3       2 GLC5        0.0000 
     62 CA         95.0990   55.5870   22.1600 C.3       6 GLL5        0.0000 
     63 CA         93.6018   52.7355   24.0575 C.3       2 GLC5        0.0000 
     64 CA         93.7840   52.8260   25.8490 C.3       4 GLP5        0.0000 
     65 CA         91.7429   52.2596   23.1821 C.3       2 GLC5        0.0000 
     66 CA         90.2380   51.5820   24.0620 C.3       4 GLP5        0.0000 
     67 CA         98.5595   59.0842   25.6130 C.3       2 GLC5        0.0000 
     68 CA         98.3550   57.1550   26.2610 C.3       6 GLL5        0.0000 
     69 CA         98.3240   61.0650   25.4860 C.3       4 GLP5        0.0000 
     70 CA         98.7959   55.4650   26.1846 C.3       2 GLC5        0.0000 
     71 CA         99.2350   57.0520   25.2190 C.3       6 GLL5        0.0000 
@<TRIPOS>BOND
@<TRIPOS>SUBSTRUCTURE
     1 ALC1       22 GROUP        1 X    ALC  0     ROOT ALC X 1
     2 GLC5        1 GROUP        1 X    GLC  0     **** GLC X 6
     3 ALP1       24 GROUP        1 Y    ALP  0     ROOT ALP Y 8
     4 GLP5        3 GROUP        1 Y    GLP  0     **** GLP Y 13
     5 ALL1       23 GROUP        1 Z    ALL  0     ROOT ALL Z 15
     6 GLL5        2 GROUP        1 Z    GLL  0     **** GLL Z 20
@<TRIPOS>SET

