#    Name: 4aoj_V4Z_1_ligand
#    Modification time : Tue Mar 25 05:55:15 2014

@<TRIPOS>MOLECULE
4aoj_V4Z_1_ligand
   46    48     1     0     0
SMALL
NO_CHARGES


@<TRIPOS>ATOM
      1 C1         90.0090   56.3740   24.0620 C.3       1 V4Z900      0.0000 
      2 C2         91.2140   57.2000   24.4800 C.3       1 V4Z900      0.0000 
      3 C3         91.1100   58.6700   24.1300 C.3       1 V4Z900      0.0000 
      4 O1         91.3570   57.0540   25.8900 O.3       1 V4Z900      0.0000 
      5 C4         92.6230   57.1160   26.3790 C.2       1 V4Z900      0.0000 
      6 C5         93.9050   57.0780   25.8720 C.2       1 V4Z900      0.0000 
      7 C6         94.7500   57.2210   27.0150 C.2       1 V4Z900      0.0000 
      8 N1         96.1180   57.2550   27.0060 N.pl3     1 V4Z900      0.0000 
      9 C7         97.0060   57.1570   25.9500 C.ar      1 V4Z900      0.0000 
     10 N2         96.5650   57.0540   24.6870 N.ar      1 V4Z900      0.0000 
     11 C8         97.5120   56.9440   23.7410 C.ar      1 V4Z900      0.0000 
     12 N3         97.2070   56.8210   22.3960 N.pl3     1 V4Z900      0.0000 
     13 C9         95.7920   56.9060   22.1080 C.3       1 V4Z900      0.0000 
     14 C10        95.6730   57.4070   20.6740 C.3       1 V4Z900      0.0000 
     15 C11        95.0990   55.5870   22.1600 C.ar      1 V4Z900      0.0000 
     16 C12        93.7450   55.5950   22.3540 C.ar      1 V4Z900      0.0000 
     17 C13        93.0720   54.4100   22.3990 C.ar      1 V4Z900      0.0000 
     18 C14        93.7590   53.2410   22.2540 C.ar      1 V4Z900      0.0000 
     19 F1         93.0800   52.0490   22.2780 F         1 V4Z900      0.0000 
     20 C15        95.1110   53.3100   22.0640 C.ar      1 V4Z900      0.0000 
     21 N4         95.7920   54.4620   22.0180 N.ar      1 V4Z900      0.0000 
     22 N5         98.8310   56.9470   23.9590 N.ar      1 V4Z900      0.0000 
     23 C16        99.2350   57.0520   25.2190 C.ar      1 V4Z900      0.0000 
     24 C17        98.3550   57.1550   26.2610 C.ar      1 V4Z900      0.0000 
     25 CL1        99.0460   57.2590   27.8660 Cl        1 V4Z900      0.0000 
     26 N6         94.0440   57.3370   28.1500 N.pl3     1 V4Z900      0.0000 
     27 N7         92.7840   57.2540   27.7290 N.2       1 V4Z900      0.0000 
     28 H          92.0914   56.7856   23.9807 H         1 V4Z900      0.0000 
     29 H          94.1847   56.9832   25.0006 H         1 V4Z900      0.0000 
     30 H          96.5931   57.3804   27.9962 H         1 V4Z900      0.0000 
     31 H          97.8628   56.6885   21.6841 H         1 V4Z900      0.0000 
     32 H          95.2999   57.6102   22.7367 H         1 V4Z900      0.0000 
     33 H          93.2409   56.4878   22.4647 H         1 V4Z900      0.0000 
     34 H          92.0480   54.3978   22.5421 H         1 V4Z900      0.0000 
     35 H          95.6397   52.3933   21.9477 H         1 V4Z900      0.0000 
     36 H         100.2690   57.0578   25.4429 H         1 V4Z900      0.0000 
     37 H          94.3660   57.4489   29.0231 H         1 V4Z900      0.0000 
     38 H          89.8599   56.4084   23.0738 H         1 V4Z900      0.0000 
     39 H          90.1152   55.4108   24.3091 H         1 V4Z900      0.0000 
     40 H          89.1684   56.6971   24.4967 H         1 V4Z900      0.0000 
     41 H          91.9182   59.1800   24.4244 H         1 V4Z900      0.0000 
     42 H          91.0171   58.8114   23.1444 H         1 V4Z900      0.0000 
     43 H          90.3181   59.0999   24.5637 H         1 V4Z900      0.0000 
     44 H          96.0959   58.3058   20.5583 H         1 V4Z900      0.0000 
     45 H          96.1177   56.7883   20.0263 H         1 V4Z900      0.0000 
     46 H          94.7184   57.4933   20.3887 H         1 V4Z900      0.0000 
@<TRIPOS>BOND
     1    2    1 1    
     2   38    1 1    
     3   39    1 1    
     4   40    1 1    
     5    3    2 1    
     6    4    2 1    
     7   28    2 1    
     8   41    3 1    
     9   42    3 1    
    10   43    3 1    
    11    5    4 1    
    12    6    5 1    
    13   27    5 2    
    14    7    6 2    
    15   29    6 1    
    16    8    7 1    
    17   26    7 1    
    18    9    8 1    
    19   30    8 1    
    20   10    9 ar   
    21   24    9 ar   
    22   11   10 ar   
    23   12   11 1    
    24   22   11 ar   
    25   13   12 1    
    26   31   12 1    
    27   14   13 1    
    28   15   13 1    
    29   32   13 1    
    30   44   14 1    
    31   45   14 1    
    32   46   14 1    
    33   16   15 ar   
    34   21   15 ar   
    35   17   16 ar   
    36   33   16 1    
    37   18   17 ar   
    38   34   17 1    
    39   19   18 1    
    40   20   18 ar   
    41   21   20 ar   
    42   35   20 1    
    43   23   22 ar   
    44   24   23 ar   
    45   36   23 1    
    46   25   24 1    
    47   27   26 1    
    48   37   26 1    
@<TRIPOS>SUBSTRUCTURE
     1 V4Z900      1 GROUP   
@<TRIPOS>SET

