#    Name: 4a5a_ANP_3_INTS_M
#    Modification time : Tue Mar 25 04:58:56 2014

@<TRIPOS>MOLECULE
4a5a_ANP_3_INTS_M
   70     0    12     0     0
SMALL
NO_CHARGES


@<TRIPOS>ATOM
      1 N          11.1670   25.4390  -94.7725 N.am      1 SEC2        0.0000 
      2 N          11.9410   26.0160  -96.1600 N.am      9 SEL2        0.0000 
      3 N          10.3930   24.8620  -93.3850 N.am      5 SEP2        0.0000 
      4 N          11.3375   26.8410  -94.8970 N.am      1 SEC2        0.0000 
      5 N          10.7340   27.6660  -93.6340 N.am      5 SEP2        0.0000 
      6 Zn         12.7750   25.0020  -99.2700 Zn        3 ZIC7        0.0000 
      7 Zn         12.9810   25.1590  -98.2940 Zn       11 ZIL7        0.0000 
      8 Zn         12.5690   24.8450 -100.2460 Zn        7 ZIP7        0.0000 
      9 N          14.6180   23.4810  -95.8135 N.am      1 SEC2        0.0000 
     10 N          14.2450   25.0150  -96.0930 N.am      9 SEL2        0.0000 
     11 N          14.9910   21.9470  -95.5340 N.am      5 SEP2        0.0000 
     12 N          15.2290   25.1490  -96.9870 N.am      1 SEC2        0.0000 
     13 N          16.2130   25.2830  -97.8810 N.am      5 SEP2        0.0000 
     14 N          15.3350   25.9030  -95.6375 N.am      1 SEC2        0.0000 
     15 N          16.4250   26.7910  -95.1820 N.am      5 SEP2        0.0000 
     16 NZ         13.2995   20.2315  -98.4370 N.4       2 LYC4        0.0000 
     17 NZ         12.6500   21.0510  -97.2260 N.4      10 LYL4        0.0000 
     18 NZ         13.4540   19.6890 -100.8570 N.4       6 LYP4        0.0000 
     19 N          12.5430   21.6745  -95.6015 N.am      1 SEC2        0.0000 
     20 N          12.6500   21.0510  -97.2260 N.am      9 SEL2        0.0000 
     21 N          12.4360   22.2980  -93.9770 N.am      5 SEP2        0.0000 
     22 N          12.9780   20.4110  -96.0495 N.am      1 SEC2        0.0000 
     23 N          13.3060   19.7710  -94.8730 N.am      5 SEP2        0.0000 
     24 N          11.9355   19.7640  -96.9945 N.am      1 SEC2        0.0000 
     25 N          11.2210   18.4770  -96.7630 N.am      5 SEP2        0.0000 
     26 N          13.2995   20.2315  -98.4370 N.am      1 SEC2        0.0000 
     27 N          13.9490   19.4120  -99.6480 N.am      5 SEP2        0.0000 
     28 NZ         12.4705   21.8340 -100.0170 N.4       2 LYC4        0.0000 
     29 NZ         12.2220   22.8880  -99.0130 N.4      10 LYL4        0.0000 
     30 Zn         12.3955   23.8665  -99.6295 Zn        3 ZIC7        0.0000 
     31 Zn         12.2220   22.8880  -99.0130 Zn       11 ZIL7        0.0000 
     32 N          12.4705   21.8340 -100.0170 N.am      1 SEC2        0.0000 
     33 N          12.2220   22.8880  -99.0130 N.am      9 SEL2        0.0000 
     34 N          12.7190   20.7800 -101.0210 N.am      5 SEP2        0.0000 
     35 NZ          9.7125   19.2920 -100.3125 N.4       2 LYC4        0.0000 
     36 NZ          9.4960   20.2870  -99.4160 N.4      10 LYL4        0.0000 
     37 NZ         10.3110   17.2280 -100.5150 N.4       6 LYP4        0.0000 
     38 N          10.0820   18.8365  -99.3245 N.am      1 SEC2        0.0000 
     39 N           9.4960   20.2870  -99.4160 N.am      9 SEL2        0.0000 
     40 N          10.6680   17.3860  -99.2330 N.am      5 SEP2        0.0000 
     41 N           9.7125   19.2920 -100.3125 N.am      1 SEC2        0.0000 
     42 N           9.9290   18.2970 -101.2090 N.am      5 SEP2        0.0000 
     43 N           9.7175   22.9750  -96.7310 N.am      1 SEC2        0.0000 
     44 N          10.3480   21.9040  -97.6190 N.am      9 SEL2        0.0000 
     45 N           9.0870   24.0460  -95.8430 N.am      5 SEP2        0.0000 
     46 CA          5.2700   22.3200  -95.8235 C.3       4 GLC5        0.0000 
     47 CA          6.5810   20.8870  -96.6270 C.3      12 GLL5        0.0000 
     48 CA          3.9590   23.7530  -95.0200 C.3       8 GLP5        0.0000 
     49 CA          4.2155   21.8240  -95.6490 C.3       4 GLC5        0.0000 
     50 CA          4.4720   19.8950  -96.2780 C.3      12 GLL5        0.0000 
     51 CA          2.0670   20.5900  -99.9865 C.3       4 GLC5        0.0000 
     52 CA          1.7490   19.0540  -98.6510 C.3      12 GLL5        0.0000 
     53 CA          2.3850   22.1260 -101.3220 C.3       8 GLP5        0.0000 
     54 CA         -1.3630   19.9105  -99.3900 C.3       4 GLC5        0.0000 
     55 CA          0.2810   18.9340  -98.8130 C.3      12 GLL5        0.0000 
     56 CA         -3.0070   20.8870  -99.9670 C.3       8 GLP5        0.0000 
     57 CA          0.2195   16.8855  -98.4070 C.3       4 GLC5        0.0000 
     58 CA          0.1580   14.8370  -98.0010 C.3       8 GLP5        0.0000 
     59 CA          0.6835   21.3020  -95.5080 C.3       4 GLC5        0.0000 
     60 CA          0.0070   19.5600  -96.5580 C.3      12 GLL5        0.0000 
     61 CA          1.3600   23.0440  -94.4580 C.3       8 GLP5        0.0000 
     62 CA          0.2675   21.3730  -97.3610 C.3       4 GLC5        0.0000 
     63 CA          0.5280   23.1860  -98.1640 C.3       8 GLP5        0.0000 
     64 CA         -0.4930   17.5070  -96.2430 C.3       4 GLC5        0.0000 
     65 CA         -0.9930   15.4540  -95.9280 C.3       8 GLP5        0.0000 
     66 CA         -1.8080   20.6170  -96.4155 C.3       4 GLC5        0.0000 
     67 CA         -3.6230   21.6740  -96.2730 C.3       8 GLP5        0.0000 
     68 CA          7.8520   21.7645  -95.4340 C.3       4 GLC5        0.0000 
     69 CA          8.9890   23.2990  -94.5970 C.3       8 GLP5        0.0000 
     70 CA          1.0775   21.2085  -98.0953 C.3       4 GLC5        0.0000 
@<TRIPOS>BOND
@<TRIPOS>SUBSTRUCTURE
     1 SEC2        1 GROUP        1 X    SEC  0     ROOT SEC X 2
     2 LYC4       16 GROUP        1 X    LYC  0     **** LYC X 4
     3 ZIC7        6 GROUP        1 X    ZIC  0     **** ZIC X 5
     4 GLC5       46 GROUP        1 X    GLC  0     **** GLC X 6
     5 SEP2        3 GROUP        1 Y    SEP  0     ROOT SEP Y 9
     6 LYP4       18 GROUP        1 Y    LYP  0     **** LYP Y 11
     7 ZIP7        8 GROUP        1 Y    ZIP  0     **** ZIP Y 12
     8 GLP5       48 GROUP        1 Y    GLP  0     **** GLP Y 13
     9 SEL2        2 GROUP        1 Z    SEL  0     ROOT SEL Z 16
    10 LYL4       17 GROUP        1 Z    LYL  0     **** LYL Z 18
    11 ZIL7        7 GROUP        1 Z    ZIL  0     **** ZIL Z 19
    12 GLL5       47 GROUP        1 Z    GLL  0     **** GLL Z 20
@<TRIPOS>SET

