#    Name: 4a5a_ANP_3_ligand
#    Modification time : Tue Mar 25 04:58:56 2014

@<TRIPOS>MOLECULE
4a5a_ANP_3_ligand
   43    45     1     0     0
SMALL
NO_CHARGES


@<TRIPOS>ATOM
      1 PG         12.8970   25.0270  -96.7820 P.3       1 ANP700      0.0000 
      2 O1G        11.9410   26.0160  -96.1600 O.co2     1 ANP700      0.0000 
      3 O2G        12.9810   25.1590  -98.2940 O.co2     1 ANP700      0.0000 
      4 O3G        14.2450   25.0150  -96.0930 O.co2     1 ANP700      0.0000 
      5 PB         11.9140   22.2900  -97.6570 P.3       1 ANP700      0.0000 
      6 O1B        12.6500   21.0510  -97.2260 O.co2     1 ANP700      0.0000 
      7 O2B        12.2220   22.8880  -99.0130 O.co2     1 ANP700      0.0000 
      8 N3B        12.2330   23.4640  -96.4200 N.4       1 ANP700      0.0000 
      9 PA          9.4050   21.7240  -98.9270 P.3       1 ANP700      0.0000 
     10 O1A         9.4960   20.2870  -99.4160 O.co2     1 ANP700      0.0000 
     11 O2A         9.6040   22.9280  -99.8100 O.co2     1 ANP700      0.0000 
     12 O3A        10.3480   21.9040  -97.6190 O.3       1 ANP700      0.0000 
     13 O5'         7.9300   21.9630  -98.3640 O.3       1 ANP700      0.0000 
     14 C5'         7.0960   20.8430  -98.0650 C.3       1 ANP700      0.0000 
     15 C4'         6.5810   20.8870  -96.6270 C.3       1 ANP700      0.0000 
     16 O4'         5.1660   21.0810  -96.6600 O.3       1 ANP700      0.0000 
     17 C3'         6.8490   19.5730  -95.9150 C.3       1 ANP700      0.0000 
     18 O3'         7.3480   19.8150  -94.5810 O.3       1 ANP700      0.0000 
     19 C2'         5.5130   18.8380  -95.9500 C.3       1 ANP700      0.0000 
     20 O2'         5.2290   18.2250  -94.6940 O.3       1 ANP700      0.0000 
     21 C1'         4.4720   19.8950  -96.2780 C.3       1 ANP700      0.0000 
     22 N9          3.5770   19.5120  -97.3980 N.pl3     1 ANP700      0.0000 
     23 C8          3.9360   19.1780  -98.6570 C.2       1 ANP700      0.0000 
     24 N7          2.8410   18.8920  -99.4230 N.2       1 ANP700      0.0000 
     25 C5          1.7490   19.0540  -98.6510 C.ar      1 ANP700      0.0000 
     26 C6          0.2810   18.9340  -98.8130 C.ar      1 ANP700      0.0000 
     27 N6         -0.2790   18.5740  -99.9800 N.pl3     1 ANP700      0.0000 
     28 N1         -0.5080   19.1940  -97.7510 N.ar      1 ANP700      0.0000 
     29 C2          0.0070   19.5600  -96.5580 C.ar      1 ANP700      0.0000 
     30 N3          1.3300   19.7000  -96.3350 N.ar      1 ANP700      0.0000 
     31 C4          2.2390   19.4680  -97.3210 C.ar      1 ANP700      0.0000 
     32 H           7.6366   19.8886  -98.1958 H         1 ANP700      0.0000 
     33 H           6.2166   20.8027  -98.7323 H         1 ANP700      0.0000 
     34 H           7.0710   21.6754  -96.1048 H         1 ANP700      0.0000 
     35 H           7.5485   19.0189  -96.5188 H         1 ANP700      0.0000 
     36 H           5.5410   18.1365  -96.7575 H         1 ANP700      0.0000 
     37 H           3.8841   20.0822  -95.3914 H         1 ANP700      0.0000 
     38 H           4.8583   19.1429  -98.9861 H         1 ANP700      0.0000 
     39 H           0.3518   18.4067 -100.7377 H         1 ANP700      0.0000 
     40 H          -1.2766   18.5055  -99.9867 H         1 ANP700      0.0000 
     41 H          -0.6645   19.7473  -95.7538 H         1 ANP700      0.0000 
     42 H           8.3108   19.5467  -94.6123 H         1 ANP700      0.0000 
     43 H           5.8528   18.6619  -94.0459 H         1 ANP700      0.0000 
@<TRIPOS>BOND
     1    2    1 ar   
     2    3    1 ar   
     3    4    1 ar   
     4    8    1 1    
     5    6    5 ar   
     6    7    5 ar   
     7    8    5 1    
     8   12    5 1    
     9   10    9 ar   
    10   11    9 ar   
    11   12    9 1    
    12   13    9 1    
    13   14   13 1    
    14   15   14 1    
    15   32   14 1    
    16   33   14 1    
    17   16   15 1    
    18   17   15 1    
    19   34   15 1    
    20   21   16 1    
    21   18   17 1    
    22   19   17 1    
    23   35   17 1    
    24   42   18 1    
    25   20   19 1    
    26   21   19 1    
    27   36   19 1    
    28   43   20 1    
    29   22   21 1    
    30   37   21 1    
    31   23   22 1    
    32   31   22 1    
    33   24   23 2    
    34   38   23 1    
    35   25   24 1    
    36   26   25 ar   
    37   31   25 ar   
    38   27   26 1    
    39   28   26 ar   
    40   39   27 1    
    41   40   27 1    
    42   29   28 ar   
    43   30   29 ar   
    44   41   29 1    
    45   31   30 ar   
@<TRIPOS>SUBSTRUCTURE
     1 ANP700      1 GROUP   
@<TRIPOS>SET

