#    Name: 3vrt_YS2_1_INTS_M
#    Modification time : Tue Mar 25 01:21:04 2014

@<TRIPOS>MOLECULE
3vrt_YS2_1_INTS_M
   97     0     9     0     0
SMALL
NO_CHARGES


@<TRIPOS>ATOM
      1 N          11.1580   -6.9435   27.3720 N.am      2 SEC2        0.0000 
      2 N          10.5150   -5.7840   27.3870 N.am      8 SEL2        0.0000 
      3 N          11.8010   -8.1030   27.3570 N.am      5 SEP2        0.0000 
      4 CA         10.5755   -3.8370   25.5035 C.3       3 GLC5        0.0000 
      5 CA         11.3990   -4.7380   26.9680 C.3       9 GLL5        0.0000 
      6 CA          9.7520   -2.9360   24.0390 C.3       6 GLP5        0.0000 
      7 CA         10.7245   -2.1995   25.7625 C.3       3 GLC5        0.0000 
      8 CA         11.6970   -1.4630   27.4860 C.3       9 GLL5        0.0000 
      9 CA         11.2340   -1.5320   24.8395 C.3       3 GLC5        0.0000 
     10 CA         12.7160   -0.1280   25.6400 C.3       9 GLL5        0.0000 
     11 CA         15.2780    2.1340   28.3145 C.3       3 GLC5        0.0000 
     12 CA         13.6220    0.9070   27.7130 C.3       9 GLL5        0.0000 
     13 CA         16.9340    3.3610   28.9160 C.3       6 GLP5        0.0000 
     14 CA         11.1285    2.6135   26.8000 C.3       3 GLC5        0.0000 
     15 CA         13.2640    2.2420   27.0510 C.3       9 GLL5        0.0000 
     16 CA          8.9930    2.9850   26.5490 C.3       6 GLP5        0.0000 
     17 CA         14.9240    3.2635   27.5010 C.3       3 GLC5        0.0000 
     18 CA         16.5840    4.2850   27.9510 C.3       6 GLP5        0.0000 
     19 CA         12.8505    4.1940   27.3495 C.3       3 GLC5        0.0000 
     20 CA         12.4370    6.1460   27.6480 C.3       6 GLP5        0.0000 
     21 CA         15.6425    3.4025   26.2815 C.3       3 GLC5        0.0000 
     22 CA         14.1790    2.6790   25.8960 C.3       9 GLL5        0.0000 
     23 CA         17.1060    4.1260   26.6670 C.3       6 GLP5        0.0000 
     24 CA         13.0630    4.4210   25.5280 C.3       3 GLC5        0.0000 
     25 CA         11.9470    6.1630   25.1600 C.3       6 GLP5        0.0000 
     26 CA         14.5900   -4.1550   25.3070 C.3       3 GLC5        0.0000 
     27 CA         15.1040   -2.1020   26.0000 C.3       9 GLL5        0.0000 
     28 CA         14.0760   -6.2080   24.6140 C.3       6 GLP5        0.0000 
     29 CA         16.6760    0.2460   23.6690 C.3       3 GLC5        0.0000 
     30 CA         15.5780   -0.9280   25.1400 C.3       9 GLL5        0.0000 
     31 CA         17.7740    1.4200   22.1980 C.3       6 GLP5        0.0000 
     32 CA         16.7350    1.2075   26.6475 C.3       3 GLC5        0.0000 
     33 CA         15.1460    0.3000   25.9240 C.3       9 GLL5        0.0000 
     34 CA         18.3240    2.1150   27.3710 C.3       6 GLP5        0.0000 
     35 CA         16.3095   -0.5420   27.5855 C.3       3 GLC5        0.0000 
     36 CA         17.4730   -1.3840   29.2470 C.3       6 GLP5        0.0000 
     37 CA         16.3850    2.2800   25.7750 C.3       3 GLC5        0.0000 
     38 CA         14.7900    1.5170   25.1390 C.3       9 GLL5        0.0000 
     39 CA         17.9800    3.0430   26.4110 C.3       6 GLP5        0.0000 
     40 CA         12.0880    1.8475   20.7940 C.3       3 GLC5        0.0000 
     41 CA         14.1190    1.3420   21.1450 C.3       9 GLL5        0.0000 
     42 CA         10.0570    2.3530   20.4430 C.3       6 GLP5        0.0000 
     43 CA         14.4075   -0.7120   21.4265 C.3       3 GLC5        0.0000 
     44 CA         14.6960   -2.7660   21.7080 C.3       6 GLP5        0.0000 
     45 CA         16.1485    0.2785   18.7750 C.3       3 GLC5        0.0000 
     46 CA         14.8550    1.3740   19.8100 C.3       9 GLL5        0.0000 
     47 CA         17.4420   -0.8170   17.7400 C.3       6 GLP5        0.0000 
     48 N          14.6395    0.1045   17.3110 N.am      2 SEC2        0.0000 
     49 N          14.5020    0.2180   19.0430 N.am      8 SEL2        0.0000 
     50 N          14.7770   -0.0090   15.5790 N.am      5 SEP2        0.0000 
     51 O          13.0980   -0.1965   18.8990 O.2       1 ALC1        0.0000 
     52 O          14.5020    0.2180   19.0430 O.2       7 ALL1        0.0000 
     53 O          11.6940   -0.6110   18.7550 O.2       4 ALP1        0.0000 
     54 CA         15.9570    4.3030   17.9940 C.3       3 GLC5        0.0000 
     55 CA         14.5880    3.9570   19.7100 C.3       9 GLL5        0.0000 
     56 CA         17.3260    4.6490   16.2780 C.3       6 GLP5        0.0000 
     57 CA         14.7230    5.4840   18.4570 C.3       3 GLC5        0.0000 
     58 CA         14.8580    7.0110   17.2040 C.3       6 GLP5        0.0000 
     59 CA         16.0175    5.4885   20.2815 C.3       3 GLC5        0.0000 
     60 CA         17.4470    7.0200   20.8530 C.3       6 GLP5        0.0000 
     61 N          16.5380    5.1120   20.8405 N.am      2 SEC2        0.0000 
     62 N          15.9700    4.2580   19.9330 N.am      8 SEL2        0.0000 
     63 N          17.1060    5.9660   21.7480 N.am      5 SEP2        0.0000 
     64 O          16.6720    4.7270   18.7515 O.2       1 ALC1        0.0000 
     65 O          15.9700    4.2580   19.9330 O.2       7 ALL1        0.0000 
     66 O          17.3740    5.1960   17.5700 O.2       4 ALP1        0.0000 
     67 CA         13.0575   -5.4865   25.9973 C.3       3 GLC5        0.0000 
     68 CA         11.7237   -4.0088   29.8415 C.3       3 GLC5        0.0000 
     69 CA         12.6790   -4.7920   27.7930 C.3       9 GLL5        0.0000 
     70 CA         10.5800   -3.9170   31.6320 C.3       6 GLP5        0.0000 
     71 CA         12.6723   -5.9610   28.0544 C.3       3 GLC5        0.0000 
     72 CA         13.0560   -3.4090   28.3090 C.3       9 GLL5        0.0000 
     73 CA         12.7970   -7.8350   28.2640 C.3       6 GLP5        0.0000 
     74 CA         16.0553   -1.6007   27.8908 C.3       3 GLC5        0.0000 
     75 CA         14.1710   -1.5330   27.0690 C.3       9 GLL5        0.0000 
     76 CA         13.3855    1.8993   28.9910 C.3       3 GLC5        0.0000 
     77 CA         13.3280    2.2240   30.6000 C.3       6 GLP5        0.0000 
     78 CA         15.0185   -2.1405   23.6390 C.3       3 GLC5        0.0000 
     79 CA         16.8785   -2.8860   25.3595 C.3       3 GLC5        0.0000 
     80 CA         18.4160   -4.2570   25.1490 C.3       6 GLP5        0.0000 
     81 CA         16.3350    1.4845   23.3383 C.3       3 GLC5        0.0000 
     82 CA         16.2782    3.2010   23.9875 C.3       3 GLC5        0.0000 
     83 CA         15.0020    1.5810   23.8180 C.3       9 GLL5        0.0000 
     84 CA         17.7340    4.2180   24.5270 C.3       6 GLP5        0.0000 
     85 CA         16.1033    2.0802   22.3208 C.3       3 GLC5        0.0000 
     86 CA         14.2220    2.6940   21.8090 C.3       9 GLL5        0.0000 
     87 CA         12.4925    4.6975   19.7238 C.3       3 GLC5        0.0000 
     88 CA         13.8500    3.9410   21.0430 C.3       9 GLL5        0.0000 
     89 CA         10.7660    5.4460   19.0710 C.3       6 GLP5        0.0000 
     90 CA         12.2626    2.9859   22.3246 C.3       3 GLC5        0.0000 
     91 CA         10.3840    2.6310   22.9060 C.3       6 GLP5        0.0000 
     92 CA         13.9125    5.6060   20.7387 C.3       3 GLC5        0.0000 
     93 CA         13.6060    7.2630   21.1010 C.3       6 GLP5        0.0000 
     94 CA         16.1305    1.3890   21.3377 C.3       3 GLC5        0.0000 
     95 CA         15.6870    2.9240   17.2785 C.3       3 GLC5        0.0000 
     96 CA         14.4680    2.6120   19.0560 C.3       9 GLL5        0.0000 
     97 CA         17.1290    3.2830   16.1200 C.3       6 GLP5        0.0000 
@<TRIPOS>BOND
@<TRIPOS>SUBSTRUCTURE
     1 ALC1       51 GROUP        1 X    ALC  0     ROOT ALC X 1
     2 SEC2        1 GROUP        1 X    SEC  0     **** SEC X 2
     3 GLC5        4 GROUP        1 X    GLC  0     **** GLC X 6
     4 ALP1       53 GROUP        1 Y    ALP  0     ROOT ALP Y 8
     5 SEP2        3 GROUP        1 Y    SEP  0     **** SEP Y 9
     6 GLP5        6 GROUP        1 Y    GLP  0     **** GLP Y 13
     7 ALL1       52 GROUP        1 Z    ALL  0     ROOT ALL Z 15
     8 SEL2        2 GROUP        1 Z    SEL  0     **** SEL Z 16
     9 GLL5        5 GROUP        1 Z    GLL  0     **** GLL Z 20
@<TRIPOS>SET

