#    Name: 3vrt_YS2_1_ligand
#    Modification time : Tue Mar 25 01:21:04 2014

@<TRIPOS>MOLECULE
3vrt_YS2_1_ligand
   63    65     1     0     0
SMALL
NO_CHARGES


@<TRIPOS>ATOM
      1 O3         10.5150   -5.7840   27.3870 O.3       1 YS2501      0.0000 
      2 C24        11.3990   -4.7380   26.9680 C.3       1 YS2501      0.0000 
      3 C23        12.6790   -4.7920   27.7930 C.3       1 YS2501      0.0000 
      4 C22        13.0560   -3.4090   28.3090 C.3       1 YS2501      0.0000 
      5 C20        12.9010   -2.3580   27.2160 C.3       1 YS2501      0.0000 
      6 C21        11.6970   -1.4630   27.4860 C.3       1 YS2501      0.0000 
      7 C17        14.1710   -1.5330   27.0690 C.3       1 YS2501      0.0000 
      8 C13        13.8780   -0.1120   26.6220 C.3       1 YS2501      0.0000 
      9 C18        12.7160   -0.1280   25.6400 C.3       1 YS2501      0.0000 
     10 C12        13.6220    0.9070   27.7130 C.3       1 YS2501      0.0000 
     11 C11        13.2640    2.2420   27.0510 C.3       1 YS2501      0.0000 
     12 C9         14.1790    2.6790   25.8960 C.3       1 YS2501      0.0000 
     13 C16        15.1040   -2.1020   26.0000 C.3       1 YS2501      0.0000 
     14 C15        15.5780   -0.9280   25.1400 C.3       1 YS2501      0.0000 
     15 C14        15.1460    0.3000   25.9240 C.3       1 YS2501      0.0000 
     16 C8         14.7900    1.5170   25.1390 C.2       1 YS2501      0.0000 
     17 C7         15.0020    1.5810   23.8180 C.2       1 YS2501      0.0000 
     18 C6         14.6430    2.7870   23.0780 C.2       1 YS2501      0.0000 
     19 C5         14.2220    2.6940   21.8090 C.2       1 YS2501      0.0000 
     20 C4         13.8500    3.9410   21.0430 C.3       1 YS2501      0.0000 
     21 C10        14.1190    1.3420   21.1450 C.3       1 YS2501      0.0000 
     22 C1         14.8550    1.3740   19.8100 C.3       1 YS2501      0.0000 
     23 O1         14.5020    0.2180   19.0430 O.3       1 YS2501      0.0000 
     24 C2         14.4680    2.6120   19.0560 C.2       1 YS2501      0.0000 
     25 C28        14.0220    2.5180   17.8180 C.2       1 YS2501      0.0000 
     26 C3         14.5880    3.9570   19.7100 C.3       1 YS2501      0.0000 
     27 O2         15.9700    4.2580   19.9330 O.3       1 YS2501      0.0000 
     28 H          10.9493   -3.7492   27.1073 H         1 YS2501      0.0000 
     29 H          11.6733   -4.8396   25.9127 H         1 YS2501      0.0000 
     30 H          13.4897   -5.1789   27.1746 H         1 YS2501      0.0000 
     31 H          12.5338   -5.4647   28.6390 H         1 YS2501      0.0000 
     32 H          14.0910   -3.4220   28.6513 H         1 YS2501      0.0000 
     33 H          12.4125   -3.1506   29.1503 H         1 YS2501      0.0000 
     34 H          12.7261   -2.8803   26.2696 H         1 YS2501      0.0000 
     35 H          14.7048   -1.4967   27.9969 H         1 YS2501      0.0000 
     36 H          14.5109    1.0353   28.3115 H         1 YS2501      0.0000 
     37 H          12.7972    0.5850   28.3300 H         1 YS2501      0.0000 
     38 H          13.2685    3.0359   27.8247 H         1 YS2501      0.0000 
     39 H          12.2229    2.1851   26.6745 H         1 YS2501      0.0000 
     40 H          14.9812    3.3117   26.3046 H         1 YS2501      0.0000 
     41 H          13.5942    3.3009   25.2017 H         1 YS2501      0.0000 
     42 H          14.5665   -2.8011   25.3879 H         1 YS2501      0.0000 
     43 H          15.9497   -2.5666   26.4704 H         1 YS2501      0.0000 
     44 H          15.0841   -0.9524   24.2005 H         1 YS2501      0.0000 
     45 H          16.6361   -0.9525   25.0558 H         1 YS2501      0.0000 
     46 H          15.8666    0.5249   26.6785 H         1 YS2501      0.0000 
     47 H          15.4138    0.8112   23.2772 H         1 YS2501      0.0000 
     48 H          14.7312    3.6801   23.5763 H         1 YS2501      0.0000 
     49 H          14.1280    4.8201   21.6157 H         1 YS2501      0.0000 
     50 H          12.7803    3.9533   20.8591 H         1 YS2501      0.0000 
     51 H          13.0761    1.0965   20.9714 H         1 YS2501      0.0000 
     52 H          14.5670    0.5852   21.7811 H         1 YS2501      0.0000 
     53 H          15.9113    1.4017   20.0094 H         1 YS2501      0.0000 
     54 H          14.1259    4.6951   19.0787 H         1 YS2501      0.0000 
     55 H          11.7834   -0.9765   28.3554 H         1 YS2501      0.0000 
     56 H          11.5813   -0.7712   26.7733 H         1 YS2501      0.0000 
     57 H          10.8463   -1.9871   27.5266 H         1 YS2501      0.0000 
     58 H          12.4862    0.7917   25.3215 H         1 YS2501      0.0000 
     59 H          12.9224   -0.6759   24.8293 H         1 YS2501      0.0000 
     60 H          11.8885   -0.5115   26.0501 H         1 YS2501      0.0000 
     61 H          10.7701   -4.9617   27.8958 H         1 YS2501      0.0000 
     62 H          13.5080    0.1464   19.1255 H         1 YS2501      0.0000 
     63 H          16.3043    4.6032   19.0561 H         1 YS2501      0.0000 
@<TRIPOS>BOND
     1    2    1 1    
     2   61    1 1    
     3    3    2 1    
     4   28    2 1    
     5   29    2 1    
     6    4    3 1    
     7   30    3 1    
     8   31    3 1    
     9    5    4 1    
    10   32    4 1    
    11   33    4 1    
    12    6    5 1    
    13    7    5 1    
    14   34    5 1    
    15   55    6 1    
    16   56    6 1    
    17   57    6 1    
    18    8    7 1    
    19   13    7 1    
    20   35    7 1    
    21    9    8 1    
    22   10    8 1    
    23   15    8 1    
    24   58    9 1    
    25   59    9 1    
    26   60    9 1    
    27   11   10 1    
    28   36   10 1    
    29   37   10 1    
    30   12   11 1    
    31   38   11 1    
    32   39   11 1    
    33   16   12 1    
    34   40   12 1    
    35   41   12 1    
    36   14   13 1    
    37   42   13 1    
    38   43   13 1    
    39   15   14 1    
    40   44   14 1    
    41   45   14 1    
    42   16   15 1    
    43   46   15 1    
    44   17   16 2    
    45   18   17 1    
    46   47   17 1    
    47   19   18 2    
    48   48   18 1    
    49   20   19 1    
    50   21   19 1    
    51   26   20 1    
    52   49   20 1    
    53   50   20 1    
    54   22   21 1    
    55   51   21 1    
    56   52   21 1    
    57   23   22 1    
    58   24   22 1    
    59   53   22 1    
    60   62   23 1    
    61   25   24 2    
    62   26   24 1    
    63   27   26 1    
    64   54   26 1    
    65   63   27 1    
@<TRIPOS>SUBSTRUCTURE
     1 YS2501      1 GROUP   
@<TRIPOS>SET

