#    Name: 4J1H_1_CAVITY_N1_6.mol2
#    Modification time : Tue Mar 11 06:59:07 2014

@<TRIPOS>MOLECULE
4J1H_1_CAVITY_N1_6.mol2
  173     0     6     0     0
SMALL
NO_CHARGES


@<TRIPOS>ATOM
      1 N          23.2755   43.4361  -10.5856 N.2       2 ALA2        0.0000 
      2 N          22.1256   42.8768  -11.3698 N.2       2 ALA2        0.0000 
      3 N          21.4038   40.9268  -11.7899 N.2       2 ALA2        0.0000 
      4 N          20.9757   42.3176  -12.1540 N.2       2 ALA2        0.0000 
      5 N          20.2539   40.3676  -12.5741 N.2       2 ALA2        0.0000 
      6 CA         23.9906   42.6599   -8.2115 C.3       5 GLY6        0.0000 
      7 N          22.8407   42.1006   -8.9957 N.2       2 ALA2        0.0000 
      8 N          21.6909   41.5414   -9.7799 N.2       2 ALA2        0.0000 
      9 DU         21.2628   42.9321  -10.1440 H         6 CUB7        0.0000 
     10 CZ         20.9691   39.5914  -10.2000 C.ar      4 PHE5        0.0000 
     11 DU         20.5410   40.9821  -10.5641 H         6 CUB7        0.0000 
     12 N          20.1129   42.3729  -10.9283 N.2       2 ALA2        0.0000 
     13 N          19.6848   43.7636  -11.2924 N.2       2 ALA2        0.0000 
     14 CZ         19.8192   39.0321  -10.9843 C.ar      4 PHE5        0.0000 
     15 CZ         19.3911   40.4229  -11.3484 C.ar      4 PHE5        0.0000 
     16 N          18.9630   41.8136  -11.7125 N.2       2 ALA2        0.0000 
     17 N          18.5349   43.2044  -12.0766 N.2       2 ALA2        0.0000 
     18 CZ         18.6693   38.4729  -11.7685 C.ar      4 PHE5        0.0000 
     19 CA         17.8131   41.2544  -12.4967 C.3       5 GLY6        0.0000 
     20 CA         17.3850   42.6451  -12.8608 C.3       5 GLY6        0.0000 
     21 O          16.9570   44.0358  -13.2249 O.2       2 ALA2        0.0000 
     22 CA         23.1278   42.7152   -6.9858 C.3       5 GLY6        0.0000 
     23 CZ         22.4060   40.7652   -7.4059 C.ar      4 PHE5        0.0000 
     24 DU         21.9779   42.1560   -7.7700 H         6 CUB7        0.0000 
     25 CZ         21.6842   38.8152   -7.8260 C.ar      4 PHE5        0.0000 
     26 N          21.2561   40.2060   -8.1901 N.2       2 ALA2        0.0000 
     27 DU         20.8280   41.5967   -8.5542 H         6 CUB7        0.0000 
     28 CA         20.5343   38.2560   -8.6102 C.3       5 GLY6        0.0000 
     29 CA         20.1062   39.6467   -8.9743 C.3       5 GLY6        0.0000 
     30 DU         19.2500   42.4282   -9.7025 H         6 CUB7        0.0000 
     31 DU         18.8220   43.8189  -10.0666 H         6 CUB7        0.0000 
     32 CZ         18.9563   39.0874   -9.7585 C.ar      4 PHE5        0.0000 
     33 DU         18.5282   40.4782  -10.1226 H         6 CUB7        0.0000 
     34 DU         18.1002   41.8689  -10.4867 H         6 CUB7        0.0000 
     35 DU         17.6721   43.2597  -10.8508 H         6 CUB7        0.0000 
     36 DU         17.2440   44.6504  -11.2149 H         6 CUB7        0.0000 
     37 CZ         18.2345   37.1374  -10.1786 C.ar      4 PHE5        0.0000 
     38 CZ         17.8064   38.5282  -10.5427 C.ar      4 PHE5        0.0000 
     39 CZ         17.3784   39.9189  -10.9068 C.ar      4 PHE5        0.0000 
     40 CZ         16.9503   41.3097  -11.2709 C.ar      4 PHE5        0.0000 
     41 CA         16.5222   42.7004  -11.6351 C.3       5 GLY6        0.0000 
     42 DU         16.0941   44.0912  -11.9992 H         6 CUB7        0.0000 
     43 OG         15.6660   45.4819  -12.3633 O.2       1 SER1        0.0000 
     44 OG         15.2379   46.8726  -12.7274 O.2       1 SER1        0.0000 
     45 O          17.5127   35.1874  -10.5987 O.2       2 ALA2        0.0000 
     46 OG         17.0846   36.5782  -10.9628 O.2       1 SER1        0.0000 
     47 CZ         15.3723   42.1412  -12.4193 C.ar      4 PHE5        0.0000 
     48 O          14.9442   43.5319  -12.7834 O.2       2 ALA2        0.0000 
     49 OG         14.5161   44.9226  -13.1475 O.2       1 SER1        0.0000 
     50 CZ         13.7943   42.9726  -13.5676 C.ar      4 PHE5        0.0000 
     51 CZ         11.9226   40.4634  -14.7719 C.ar      4 PHE5        0.0000 
     52 CA         23.4148   43.3298   -4.9758 C.3       5 GLY6        0.0000 
     53 CA         22.6930   41.3798   -5.3959 C.3       5 GLY6        0.0000 
     54 CA         22.2649   42.7705   -5.7600 C.3       5 GLY6        0.0000 
     55 DU         21.8368   44.1613   -6.1241 H         6 CUB7        0.0000 
     56 CZ         21.5431   40.8205   -6.1801 C.ar      4 PHE5        0.0000 
     57 DU         21.1151   42.2113   -6.5442 H         6 CUB7        0.0000 
     58 DU         20.6870   43.6020   -6.9083 H         6 CUB7        0.0000 
     59 CA         20.8213   38.8705   -6.6002 C.3       5 GLY6        0.0000 
     60 CA         20.3933   40.2613   -6.9643 C.3       5 GLY6        0.0000 
     61 N          19.9652   41.6520   -7.3285 N.2       2 ALA2        0.0000 
     62 N          19.5371   43.0428   -7.6926 N.2       2 ALA2        0.0000 
     63 CA         19.2434   39.7020   -7.7486 C.3       5 GLY6        0.0000 
     64 N          18.8153   41.0928   -8.1127 N.2       2 ALA2        0.0000 
     65 N          18.3872   42.4835   -8.4768 N.2       2 ALA2        0.0000 
     66 DU         17.9591   43.8742   -8.8409 H         6 CUB7        0.0000 
     67 CA         18.0935   39.1428   -8.5328 C.3       5 GLY6        0.0000 
     68 DU         17.6654   40.5335   -8.8969 H         6 CUB7        0.0000 
     69 DU         17.2373   41.9242   -9.2610 H         6 CUB7        0.0000 
     70 DU         16.8092   43.3150   -9.6251 H         6 CUB7        0.0000 
     71 CA         17.3717   37.1927   -8.9529 C.3       5 GLY6        0.0000 
     72 NZ         16.9436   38.5835   -9.3170 N.2       3 LYS4        0.0000 
     73 DU         16.5155   39.9742   -9.6811 H         6 CUB7        0.0000 
     74 DU         16.0874   41.3650  -10.0452 H         6 CUB7        0.0000 
     75 DU         14.8032   45.5372  -11.1375 H         6 CUB7        0.0000 
     76 OG         16.2218   36.6335   -9.7371 O.2       1 SER1        0.0000 
     77 OG         15.7937   38.0242  -10.1012 O.2       1 SER1        0.0000 
     78 CZ         15.3656   39.4150  -10.4653 C.ar      4 PHE5        0.0000 
     79 CZ         14.5095   42.1965  -11.1935 C.ar      4 PHE5        0.0000 
     80 DU         14.0814   43.5872  -11.5576 H         6 CUB7        0.0000 
     81 OG         13.6533   44.9780  -11.9217 O.2       1 SER1        0.0000 
     82 OG         13.2252   46.3687  -12.2858 O.2       1 SER1        0.0000 
     83 CZ         13.7877   40.2465  -11.6136 C.ar      4 PHE5        0.0000 
     84 CZ         13.3596   41.6372  -11.9777 C.ar      4 PHE5        0.0000 
     85 DU         12.9315   43.0279  -12.3419 H         6 CUB7        0.0000 
     86 DU         12.5034   44.4187  -12.7060 H         6 CUB7        0.0000 
     87 CA         12.0753   45.8094  -13.0701 C.3       5 GLY6        0.0000 
     88 CZ         12.6378   39.6872  -12.3979 C.ar      4 PHE5        0.0000 
     89 CZ         12.2097   41.0779  -12.7620 C.ar      4 PHE5        0.0000 
     90 DU         11.7816   42.4687  -13.1261 H         6 CUB7        0.0000 
     91 DU         11.3535   43.8594  -13.4902 H         6 CUB7        0.0000 
     92 O          11.4879   39.1279  -13.1821 O.2       2 ALA2        0.0000 
     93 N          22.5520   43.3851   -3.7501 N.2       2 ALA2        0.0000 
     94 N          22.1239   44.7758   -4.1142 N.2       2 ALA2        0.0000 
     95 OG         21.6958   46.1666   -4.4783 O.2       1 SER1        0.0000 
     96 N          21.8302   41.4351   -4.1702 N.2       2 ALA2        0.0000 
     97 DU         21.4021   42.8258   -4.5343 H         6 CUB7        0.0000 
     98 OG         20.9740   44.2166   -4.8984 O.2       1 SER1        0.0000 
     99 OG         20.5459   45.6073   -5.2625 O.2       1 SER1        0.0000 
    100 CA         20.6803   40.8758   -4.9544 C.3       5 GLY6        0.0000 
    101 N          20.2522   42.2666   -5.3185 N.2       2 ALA2        0.0000 
    102 N          19.8241   43.6573   -5.6826 N.2       2 ALA2        0.0000 
    103 CA         19.5304   40.3166   -5.7386 C.3       5 GLY6        0.0000 
    104 N          18.3805   39.7573   -6.5228 N.2       2 ALA2        0.0000 
    105 NZ         17.2306   39.1981   -7.3070 N.2       3 LYS4        0.0000 
    106 N          16.8025   40.5888   -7.6711 N.2       2 ALA2        0.0000 
    107 N          16.3745   41.9796   -8.0353 N.2       2 ALA2        0.0000 
    108 OG         15.9464   43.3703   -8.3994 O.2       1 SER1        0.0000 
    109 NZ         15.6527   40.0295   -8.4554 N.2       3 LYS4        0.0000 
    110 DU         15.2246   41.4203   -8.8195 H         6 CUB7        0.0000 
    111 DU         14.7965   42.8110   -9.1836 H         6 CUB7        0.0000 
    112 DU         14.3684   44.2018   -9.5477 H         6 CUB7        0.0000 
    113 O          13.9403   45.5925   -9.9118 O.2       2 ALA2        0.0000 
    114 NZ         14.9309   38.0795   -8.8755 N.2       3 LYS4        0.0000 
    115 NZ         14.5028   39.4703   -9.2396 N.2       3 LYS4        0.0000 
    116 DU         14.0747   40.8610   -9.6037 H         6 CUB7        0.0000 
    117 DU         13.6466   42.2518   -9.9678 H         6 CUB7        0.0000 
    118 DU         13.2185   43.6425  -10.3319 H         6 CUB7        0.0000 
    119 O          12.7904   45.0333  -10.6960 O.2       2 ALA2        0.0000 
    120 O          12.3623   46.4240  -11.0601 O.2       2 ALA2        0.0000 
    121 N          13.3529   38.9110  -10.0238 N.2       2 ALA2        0.0000 
    122 N          12.9248   40.3018  -10.3879 N.2       2 ALA2        0.0000 
    123 DU         12.4967   41.6925  -10.7520 H         6 CUB7        0.0000 
    124 DU         12.0686   43.0833  -11.1161 H         6 CUB7        0.0000 
    125 OG         11.6405   44.4740  -11.4802 O.2       1 SER1        0.0000 
    126 OG         11.2125   45.8647  -11.8443 O.2       1 SER1        0.0000 
    127 N          12.2030   38.3518  -10.8080 N.2       2 ALA2        0.0000 
    128 N          11.7749   39.7425  -11.1721 N.2       2 ALA2        0.0000 
    129 OG         11.3468   41.1333  -11.5362 O.2       1 SER1        0.0000 
    130 OG         10.9188   42.5240  -11.9003 O.2       1 SER1        0.0000 
    131 CA         10.4907   43.9147  -12.2644 C.3       5 GLY6        0.0000 
    132 O          11.0531   37.7925  -11.5922 O.2       2 ALA2        0.0000 
    133 OG         10.6250   39.1833  -11.9563 O.2       1 SER1        0.0000 
    134 OG          9.7689   41.9647  -12.6845 O.2       1 SER1        0.0000 
    135 OG          9.3408   43.3555  -13.0486 O.2       1 SER1        0.0000 
    136 O          21.6891   43.4404   -2.5243 O.2       2 ALA2        0.0000 
    137 CA         20.9673   41.4904   -2.9444 C.3       5 GLY6        0.0000 
    138 N          20.5392   42.8812   -3.3085 N.2       2 ALA2        0.0000 
    139 OG         20.1112   44.2719   -3.6727 O.2       1 SER1        0.0000 
    140 N          19.8174   40.9312   -3.7287 N.2       2 ALA2        0.0000 
    141 N          18.9613   43.7126   -4.4569 N.2       2 ALA2        0.0000 
    142 O          18.5332   45.1034   -4.8210 O.2       2 ALA2        0.0000 
    143 NZ         14.7898   40.0849   -7.2296 N.2       3 LYS4        0.0000 
    144 NZ         13.9336   42.8663   -7.9578 N.2       3 LYS4        0.0000 
    145 OG         13.5056   44.2571   -8.3219 O.2       1 SER1        0.0000 
    146 O          13.0775   45.6478   -8.6861 O.2       2 ALA2        0.0000 
    147 N          13.2118   40.9163   -8.3779 N.2       2 ALA2        0.0000 
    148 NZ         12.7838   42.3071   -8.7421 N.2       3 LYS4        0.0000 
    149 NZ         12.3557   43.6978   -9.1062 N.2       3 LYS4        0.0000 
    150 O          11.9276   45.0886   -9.4703 O.2       2 ALA2        0.0000 
    151 N          12.0620   40.3571   -9.1622 N.2       2 ALA2        0.0000 
    152 N          11.6339   41.7478   -9.5263 N.2       2 ALA2        0.0000 
    153 DU         11.2058   43.1386   -9.8904 H         6 CUB7        0.0000 
    154 OG         10.7777   44.5293  -10.2545 O.2       1 SER1        0.0000 
    155 N          10.9121   39.7978   -9.9464 N.2       2 ALA2        0.0000 
    156 OG         10.4840   41.1886  -10.3105 O.2       1 SER1        0.0000 
    157 OG         10.0559   42.5793  -10.6746 O.2       1 SER1        0.0000 
    158 CA          9.6278   43.9701  -11.0387 C.3       5 GLY6        0.0000 
    159 OG          8.4779   43.4108  -11.8229 O.2       1 SER1        0.0000 
    160 CA         20.8263   43.4957   -1.2986 C.3       5 GLY6        0.0000 
    161 CA         20.1045   41.5457   -1.7187 C.3       5 GLY6        0.0000 
    162 CA         19.6764   42.9365   -2.0828 C.3       5 GLY6        0.0000 
    163 OG         19.2483   44.3272   -2.4469 O.2       1 SER1        0.0000 
    164 NZ         11.4928   43.7531   -7.8804 N.2       3 LYS4        0.0000 
    165 CA         11.0647   45.1439   -8.2445 C.3       5 GLY6        0.0000 
    166 CZ         10.7710   41.8031   -8.3005 C.ar      4 PHE5        0.0000 
    167 CA         10.3429   43.1939   -8.6646 C.3       5 GLY6        0.0000 
    168 OG          9.9149   44.5846   -9.0287 O.2       1 SER1        0.0000 
    169 CZ          9.1931   42.6346   -9.4489 C.ar      4 PHE5        0.0000 
    170 CA          8.7650   44.0254   -9.8130 C.3       5 GLY6        0.0000 
    171 CA         19.9634   43.5510   -0.0729 C.3       5 GLY6        0.0000 
    172 OG         19.5353   44.9418   -0.4370 O.2       1 SER1        0.0000 
    173 CA          9.0520   44.6399   -7.8030 C.3       5 GLY6        0.0000 
@<TRIPOS>BOND
@<TRIPOS>SUBSTRUCTURE
     1 SER1       43 GROUP   
     2 ALA2        1 GROUP   
     3 LYS4       72 GROUP   
     4 PHE5       10 GROUP   
     5 GLY6        6 GROUP   
     6 CUB7        9 GROUP   
@<TRIPOS>SET

