#    Name: 4j1h_1HJ_1_INTS_M
#    Modification time : Tue Mar 25 05:02:07 2014

@<TRIPOS>MOLECULE
4j1h_1HJ_1_INTS_M
   64     0     6     0     0
SMALL
NO_CHARGES


@<TRIPOS>ATOM
      1 O          14.9055   38.9435   -6.2245 O.2       1 ALC1        0.0000 
      2 O          15.4580   39.3830   -7.7730 O.2       5 ALL1        0.0000 
      3 O          14.3530   38.5040   -4.6760 O.2       3 ALP1        0.0000 
      4 O          15.3660   38.3690   -7.0455 O.2       1 ALC1        0.0000 
      5 O          15.2740   37.3550   -6.3180 O.2       3 ALP1        0.0000 
      6 CA         17.1130   40.3160   -5.2835 C.3       2 GLC5        0.0000 
      7 CA         17.9560   39.9510   -7.3190 C.3       6 GLL5        0.0000 
      8 CA         16.2700   40.6810   -3.2480 C.3       4 GLP5        0.0000 
      9 CA         17.7275   38.1275  -12.0465 C.3       2 GLC5        0.0000 
     10 CA         18.5000   38.5740  -10.6320 C.3       6 GLL5        0.0000 
     11 CA         16.9550   37.6810  -13.4610 C.3       4 GLP5        0.0000 
     12 CA         19.5855   37.3405  -10.7770 C.3       2 GLC5        0.0000 
     13 CA         20.6710   36.1070  -10.9220 C.3       4 GLP5        0.0000 
     14 O          14.1565   39.4825   -5.5355 O.2       1 ALC1        0.0000 
     15 O          13.9600   40.4610   -6.3950 O.2       5 ALL1        0.0000 
     16 O          14.6170   38.9080   -6.3565 O.2       1 ALC1        0.0000 
     17 O          13.1960   41.5100   -5.8785 O.2       1 ALC1        0.0000 
     18 O          12.4320   42.5590   -5.3620 O.2       3 ALP1        0.0000 
     19 CA         14.4470   36.9115   -8.9600 C.3       2 GLC5        0.0000 
     20 CA         15.9510   37.8570   -9.6510 C.3       6 GLL5        0.0000 
     21 CA         12.9430   35.9660   -8.2690 C.3       4 GLP5        0.0000 
     22 CA         15.7835   37.6845  -11.4005 C.3       2 GLC5        0.0000 
     23 CA         15.6160   37.5120  -13.1500 C.3       4 GLP5        0.0000 
     24 O          18.3390   41.4135   -5.4085 O.2       1 ALC1        0.0000 
     25 O          19.5750   40.7300   -5.7800 O.2       5 ALL1        0.0000 
     26 O          17.1030   42.0970   -5.0370 O.2       3 ALP1        0.0000 
     27 CA         20.8335   40.0470   -3.0985 C.3       2 GLC5        0.0000 
     28 CA         20.7100   41.9840   -4.1100 C.3       6 GLL5        0.0000 
     29 CA         20.9570   38.1100   -2.0870 C.3       4 GLP5        0.0000 
     30 CA         17.8870   41.5385   -2.7085 C.3       2 GLC5        0.0000 
     31 CA         19.5040   42.3960   -2.1690 C.3       6 GLL5        0.0000 
     32 CA         17.8320   43.4590   -2.9970 C.3       2 GLC5        0.0000 
     33 CA         16.1600   44.5220   -3.8250 C.3       4 GLP5        0.0000 
     34 CA         23.6710   42.3725   -4.7005 C.3       2 GLC5        0.0000 
     35 CA         21.7170   42.9250   -3.7960 C.3       6 GLL5        0.0000 
     36 CA         25.6250   41.8200   -5.6050 C.3       4 GLP5        0.0000 
     37 CA         18.7625   44.4850    0.6740 C.3       2 GLC5        0.0000 
     38 CA         20.2590   43.9800   -0.5220 C.3       6 GLL5        0.0000 
     39 CA         17.2660   44.9900    1.8700 C.3       4 GLP5        0.0000 
     40 CA         15.0250   39.5922  -11.6525 C.3       2 GLC5        0.0000 
     41 CA         14.6520   40.9890   -9.7980 C.3       6 GLL5        0.0000 
     42 CA         14.7090   38.5130  -13.4100 C.3       4 GLP5        0.0000 
     43 CA         18.7745   37.8383   -7.7745 C.3       2 GLC5        0.0000 
     44 CA         17.6800   39.3920   -8.5390 C.3       6 GLL5        0.0000 
     45 CA         19.7310   36.0050   -7.6200 C.3       4 GLP5        0.0000 
     46 CA         19.7803   37.9988   -7.5195 C.3       2 GLC5        0.0000 
     47 CA         19.2970   40.1260   -6.9780 C.3       6 GLL5        0.0000 
     48 CA         19.6216   38.8084   -5.8761 C.3       2 GLC5        0.0000 
     49 CA         20.3620   39.8590   -7.8600 C.3       6 GLL5        0.0000 
     50 CA         19.7490   37.6680   -4.2480 C.3       4 GLP5        0.0000 
     51 CA         19.3386   37.4481   -8.7814 C.3       2 GLC5        0.0000 
     52 CA         20.0530   39.3160   -9.0860 C.3       6 GLL5        0.0000 
     53 CA         19.1562   45.3565   -1.4263 C.3       2 GLC5        0.0000 
     54 CA         20.4500   43.3380   -1.7790 C.3       6 GLL5        0.0000 
     55 CA         17.9580   47.0540   -1.7020 C.3       4 GLP5        0.0000 
     56 CA         23.4280   42.9365   -2.3487 C.3       2 GLC5        0.0000 
     57 CA         21.5950   43.6370   -2.5950 C.3       6 GLL5        0.0000 
     58 CA         25.2000   42.5920   -1.5020 C.3       4 GLP5        0.0000 
     59 CA         21.7311   42.0219   -1.6380 C.3       2 GLC5        0.0000 
     60 CA         22.0580   40.9980   -0.0020 C.3       4 GLP5        0.0000 
     61 CA         21.0880   42.2108   -0.6250 C.3       2 GLC5        0.0000 
     62 CA         14.9055   40.9043  -12.6300 C.3       2 GLC5        0.0000 
     63 CA         14.6270   42.2980  -10.5940 C.3       6 GLL5        0.0000 
     64 CA         15.1400   39.6730  -13.9940 C.3       4 GLP5        0.0000 
@<TRIPOS>BOND
@<TRIPOS>SUBSTRUCTURE
     1 ALC1        1 GROUP        1 X    ALC  0     ROOT ALC X 1
     2 GLC5        6 GROUP        1 X    GLC  0     **** GLC X 6
     3 ALP1        3 GROUP        1 Y    ALP  0     ROOT ALP Y 8
     4 GLP5        8 GROUP        1 Y    GLP  0     **** GLP Y 13
     5 ALL1        2 GROUP        1 Z    ALL  0     ROOT ALL Z 15
     6 GLL5        7 GROUP        1 Z    GLL  0     **** GLL Z 20
@<TRIPOS>SET

