#    Name: 4j1h_1HJ_1_ligand
#    Modification time : Tue Mar 25 05:02:07 2014

@<TRIPOS>MOLECULE
4j1h_1HJ_1_ligand
   46    48     1     0     0
SMALL
NO_CHARGES


@<TRIPOS>ATOM
      1 C1         14.6520   40.9890   -9.7980 C.3       1 1HJ504      0.0000 
      2 C2         16.0300   40.3540   -9.9920 C.3       1 1HJ504      0.0000 
      3 O3         14.5460   41.3950   -8.4100 O.3       1 1HJ504      0.0000 
      4 C4         14.6810   40.3910   -7.5620 C.2       1 1HJ504      0.0000 
      5 N5         15.4580   39.3830   -7.7730 N.pl3     1 1HJ504      0.0000 
      6 C6         16.2630   39.2090   -8.9670 C.3       1 1HJ504      0.0000 
      7 C7         17.6800   39.3920   -8.5390 C.ar      1 1HJ504      0.0000 
      8 C8         17.9560   39.9510   -7.3190 C.ar      1 1HJ504      0.0000 
      9 C9         19.2970   40.1260   -6.9780 C.ar      1 1HJ504      0.0000 
     10 C10        20.3620   39.8590   -7.8600 C.ar      1 1HJ504      0.0000 
     11 C11        20.0530   39.3160   -9.0860 C.ar      1 1HJ504      0.0000 
     12 C12        18.7320   39.1010   -9.4210 C.ar      1 1HJ504      0.0000 
     13 F13        18.5000   38.5740  -10.6320 F         1 1HJ504      0.0000 
     14 N14        13.9600   40.4610   -6.3950 N.pl3     1 1HJ504      0.0000 
     15 C15        15.9510   37.8570   -9.6510 C.3       1 1HJ504      0.0000 
     16 N16        19.5750   40.7300   -5.7800 N.am      1 1HJ504      0.0000 
     17 C17        20.7540   41.2730   -5.4000 C.2       1 1HJ504      0.0000 
     18 C18        20.7100   41.9840   -4.1100 C.ar      1 1HJ504      0.0000 
     19 O19        21.7740   41.2570   -6.0810 O.2       1 1HJ504      0.0000 
     20 N20        19.6590   41.7760   -3.3210 N.ar      1 1HJ504      0.0000 
     21 C21        19.5040   42.3960   -2.1690 C.ar      1 1HJ504      0.0000 
     22 C22        20.4500   43.3380   -1.7790 C.ar      1 1HJ504      0.0000 
     23 C23        21.5950   43.6370   -2.5950 C.ar      1 1HJ504      0.0000 
     24 C24        21.7170   42.9250   -3.7960 C.ar      1 1HJ504      0.0000 
     25 C25        20.2590   43.9800   -0.5220 C.1       1 1HJ504      0.0000 
     26 N26        20.0860   44.4790    0.4740 N.1       1 1HJ504      0.0000 
     27 C27        14.6270   42.2980  -10.5940 C.3       1 1HJ504      0.0000 
     28 F28        14.7150   41.9730  -11.9380 F         1 1HJ504      0.0000 
     29 F29        13.3450   42.8360  -10.4220 F         1 1HJ504      0.0000 
     30 F30        15.6820   43.2020  -10.1920 F         1 1HJ504      0.0000 
     31 H          13.9016   40.3643  -10.1028 H         1 1HJ504      0.0000 
     32 H          16.8012   41.1062   -9.8536 H         1 1HJ504      0.0000 
     33 H          16.1046   39.9430  -10.9946 H         1 1HJ504      0.0000 
     34 H          15.5603   38.5926   -7.0636 H         1 1HJ504      0.0000 
     35 H          17.2207   40.2311   -6.6792 H         1 1HJ504      0.0000 
     36 H          21.3138   40.0643   -7.5880 H         1 1HJ504      0.0000 
     37 H          20.8008   39.0714   -9.7496 H         1 1HJ504      0.0000 
     38 H          14.0955   39.7103   -5.7484 H         1 1HJ504      0.0000 
     39 H          13.3626   41.2565   -6.2939 H         1 1HJ504      0.0000 
     40 H          18.7589   40.7740   -5.0653 H         1 1HJ504      0.0000 
     41 H          18.7042   42.2095   -1.5411 H         1 1HJ504      0.0000 
     42 H          22.2596   44.3198   -2.3059 H         1 1HJ504      0.0000 
     43 H          22.4944   43.0748   -4.4186 H         1 1HJ504      0.0000 
     44 H          16.5348   37.7004  -10.4477 H         1 1HJ504      0.0000 
     45 H          16.0898   37.0857   -9.0298 H         1 1HJ504      0.0000 
     46 H          15.0037   37.8111   -9.9682 H         1 1HJ504      0.0000 
@<TRIPOS>BOND
     1    2    1 1    
     2    3    1 1    
     3   27    1 1    
     4   31    1 1    
     5    6    2 1    
     6   32    2 1    
     7   33    2 1    
     8    4    3 1    
     9    5    4 1    
    10   14    4 2    
    11    6    5 1    
    12   34    5 1    
    13    7    6 1    
    14   15    6 1    
    15    8    7 ar   
    16   12    7 ar   
    17    9    8 ar   
    18   35    8 1    
    19   10    9 ar   
    20   16    9 1    
    21   11   10 ar   
    22   36   10 1    
    23   12   11 ar   
    24   37   11 1    
    25   13   12 1    
    26   38   14 1    
    27   39   14 1    
    28   44   15 1    
    29   45   15 1    
    30   46   15 1    
    31   17   16 am   
    32   40   16 1    
    33   18   17 1    
    34   19   17 2    
    35   20   18 ar   
    36   24   18 ar   
    37   21   20 ar   
    38   22   21 ar   
    39   41   21 1    
    40   23   22 ar   
    41   25   22 1    
    42   24   23 ar   
    43   42   23 1    
    44   43   24 1    
    45   26   25 3    
    46   28   27 1    
    47   29   27 1    
    48   30   27 1    
@<TRIPOS>SUBSTRUCTURE
     1 1HJ504      1 GROUP   
@<TRIPOS>SET

