#    Name: 2q6b_HR2_3_INTS_M
#    Modification time : Mon Mar 24 20:52:06 2014

@<TRIPOS>MOLECULE
2q6b_HR2_3_INTS_M
   96     0    12     0     0
SMALL
NO_CHARGES


@<TRIPOS>ATOM
      1 CA         53.6490   14.5275   37.9220 C.3       4 GLC5        0.0000 
      2 CA         55.5220   15.3530   38.1180 C.3      12 GLL5        0.0000 
      3 CA         51.7760   13.7020   37.7260 C.3       8 GLP5        0.0000 
      4 CA         54.1630   16.7850   38.5585 C.3       4 GLC5        0.0000 
      5 CA         52.8040   18.2170   38.9990 C.3       8 GLP5        0.0000 
      6 CA         56.8605   15.8900   34.1360 C.3       4 GLC5        0.0000 
      7 CA         57.1690   13.7560   34.0130 C.3      12 GLL5        0.0000 
      8 CA         56.5520   18.0240   34.2590 C.3       8 GLP5        0.0000 
      9 CA         51.8820   10.8805   37.0415 C.3       4 GLC5        0.0000 
     10 CA         53.6930    9.8230   36.8750 C.3      12 GLL5        0.0000 
     11 CA         50.0710   11.9380   37.2080 C.3       8 GLP5        0.0000 
     12 CA         50.5640    8.3265   36.4490 C.3       4 GLC5        0.0000 
     13 CA         52.2940    8.3900   35.4210 C.3      12 GLL5        0.0000 
     14 CA         48.8340    8.2630   37.4770 C.3       8 GLP5        0.0000 
     15 CA         52.0200    6.3080   35.6140 C.3       4 GLC5        0.0000 
     16 CA         51.7460    4.2260   35.8070 C.3       8 GLP5        0.0000 
     17 CA         49.7705    8.7415   35.5970 C.3       4 GLC5        0.0000 
     18 CA         50.7070    9.2200   33.7170 C.3      12 GLL5        0.0000 
     19 CA         51.3825    7.7945   32.2605 C.3       4 GLC5        0.0000 
     20 CA         52.0580    6.3690   30.8040 C.3       8 GLP5        0.0000 
     21 CA         56.7700   13.6015   43.1985 C.3       4 GLC5        0.0000 
     22 CA         55.5170   15.1690   43.2820 C.3      12 GLL5        0.0000 
     23 CA         58.0230   12.0340   43.1150 C.3       8 GLP5        0.0000 
     24 CA         56.2345   12.7805   30.2990 C.3       4 GLC5        0.0000 
     25 CA         56.3900   13.7260   31.7720 C.3      12 GLL5        0.0000 
     26 CA         56.0790   11.8350   28.8260 C.3       8 GLP5        0.0000 
     27 N          52.8835    7.1275   37.9200 N.am      2 SEC2        0.0000 
     28 N          53.9340    7.4400   36.9120 N.am     10 SEL2        0.0000 
     29 N          51.8330    6.8150   38.9280 N.am      6 SEP2        0.0000 
     30 N          53.9070    6.0865   36.9805 N.am      2 SEC2        0.0000 
     31 N          53.8800    4.7330   37.0490 N.am      6 SEP2        0.0000 
     32 O          55.1050    7.2020   37.6525 O.2       1 ALC1        0.0000 
     33 O          53.9340    7.4400   36.9120 O.2       9 ALL1        0.0000 
     34 O          56.2760    6.9640   38.3930 O.2       5 ALP1        0.0000 
     35 N          53.2525    9.5035   31.8910 N.am      2 SEC2        0.0000 
     36 N          53.0630    9.0270   33.2190 N.am     10 SEL2        0.0000 
     37 N          53.4420    9.9800   30.5630 N.am      6 SEP2        0.0000 
     38 N          54.3130    9.7460   32.2500 N.am      2 SEC2        0.0000 
     39 N          55.5630   10.4650   31.2810 N.am      6 SEP2        0.0000 
     40 O          53.1625    7.6925   33.0655 O.2       1 ALC1        0.0000 
     41 O          53.0630    9.0270   33.2190 O.2       9 ALL1        0.0000 
     42 O          53.2620    6.3580   32.9120 O.2       5 ALP1        0.0000 
     43 NZ         49.4265   12.2315   32.4870 N.4       3 LYC4        0.0000 
     44 NZ         50.3370   11.6070   33.2210 N.4      11 LYL4        0.0000 
     45 NZ         48.5160   12.8560   31.7530 N.4       7 LYP4        0.0000 
     46 N          49.4265   12.2315   32.4870 N.am      2 SEC2        0.0000 
     47 N          50.3370   11.6070   33.2210 N.am     10 SEL2        0.0000 
     48 N          48.5160   12.8560   31.7530 N.am      6 SEP2        0.0000 
     49 N          50.5160   11.7805   31.6425 N.am      2 SEC2        0.0000 
     50 N          50.6950   11.9540   30.0640 N.am      6 SEP2        0.0000 
     51 NZ         49.4050   11.4875   31.6680 N.4       3 LYC4        0.0000 
     52 NZ         50.2940   10.1190   31.5830 N.4      11 LYL4        0.0000 
     53 NZ         48.9230    9.3350   31.7770 N.4       3 LYC4        0.0000 
     54 NZ         47.5520    8.5510   31.9710 N.4       7 LYP4        0.0000 
     55 N          50.4945   11.0365   30.8235 N.am      2 SEC2        0.0000 
     56 N          50.2940   10.1190   31.5830 N.am     10 SEL2        0.0000 
     57 CA         56.8480   11.3380   42.0960 C.3       4 GLC5        0.0000 
     58 CA         55.6730   10.6420   41.0770 C.3      12 GLL5        0.0000 
     59 CA         55.1035    9.7930   42.6290 C.3       4 GLC5        0.0000 
     60 CA         54.5340    8.9440   44.1810 C.3       8 GLP5        0.0000 
     61 CA         52.5955    9.2755   41.8225 C.3       4 GLC5        0.0000 
     62 CA         53.1950   10.8840   40.6160 C.3      12 GLL5        0.0000 
     63 CA         51.9960    7.6670   43.0290 C.3       8 GLP5        0.0000 
     64 CA         52.9395   11.9970   42.3270 C.3       4 GLC5        0.0000 
     65 CA         52.6840   13.1100   44.0380 C.3       8 GLP5        0.0000 
     66 CA         52.4855   12.2930   39.1710 C.3       4 GLC5        0.0000 
     67 CA         57.5195   13.5370   41.6720 C.3       4 GLC5        0.0000 
     68 CA         57.0160   15.0400   40.2290 C.3      12 GLL5        0.0000 
     69 N          52.7595   13.7705   42.2135 N.am      2 SEC2        0.0000 
     70 N          53.7910   13.7840   41.2080 N.am     10 SEL2        0.0000 
     71 N          51.7280   13.7570   43.2190 N.am      6 SEP2        0.0000 
     72 CA         53.8950   14.8000   44.9200 C.3       4 GLC5        0.0000 
     73 CA         55.2010   15.9960   44.3600 C.3      12 GLL5        0.0000 
     74 CA         52.5890   13.6040   45.4800 C.3       8 GLP5        0.0000 
     75 CA         52.9315   17.9795   44.8600 C.3       4 GLC5        0.0000 
     76 CA         54.8200   17.3150   44.1310 C.3      12 GLL5        0.0000 
     77 CA         51.0430   18.6440   45.5890 C.3       8 GLP5        0.0000 
     78 CA         57.1028   16.9060   37.4785 C.3       4 GLC5        0.0000 
     79 CA         58.0530   18.2580   36.4530 C.3       8 GLP5        0.0000 
     80 CA         54.0827   14.2607   43.3325 C.3       4 GLC5        0.0000 
     81 CA         55.4460   15.6540   41.9720 C.3      12 GLL5        0.0000 
     82 CA         50.7440   10.6088   35.5932 C.3       4 GLC5        0.0000 
     83 CA         52.1270    9.3390   34.2400 C.3      12 GLL5        0.0000 
     84 CA         58.1837   13.2683   31.6594 C.3       4 GLC5        0.0000 
     85 CA         59.8410   12.8520   30.6590 C.3       8 GLP5        0.0000 
     86 CA         53.4710   13.3562   36.5270 C.3       4 GLC5        0.0000 
     87 CA         54.6610   12.8960   34.8610 C.3      12 GLL5        0.0000 
     88 CA         53.4068   14.5825   33.8830 C.3       4 GLC5        0.0000 
     89 CA         52.0320   16.1680   33.5830 C.3       8 GLP5        0.0000 
     90 CA         55.2601   14.8471   32.1672 C.3       4 GLC5        0.0000 
     91 CA         54.9020   13.0980   33.5050 C.3      12 GLL5        0.0000 
     92 CA         54.8060   16.3030   31.2520 C.3       8 GLP5        0.0000 
     93 CA         53.4507   13.2593   38.1321 C.3       4 GLC5        0.0000 
     94 CA         55.3150   13.8620   38.2040 C.3      12 GLL5        0.0000 
     95 CA         53.8550   17.8023   40.6420 C.3       4 GLC5        0.0000 
     96 CA         55.0620   16.9740   41.7450 C.3      12 GLL5        0.0000 
@<TRIPOS>BOND
@<TRIPOS>SUBSTRUCTURE
     1 ALC1       32 GROUP        1 X    ALC  0     ROOT ALC X 1
     2 SEC2       27 GROUP        1 X    SEC  0     **** SEC X 2
     3 LYC4       43 GROUP        1 X    LYC  0     **** LYC X 4
     4 GLC5        1 GROUP        1 X    GLC  0     **** GLC X 6
     5 ALP1       34 GROUP        1 Y    ALP  0     ROOT ALP Y 8
     6 SEP2       29 GROUP        1 Y    SEP  0     **** SEP Y 9
     7 LYP4       45 GROUP        1 Y    LYP  0     **** LYP Y 11
     8 GLP5        3 GROUP        1 Y    GLP  0     **** GLP Y 13
     9 ALL1       33 GROUP        1 Z    ALL  0     ROOT ALL Z 15
    10 SEL2       28 GROUP        1 Z    SEL  0     **** SEL Z 16
    11 LYL4       44 GROUP        1 Z    LYL  0     **** LYL Z 18
    12 GLL5        2 GROUP        1 Z    GLL  0     **** GLL Z 20
@<TRIPOS>SET

