#    Name: 2q6b_HR2_3_ligand
#    Modification time : Mon Mar 24 20:52:07 2014

@<TRIPOS>MOLECULE
2q6b_HR2_3_ligand
   72    75     1     0     0
SMALL
NO_CHARGES


@<TRIPOS>ATOM
      1 N1         54.9010   11.8110   39.0590 N.pl3     1 HR23003     0.0000 
      2 C4         55.3150   13.8620   38.2040 C.2       1 HR23003     0.0000 
      3 C5         55.3820   12.8890   37.2360 C.2       1 HR23003     0.0000 
      4 C6         55.5220   15.3530   38.1180 C.3       1 HR23003     0.0000 
      5 C7         56.1570   13.5300   33.0820 C.ar      1 HR23003     0.0000 
      6 C8         56.9280   13.5510   35.3710 C.ar      1 HR23003     0.0000 
      7 C10        54.5900   10.7100   40.0170 C.3       1 HR23003     0.0000 
      8 C13        54.8630   13.8700   40.6300 C.2       1 HR23003     0.0000 
      9 C15        57.1690   13.7560   34.0130 C.ar      1 HR23003     0.0000 
     10 C17        55.4460   15.6540   41.9720 C.ar      1 HR23003     0.0000 
     11 C20        53.6930    9.8230   36.8750 C.3       1 HR23003     0.0000 
     12 C21        53.6660    8.5390   36.0580 C.3       1 HR23003     0.0000 
     13 C22        52.2940    8.3900   35.4210 C.3       1 HR23003     0.0000 
     14 C24        50.7070    9.2200   33.7170 C.3       1 HR23003     0.0000 
     15 C28        55.5170   15.1690   43.2820 C.ar      1 HR23003     0.0000 
     16 F1         56.3900   13.7260   31.7720 F         1 HR23003     0.0000 
     17 C9         55.6710   13.1250   35.7950 C.ar      1 HR23003     0.0000 
     18 C14        54.6610   12.8960   34.8610 C.ar      1 HR23003     0.0000 
     19 C18        54.9020   13.0980   33.5050 C.ar      1 HR23003     0.0000 
     20 C3         55.1270   11.6310   37.7450 C.2       1 HR23003     0.0000 
     21 C19        55.1170   10.3250   36.9880 C.3       1 HR23003     0.0000 
     22 O33        53.9340    7.4400   36.9120 O.3       1 HR23003     0.0000 
     23 C23        52.1270    9.3390   34.2400 C.3       1 HR23003     0.0000 
     24 O34        53.0630    9.0270   33.2190 O.3       1 HR23003     0.0000 
     25 C25        50.4290   10.3560   32.7690 C.2       1 HR23003     0.0000 
     26 O27        50.3370   11.6070   33.2210 O.co2     1 HR23003     0.0000 
     27 O26        50.2940   10.1190   31.5830 O.co2     1 HR23003     0.0000 
     28 C12        55.6730   10.6420   41.0770 C.3       1 HR23003     0.0000 
     29 C11        53.1950   10.8840   40.6160 C.3       1 HR23003     0.0000 
     30 C2         56.7830   15.7550   38.8900 C.3       1 HR23003     0.0000 
     31 C16        57.0160   15.0400   40.2290 C.3       1 HR23003     0.0000 
     32 N15        55.7400   14.8410   40.9180 N.am      1 HR23003     0.0000 
     33 O14        53.7910   13.7840   41.2080 O.2       1 HR23003     0.0000 
     34 C1         55.0130   13.1300   39.3440 C.2       1 HR23003     0.0000 
     35 C29        55.2010   15.9960   44.3600 C.ar      1 HR23003     0.0000 
     36 C30        54.8200   17.3150   44.1310 C.ar      1 HR23003     0.0000 
     37 C31        54.7500   17.8010   42.8250 C.ar      1 HR23003     0.0000 
     38 C32        55.0620   16.9740   41.7450 C.ar      1 HR23003     0.0000 
     39 H          54.6668   15.8705   38.5462 H         1 HR23003     0.0000 
     40 H          55.6352   15.6514   37.0784 H         1 HR23003     0.0000 
     41 H          57.6745   13.7135   36.0557 H         1 HR23003     0.0000 
     42 H          54.6027    9.7624   39.4635 H         1 HR23003     0.0000 
     43 H          58.0943   14.0742   33.6987 H         1 HR23003     0.0000 
     44 H          53.2962    9.6259   37.8665 H         1 HR23003     0.0000 
     45 H          53.0798   10.5733   36.3847 H         1 HR23003     0.0000 
     46 H          54.3973    8.6263   35.2750 H         1 HR23003     0.0000 
     47 H          51.5244    8.6046   36.1652 H         1 HR23003     0.0000 
     48 H          52.1650    7.3621   35.0762 H         1 HR23003     0.0000 
     49 H          50.0129    9.2590   34.5512 H         1 HR23003     0.0000 
     50 H          50.5938    8.2725   33.1987 H         1 HR23003     0.0000 
     51 H          55.8045   14.1950   43.4500 H         1 HR23003     0.0000 
     52 H          53.7352   12.5767   35.1764 H         1 HR23003     0.0000 
     53 H          54.1579   12.9294   32.8188 H         1 HR23003     0.0000 
     54 H          55.5270   10.4763   35.9940 H         1 HR23003     0.0000 
     55 H          55.7179    9.5918   37.5175 H         1 HR23003     0.0000 
     56 H          52.2624   10.3487   34.6085 H         1 HR23003     0.0000 
     57 H          56.7524   16.8503   39.0753 H         1 HR23003     0.0000 
     58 H          57.6677   15.5838   38.2397 H         1 HR23003     0.0000 
     59 H          57.6930   15.6525   40.8278 H         1 HR23003     0.0000 
     60 H          57.5033   14.0848   40.0237 H         1 HR23003     0.0000 
     61 H          55.2497   15.6320   45.3178 H         1 HR23003     0.0000 
     62 H          54.5908   17.9299   44.9200 H         1 HR23003     0.0000 
     63 H          54.4662   18.7765   42.6567 H         1 HR23003     0.0000 
     64 H          55.0085   17.3377   40.7876 H         1 HR23003     0.0000 
     65 H          56.5725   10.4638   40.6780 H         1 HR23003     0.0000 
     66 H          55.7443   11.4971   41.5905 H         1 HR23003     0.0000 
     67 H          55.4977    9.9151   41.7410 H         1 HR23003     0.0000 
     68 H          52.9752   10.1543   41.2635 H         1 HR23003     0.0000 
     69 H          53.1079   11.7495   41.1092 H         1 HR23003     0.0000 
     70 H          52.4848   10.8750   39.9121 H         1 HR23003     0.0000 
     71 H          54.8454    7.6172   37.2834 H         1 HR23003     0.0000 
     72 H          53.0479    8.0295   33.1503 H         1 HR23003     0.0000 
@<TRIPOS>BOND
     1    7    1 1    
     2   20    1 1    
     3   34    1 1    
     4    3    2 1    
     5    4    2 1    
     6   34    2 2    
     7   17    3 1    
     8   20    3 2    
     9   30    4 1    
    10   39    4 1    
    11   40    4 1    
    12    9    5 ar   
    13   16    5 1    
    14   19    5 ar   
    15    9    6 ar   
    16   17    6 ar   
    17   41    6 1    
    18   28    7 1    
    19   29    7 1    
    20   42    7 1    
    21   32    8 am   
    22   33    8 2    
    23   34    8 1    
    24   43    9 1    
    25   15   10 ar   
    26   32   10 1    
    27   38   10 ar   
    28   12   11 1    
    29   21   11 1    
    30   44   11 1    
    31   45   11 1    
    32   13   12 1    
    33   22   12 1    
    34   46   12 1    
    35   23   13 1    
    36   47   13 1    
    37   48   13 1    
    38   23   14 1    
    39   25   14 1    
    40   49   14 1    
    41   50   14 1    
    42   35   15 ar   
    43   51   15 1    
    44   18   17 ar   
    45   19   18 ar   
    46   52   18 1    
    47   53   19 1    
    48   21   20 1    
    49   54   21 1    
    50   55   21 1    
    51   71   22 1    
    52   24   23 1    
    53   56   23 1    
    54   72   24 1    
    55   26   25 ar   
    56   27   25 ar   
    57   65   28 1    
    58   66   28 1    
    59   67   28 1    
    60   68   29 1    
    61   69   29 1    
    62   70   29 1    
    63   31   30 1    
    64   57   30 1    
    65   58   30 1    
    66   32   31 1    
    67   59   31 1    
    68   60   31 1    
    69   36   35 ar   
    70   61   35 1    
    71   37   36 ar   
    72   62   36 1    
    73   38   37 ar   
    74   63   37 1    
    75   64   38 1    
@<TRIPOS>SUBSTRUCTURE
     1 HR23003     1 GROUP   
@<TRIPOS>SET

