#    Name: 3gi3_B10_1_INTS_M
#    Modification time : Tue Mar 25 12:33:49 2014

@<TRIPOS>MOLECULE
3gi3_B10_1_INTS_M
  107     0     9     0     0
SMALL
NO_CHARGES


@<TRIPOS>ATOM
      1 O          34.5065   35.5850   12.5215 O.2       1 ALC1        0.0000 
      2 O          33.3910   36.2550   12.4070 O.2       7 ALL1        0.0000 
      3 O          35.6220   34.9150   12.6360 O.2       4 ALP1        0.0000 
      4 CA         31.3730   38.8590   11.5485 C.3       3 GLC5        0.0000 
      5 CA         31.1830   36.7950   11.3480 C.3       9 GLL5        0.0000 
      6 CA         31.5630   40.9230   11.7490 C.3       6 GLP5        0.0000 
      7 CA         34.1545   34.3585   11.0320 C.3       3 GLC5        0.0000 
      8 CA         32.0050   34.4750   11.6180 C.3       9 GLL5        0.0000 
      9 CA         36.3040   34.2420   10.4460 C.3       6 GLP5        0.0000 
     10 CA         31.1470   34.0105   13.8625 C.3       3 GLC5        0.0000 
     11 CA         32.7550   33.0020   13.3470 C.3       9 GLL5        0.0000 
     12 CA         29.5390   35.0190   14.3780 C.3       6 GLP5        0.0000 
     13 CA         32.8800   32.2885   15.0210 C.3       3 GLC5        0.0000 
     14 CA         33.0050   31.5750   16.6950 C.3       6 GLP5        0.0000 
     15 CA         29.9355   39.4735   11.6150 C.3       3 GLC5        0.0000 
     16 CA         28.3080   38.0240   11.4810 C.3       9 GLL5        0.0000 
     17 CA         26.7595   38.9740   12.4085 C.3       3 GLC5        0.0000 
     18 CA         25.2110   39.9240   13.3360 C.3       6 GLP5        0.0000 
     19 CA         28.7280   38.7945   13.0390 C.3       3 GLC5        0.0000 
     20 CA         29.1480   39.5650   14.5970 C.3       6 GLP5        0.0000 
     21 CA         28.9235   36.5215   12.9295 C.3       3 GLC5        0.0000 
     22 CA         26.9130   35.4945    7.7710 C.3       3 GLC5        0.0000 
     23 CA         27.6330   36.5650    9.5720 C.3       9 GLL5        0.0000 
     24 CA         26.1930   34.4240    5.9700 C.3       6 GLP5        0.0000 
     25 CA         30.0870   39.1610    7.6785 C.3       3 GLC5        0.0000 
     26 CA         29.4150   38.2770    9.2070 C.3       9 GLL5        0.0000 
     27 CA         30.7590   40.0450    6.1500 C.3       6 GLP5        0.0000 
     28 CA         28.9420   40.1205    8.9740 C.3       3 GLC5        0.0000 
     29 CA         28.4690   41.9640    8.7410 C.3       6 GLP5        0.0000 
     30 CA         30.4890   39.6000   10.4780 C.3       3 GLC5        0.0000 
     31 N          31.1250   37.3565   14.5800 N.am      2 SEC2        0.0000 
     32 N          32.3280   37.3900   14.0420 N.am      8 SEL2        0.0000 
     33 N          29.9220   37.3230   15.1180 N.am      5 SEP2        0.0000 
     34 O          35.1235   36.0910   13.3710 O.2       1 ALC1        0.0000 
     35 O          34.6250   37.2670   14.1060 O.2       7 ALL1        0.0000 
     36 CA         36.6110   38.4490   12.2205 C.3       3 GLC5        0.0000 
     37 CA         36.9510   39.0750   14.1370 C.3       9 GLL5        0.0000 
     38 CA         36.2710   37.8230   10.3040 C.3       6 GLP5        0.0000 
     39 CA         39.7375   41.9530   14.2255 C.3       3 GLC5        0.0000 
     40 CA         38.2700   40.8440   15.2930 C.3       9 GLL5        0.0000 
     41 CA         41.2050   43.0620   13.1580 C.3       6 GLP5        0.0000 
     42 CA         35.8945   37.1995   16.0980 C.3       3 GLC5        0.0000 
     43 CA         33.9370   38.1680   16.2950 C.3       9 GLL5        0.0000 
     44 CA         37.8520   36.2310   15.9010 C.3       6 GLP5        0.0000 
     45 CA         32.1170   39.1910   15.8335 C.3       3 GLC5        0.0000 
     46 CA         30.2970   40.2140   15.3720 C.3       6 GLP5        0.0000 
     47 CA         37.0635   41.3915   22.5785 C.3       3 GLC5        0.0000 
     48 CA         35.4050   41.0890   21.1720 C.3       9 GLL5        0.0000 
     49 CA         38.7220   41.6940   23.9850 C.3       6 GLP5        0.0000 
     50 CA         36.6325   43.1450   19.7265 C.3       3 GLC5        0.0000 
     51 CA         35.1310   42.4740   20.9570 C.3       9 GLL5        0.0000 
     52 CA         38.1340   43.8160   18.4960 C.3       6 GLP5        0.0000 
     53 CA         32.7045   31.2465    7.4540 C.3       3 GLC5        0.0000 
     54 CA         32.3790   32.7550    8.5650 C.3       9 GLL5        0.0000 
     55 CA         33.0300   29.7380    6.3430 C.3       6 GLP5        0.0000 
     56 CA         34.0665   32.9330    8.3835 C.3       3 GLC5        0.0000 
     57 CA         35.7540   33.1110    8.2020 C.3       6 GLP5        0.0000 
     58 CA         31.3440   33.7970    7.7400 C.3       3 GLC5        0.0000 
     59 CA         30.3090   34.8390    6.9150 C.3       6 GLP5        0.0000 
     60 CA         36.8945   42.5645   23.0555 C.3       3 GLC5        0.0000 
     61 CA         35.0670   43.4350   22.1260 C.3       9 GLL5        0.0000 
     62 CA         36.2075   44.9410   21.8370 C.3       3 GLC5        0.0000 
     63 CA         37.3480   46.4470   21.5480 C.3       6 GLP5        0.0000 
     64 CA         30.4940   45.3740   23.8925 C.3       3 GLC5        0.0000 
     65 CA         31.5160   44.1000   23.2420 C.3       9 GLL5        0.0000 
     66 CA         29.4720   46.6480   24.5430 C.3       6 GLP5        0.0000 
     67 CA         32.8252   37.2875   10.5173 C.3       3 GLC5        0.0000 
     68 CA         33.9570   38.2390    9.4630 C.3       6 GLP5        0.0000 
     69 CA         30.6163   35.6775   12.9748 C.3       3 GLC5        0.0000 
     70 CA         29.7120   35.3032   12.5143 C.3       3 GLC5        0.0000 
     71 CA         29.8090   34.8780   10.5740 C.3       9 GLL5        0.0000 
     72 CA         30.4745   34.6220   12.8465 C.3       3 GLC5        0.0000 
     73 CA         30.8150   33.9750   11.0120 C.3       9 GLL5        0.0000 
     74 CA         30.3295   34.8101    8.8731 C.3       3 GLC5        0.0000 
     75 CA         29.5685   36.2189    8.2366 C.3       3 GLC5        0.0000 
     76 CA         28.8490   37.2760   10.2470 C.3       9 GLL5        0.0000 
     77 CA         34.7245   39.9820   14.3752 C.3       3 GLC5        0.0000 
     78 CA         35.9960   39.0460   15.2120 C.3       9 GLL5        0.0000 
     79 CA         34.0260   41.3700   13.5560 C.3       6 GLP5        0.0000 
     80 CA         38.2218   39.1197   16.4653 C.3       3 GLC5        0.0000 
     81 CA         36.1940   39.9720   16.3870 C.3       9 GLL5        0.0000 
     82 CA         39.6750   37.8250   16.5420 C.3       6 GLP5        0.0000 
     83 CA         33.0230   40.4845   17.3170 C.3       3 GLC5        0.0000 
     84 CA         35.1970   39.9300   17.4700 C.3       9 GLL5        0.0000 
     85 CA         31.3960   41.4900   17.2040 C.3       6 GLP5        0.0000 
     86 CA         37.0195   37.5328   15.2834 C.3       3 GLC5        0.0000 
     87 CA         34.8500   38.1420   15.1770 C.3       9 GLL5        0.0000 
     88 CA         35.7695   40.4442   13.8560 C.3       3 GLC5        0.0000 
     89 CA         39.1045   39.0607   13.1220 C.3       3 GLC5        0.0000 
     90 CA         40.6960   38.6030   12.0880 C.3       6 GLP5        0.0000 
     91 CA         37.1165   41.2602   13.4475 C.3       3 GLC5        0.0000 
     92 CA         38.0750   39.9620   14.1750 C.3       9 GLL5        0.0000 
     93 CA         36.7200   43.0020   12.7390 C.3       6 GLP5        0.0000 
     94 CA         38.9237   39.1140   15.6380 C.3       3 GLC5        0.0000 
     95 CA         37.9703   42.3332   17.1687 C.3       3 GLC5        0.0000 
     96 CA         37.2632   41.9263   14.2903 C.3       3 GLC5        0.0000 
     97 CA         37.3430   40.8570   16.3900 C.3       9 GLL5        0.0000 
     98 CA         35.2726   40.8870   15.1076 C.3       3 GLC5        0.0000 
     99 CA         34.0230   39.9840   15.1992 C.3       3 GLC5        0.0000 
    100 CA         34.1030   39.0280   17.3900 C.3       9 GLL5        0.0000 
    101 CA         37.0905   40.3148   20.0180 C.3       3 GLC5        0.0000 
    102 CA         35.1990   40.7920   18.7120 C.3       9 GLL5        0.0000 
    103 CA         38.8640   40.1100   20.6710 C.3       6 GLP5        0.0000 
    104 CA         36.5990   42.6545   18.5730 C.3       3 GLC5        0.0000 
    105 CA         33.2300   41.4915   17.9270 C.3       3 GLC5        0.0000 
    106 CA         34.9290   42.1940   18.5880 C.3       9 GLL5        0.0000 
    107 CA         37.0660   40.9458   20.8678 C.3       3 GLC5        0.0000 
@<TRIPOS>BOND
@<TRIPOS>SUBSTRUCTURE
     1 ALC1        1 GROUP        1 X    ALC  0     ROOT ALC X 1
     2 SEC2       31 GROUP        1 X    SEC  0     **** SEC X 2
     3 GLC5        4 GROUP        1 X    GLC  0     **** GLC X 6
     4 ALP1        3 GROUP        1 Y    ALP  0     ROOT ALP Y 8
     5 SEP2       33 GROUP        1 Y    SEP  0     **** SEP Y 9
     6 GLP5        6 GROUP        1 Y    GLP  0     **** GLP Y 13
     7 ALL1        2 GROUP        1 Z    ALL  0     ROOT ALL Z 15
     8 SEL2       32 GROUP        1 Z    SEL  0     **** SEL Z 16
     9 GLL5        5 GROUP        1 Z    GLL  0     **** GLL Z 20
@<TRIPOS>SET

