#    Name: 3gi3_B10_1_ligand
#    Modification time : Tue Mar 25 12:33:49 2014

@<TRIPOS>MOLECULE
3gi3_B10_1_ligand
   84    88     1     0     0
SMALL
NO_CHARGES


@<TRIPOS>ATOM
      1 N1         33.3910   36.2550   12.4070 N.am      1 B10391      0.0000 
      2 C2         32.2040   35.8770   11.7950 C.ar      1 B10391      0.0000 
      3 C10        31.1830   36.7950   11.3480 C.ar      1 B10391      0.0000 
      4 C12        29.9610   36.2970   10.7270 C.ar      1 B10391      0.0000 
      5 C55        32.0050   34.4750   11.6180 C.ar      1 B10391      0.0000 
      6 C18        30.8150   33.9750   11.0120 C.ar      1 B10391      0.0000 
      7 C19        29.8090   34.8780   10.5740 C.ar      1 B10391      0.0000 
      8 O3         33.0080   33.5860   12.0540 O.3       1 B10391      0.0000 
      9 C13        32.7550   33.0020   13.3470 C.3       1 B10391      0.0000 
     10 C14        28.8490   37.2760   10.2470 C.3       1 B10391      0.0000 
     11 C15        28.3080   38.0240   11.4810 C.3       1 B10391      0.0000 
     12 C16        27.6330   36.5650    9.5720 C.3       1 B10391      0.0000 
     13 C17        29.4150   38.2770    9.2070 C.3       1 B10391      0.0000 
     14 C24        33.3910   37.0030   13.5450 C.2       1 B10391      0.0000 
     15 O1         32.3280   37.3900   14.0420 O.2       1 B10391      0.0000 
     16 N4         34.6250   37.2670   14.1060 N.am      1 B10391      0.0000 
     17 C25        34.8500   38.1420   15.1770 C.ar      1 B10391      0.0000 
     18 C4         35.9960   39.0460   15.2120 C.ar      1 B10391      0.0000 
     19 C5         36.1940   39.9720   16.3870 C.ar      1 B10391      0.0000 
     20 C6         35.1970   39.9300   17.4700 C.ar      1 B10391      0.0000 
     21 C26        36.9510   39.0750   14.1370 C.ar      1 B10391      0.0000 
     22 C27        38.0750   39.9620   14.1750 C.ar      1 B10391      0.0000 
     23 C28        38.2700   40.8440   15.2930 C.ar      1 B10391      0.0000 
     24 C29        37.3430   40.8570   16.3900 C.ar      1 B10391      0.0000 
     25 C30        34.1030   39.0280   17.3900 C.ar      1 B10391      0.0000 
     26 C8         33.9370   38.1680   16.2950 C.ar      1 B10391      0.0000 
     27 C11        35.1990   40.7920   18.7120 C.ar      1 B10391      0.0000 
     28 C1         35.4350   40.2470   20.0180 C.ar      1 B10391      0.0000 
     29 C33        35.4050   41.0890   21.1720 C.ar      1 B10391      0.0000 
     30 C7         35.1310   42.4740   20.9570 C.ar      1 B10391      0.0000 
     31 N3         34.9100   42.9570   19.6960 N.ar      1 B10391      0.0000 
     32 C9         34.9290   42.1940   18.5880 C.ar      1 B10391      0.0000 
     33 N2         30.6230   32.6420   10.8470 N.pl3     1 B10391      0.0000 
     34 S1         31.4290   31.7790    9.7110 S.o2      1 B10391      0.0000 
     35 O6         30.4080   31.0990    8.9850 O.2       1 B10391      0.0000 
     36 O7         32.3530   30.9790   10.4780 O.2       1 B10391      0.0000 
     37 C23        32.3790   32.7550    8.5650 C.3       1 B10391      0.0000 
     38 C3         35.0670   43.4350   22.1260 C.3       1 B10391      0.0000 
     39 N5         33.8510   43.2330   22.9330 N.4       1 B10391      0.0000 
     40 C31        32.7680   44.0720   22.3310 C.3       1 B10391      0.0000 
     41 C20        34.1480   43.6340   24.3420 C.3       1 B10391      0.0000 
     42 C21        31.5160   44.1000   23.2420 C.3       1 B10391      0.0000 
     43 C32        32.8550   43.6620   25.1880 C.3       1 B10391      0.0000 
     44 O2         31.8830   44.5300   24.5670 O.3       1 B10391      0.0000 
     45 H          34.2925   35.9553   11.9791 H         1 B10391      0.0000 
     46 H          31.3103   37.7919   11.4636 H         1 B10391      0.0000 
     47 H          28.9545   34.5143   10.1388 H         1 B10391      0.0000 
     48 H          35.4743   36.7724   13.6998 H         1 B10391      0.0000 
     49 H          36.8239   38.4544   13.3376 H         1 B10391      0.0000 
     50 H          38.7410   39.9694   13.4066 H         1 B10391      0.0000 
     51 H          39.0756   41.4673   15.3071 H         1 B10391      0.0000 
     52 H          37.4869   41.4845   17.1718 H         1 B10391      0.0000 
     53 H          33.4164   39.0108   18.1619 H         1 B10391      0.0000 
     54 H          33.1298   37.5167   16.2711 H         1 B10391      0.0000 
     55 H          35.6252   39.2519   20.1207 H         1 B10391      0.0000 
     56 H          35.5676   40.7267   22.0834 H         1 B10391      0.0000 
     57 H          34.7582   42.5711   17.6524 H         1 B10391      0.0000 
     58 H          29.9885   32.0568   11.3833 H         1 B10391      0.0000 
     59 H          35.0992   44.4637   21.7368 H         1 B10391      0.0000 
     60 H          35.9641   43.2925   22.7469 H         1 B10391      0.0000 
     61 H          33.5681   42.2012   22.8986 H         1 B10391      0.0000 
     62 H          32.4745   43.6719   21.3595 H         1 B10391      0.0000 
     63 H          33.1144   45.0975   22.1951 H         1 B10391      0.0000 
     64 H          34.5953   44.6281   24.3669 H         1 B10391      0.0000 
     65 H          34.8413   42.9273   24.7991 H         1 B10391      0.0000 
     66 H          31.0907   43.0929   23.2455 H         1 B10391      0.0000 
     67 H          30.7911   44.7768   22.7820 H         1 B10391      0.0000 
     68 H          33.1232   44.0075   26.1893 H         1 B10391      0.0000 
     69 H          32.4886   42.6355   25.2648 H         1 B10391      0.0000 
     70 H          33.4872   32.3793   13.6230 H         1 B10391      0.0000 
     71 H          32.6781   33.6985   14.0605 H         1 B10391      0.0000 
     72 H          31.9041   32.4767   13.3572 H         1 B10391      0.0000 
     73 H          29.0262   38.5418   11.9458 H         1 B10391      0.0000 
     74 H          27.5896   38.6748   11.2354 H         1 B10391      0.0000 
     75 H          27.9171   37.3961   12.1540 H         1 B10391      0.0000 
     76 H          27.9084   36.0468    8.7623 H         1 B10391      0.0000 
     77 H          27.1869   35.9216   10.1940 H         1 B10391      0.0000 
     78 H          26.9364   37.2195    9.2782 H         1 B10391      0.0000 
     79 H          30.1585   38.8270    9.5874 H         1 B10391      0.0000 
     80 H          29.7788   37.8095    8.4013 H         1 B10391      0.0000 
     81 H          28.7144   38.9138    8.8850 H         1 B10391      0.0000 
     82 H          33.0770   33.2993    9.0303 H         1 B10391      0.0000 
     83 H          32.8518   32.1841    7.8938 H         1 B10391      0.0000 
     84 H          31.8029   33.3926    8.0536 H         1 B10391      0.0000 
@<TRIPOS>BOND
     1    2    1 1    
     2   14    1 am   
     3   45    1 1    
     4    3    2 ar   
     5    5    2 ar   
     6    4    3 ar   
     7   46    3 1    
     8    7    4 ar   
     9   10    4 1    
    10    6    5 ar   
    11    8    5 1    
    12    7    6 ar   
    13   33    6 1    
    14   47    7 1    
    15    9    8 1    
    16   70    9 1    
    17   71    9 1    
    18   72    9 1    
    19   11   10 1    
    20   12   10 1    
    21   13   10 1    
    22   73   11 1    
    23   74   11 1    
    24   75   11 1    
    25   76   12 1    
    26   77   12 1    
    27   78   12 1    
    28   79   13 1    
    29   80   13 1    
    30   81   13 1    
    31   15   14 2    
    32   16   14 am   
    33   17   16 1    
    34   48   16 1    
    35   18   17 ar   
    36   26   17 ar   
    37   19   18 ar   
    38   21   18 ar   
    39   20   19 ar   
    40   24   19 ar   
    41   25   20 ar   
    42   27   20 1    
    43   22   21 ar   
    44   49   21 1    
    45   23   22 ar   
    46   50   22 1    
    47   24   23 ar   
    48   51   23 1    
    49   52   24 1    
    50   26   25 ar   
    51   53   25 1    
    52   54   26 1    
    53   28   27 ar   
    54   32   27 ar   
    55   29   28 ar   
    56   55   28 1    
    57   30   29 ar   
    58   56   29 1    
    59   31   30 ar   
    60   38   30 1    
    61   32   31 ar   
    62   57   32 1    
    63   34   33 1    
    64   58   33 1    
    65   35   34 2    
    66   36   34 2    
    67   37   34 1    
    68   82   37 1    
    69   83   37 1    
    70   84   37 1    
    71   39   38 1    
    72   59   38 1    
    73   60   38 1    
    74   40   39 1    
    75   41   39 1    
    76   61   39 1    
    77   42   40 1    
    78   62   40 1    
    79   63   40 1    
    80   43   41 1    
    81   64   41 1    
    82   65   41 1    
    83   44   42 1    
    84   66   42 1    
    85   67   42 1    
    86   44   43 1    
    87   68   43 1    
    88   69   43 1    
@<TRIPOS>SUBSTRUCTURE
     1 B10391      1 GROUP   
@<TRIPOS>SET

