#    Name: 4fdc_FAD_1_INTS_M
#    Modification time : Mon Mar 24 19:21:58 2014

@<TRIPOS>MOLECULE
4fdc_FAD_1_INTS_M
  118     0    12     0     0
SMALL
NO_CHARGES


@<TRIPOS>ATOM
      1 NZ        -14.8770   -4.0245  -21.5805 N.4       3 LYC4        0.0000 
      2 NZ        -15.0370   -4.0500  -22.9290 N.4      11 LYL4        0.0000 
      3 NZ        -14.3680   -2.8540  -19.6660 N.4       7 LYP4        0.0000 
      4 N         -14.8770   -4.0245  -21.5805 N.am      2 SEC2        0.0000 
      5 N         -15.0370   -4.0500  -22.9290 N.am     10 SEL2        0.0000 
      6 N         -14.7170   -3.9990  -20.2320 N.am      6 SEP2        0.0000 
      7 N         -13.7705   -3.6505  -23.8335 N.am      2 SEC2        0.0000 
      8 N         -12.5040   -3.2510  -24.7380 N.am      6 SEP2        0.0000 
      9 NZ        -15.4635   -2.4240  -21.0075 N.4       3 LYC4        0.0000 
     10 NZ        -16.5590   -1.9940  -22.3490 N.4      11 LYL4        0.0000 
     11 CA        -18.1740   -7.0065  -24.4130 C.3       4 GLC5        0.0000 
     12 CA        -17.5240   -5.7150  -22.9510 C.3      12 GLL5        0.0000 
     13 CA        -18.8240   -8.2980  -25.8750 C.3       8 GLP5        0.0000 
     14 CA        -16.8385   -5.6815  -24.8140 C.3       4 GLC5        0.0000 
     15 CA        -16.1530   -5.6480  -26.6770 C.3       8 GLP5        0.0000 
     16 CA        -19.5180   -7.5635  -21.8390 C.3       4 GLC5        0.0000 
     17 CA        -17.7590   -6.4730  -21.6550 C.3      12 GLL5        0.0000 
     18 CA        -21.2770   -8.6540  -22.0230 C.3       8 GLP5        0.0000 
     19 CA        -19.6130   -6.1925  -20.5355 C.3       4 GLC5        0.0000 
     20 CA        -21.4670   -5.9120  -19.4160 C.3       8 GLP5        0.0000 
     21 N         -19.6745   -7.3265  -21.1245 N.am      2 SEC2        0.0000 
     22 N         -18.3830   -7.7370  -21.8970 N.am     10 SEL2        0.0000 
     23 N         -20.9660   -6.9160  -20.3520 N.am      6 SEP2        0.0000 
     24 N         -15.6600   -5.2030  -19.9240 N.am      2 SEC2        0.0000 
     25 N         -16.6030   -6.4070  -19.6160 N.am     10 SEL2        0.0000 
     26 N         -15.1180  -10.3600  -20.3745 N.am      2 SEC2        0.0000 
     27 N         -15.5920   -8.8690  -20.0620 N.am     10 SEL2        0.0000 
     28 N         -14.6440  -11.8510  -20.6870 N.am      6 SEP2        0.0000 
     29 CA        -19.4515   -8.7225  -21.6660 C.3       4 GLC5        0.0000 
     30 CA        -17.6260   -8.7910  -21.3090 C.3      12 GLL5        0.0000 
     31 CA        -21.0790  -12.7365  -23.5740 C.3       4 GLC5        0.0000 
     32 CA        -19.2910  -13.1530  -22.7710 C.3      12 GLL5        0.0000 
     33 CA        -22.8670  -12.3200  -24.3770 C.3       8 GLP5        0.0000 
     34 O         -19.7615  -15.4930  -23.7000 O.2       1 ALC1        0.0000 
     35 O         -19.2370  -14.1600  -23.6720 O.2       9 ALL1        0.0000 
     36 O         -20.2860  -16.8260  -23.7280 O.2       5 ALP1        0.0000 
     37 N         -20.7065  -14.6835  -21.4210 N.am      2 SEC2        0.0000 
     38 N         -20.1360  -13.2370  -21.7330 N.am     10 SEL2        0.0000 
     39 N         -21.2770  -16.1300  -21.1090 N.am      6 SEP2        0.0000 
     40 CA        -21.5440  -12.2925  -22.5930 C.3       4 GLC5        0.0000 
     41 CA        -20.2210  -12.2650  -20.8090 C.3      12 GLL5        0.0000 
     42 CA        -20.7490  -10.4595  -21.4160 C.3       4 GLC5        0.0000 
     43 CA        -20.6700  -11.1405  -19.1540 C.3       4 GLC5        0.0000 
     44 CA        -21.1190  -10.0160  -17.4990 C.3       8 GLP5        0.0000 
     45 CA        -18.6845  -12.5335  -19.4810 C.3       4 GLC5        0.0000 
     46 CA        -17.1480  -12.8020  -18.1530 C.3       8 GLP5        0.0000 
     47 CA        -20.0040  -14.1065  -20.0090 C.3       4 GLC5        0.0000 
     48 CA        -19.7870  -15.9480  -19.2090 C.3       8 GLP5        0.0000 
     49 N         -19.2775  -11.2545  -19.2515 N.am      2 SEC2        0.0000 
     50 N         -19.4630  -11.1590  -20.8670 N.am     10 SEL2        0.0000 
     51 N         -19.0920  -11.3500  -17.6360 N.am      6 SEP2        0.0000 
     52 N         -13.6790    5.2010  -26.5120 N.am      2 SEC2        0.0000 
     53 N         -12.1340    5.3210  -25.8740 N.am     10 SEL2        0.0000 
     54 N         -15.2240    5.0810  -27.1500 N.am      6 SEP2        0.0000 
     55 N         -14.0710    6.0880  -27.0905 N.am      2 SEC2        0.0000 
     56 N         -12.9180    7.0950  -27.0310 N.am     10 SEL2        0.0000 
     57 N          -9.3190    8.1705  -22.5440 N.am      2 SEC2        0.0000 
     58 N         -10.1610    7.9680  -23.6310 N.am     10 SEL2        0.0000 
     59 N          -8.4770    8.3730  -21.4570 N.am      6 SEP2        0.0000 
     60 CA         -8.5990    1.8265  -18.3650 C.3       4 GLC5        0.0000 
     61 CA         -8.0860    1.5040  -20.3970 C.3      12 GLL5        0.0000 
     62 CA         -9.1120    2.1490  -16.3330 C.3       8 GLP5        0.0000 
     63 CA         -6.8130    3.1205  -19.7445 C.3       4 GLC5        0.0000 
     64 CA         -5.5400    4.7370  -19.0920 C.3       8 GLP5        0.0000 
     65 CA         -6.6860    0.7450  -19.3865 C.3       4 GLC5        0.0000 
     66 CA         -5.2860   -0.0140  -18.3760 C.3       8 GLP5        0.0000 
     67 CA         -8.9210   -1.7080  -20.9790 C.3       4 GLC5        0.0000 
     68 CA         -9.6460   -0.2510  -22.2120 C.3      12 GLL5        0.0000 
     69 CA         -8.1960   -3.1650  -19.7460 C.3       8 GLP5        0.0000 
     70 CA        -11.9745    4.0175  -22.2480 C.3       4 GLC5        0.0000 
     71 CA        -10.4860    3.0220  -23.5740 C.3      12 GLL5        0.0000 
     72 CA        -13.4630    5.0130  -20.9220 C.3       8 GLP5        0.0000 
     73 O         -14.8160    0.5440  -27.9130 O.2       1 ALC1        0.0000 
     74 O         -14.7020    1.5630  -26.9610 O.2       9 ALL1        0.0000 
     75 O         -14.9300   -0.4750  -28.8650 O.2       5 ALP1        0.0000 
     76 O         -14.1970   -0.0475  -27.2285 O.2       1 ALC1        0.0000 
     77 O         -13.6920   -1.6580  -27.4960 O.2       5 ALP1        0.0000 
     78 CA        -17.4405    1.1010  -23.7700 C.3       4 GLC5        0.0000 
     79 CA        -15.5080    0.7830  -24.8660 C.3      12 GLL5        0.0000 
     80 CA        -19.3730    1.4190  -22.6740 C.3       8 GLP5        0.0000 
     81 CA        -15.7365   -1.5455  -27.3020 C.3       4 GLC5        0.0000 
     82 CA        -16.3180   -0.2240  -25.6750 C.3      12 GLL5        0.0000 
     83 CA        -15.1550   -2.8670  -28.9290 C.3       8 GLP5        0.0000 
     84 N         -20.3195   -1.4860  -24.4590 N.am      2 SEC2        0.0000 
     85 N         -19.2260   -2.5070  -24.6590 N.am     10 SEL2        0.0000 
     86 N         -21.4130   -0.4650  -24.2590 N.am      6 SEP2        0.0000 
     87 N         -17.5880   -2.2825  -28.1055 N.am      2 SEC2        0.0000 
     88 N         -17.7240   -2.4510  -26.7520 N.am     10 SEL2        0.0000 
     89 N         -17.4520   -2.1140  -29.4590 N.am      6 SEP2        0.0000 
     90 CA        -18.6098   -4.4855  -21.4835 C.3       4 GLC5        0.0000 
     91 CA        -19.5780   -2.8770  -20.6640 C.3       8 GLP5        0.0000 
     92 CA        -16.6118  -10.1835  -20.1095 C.3       4 GLC5        0.0000 
     93 CA        -16.3020  -11.8400  -18.9720 C.3       8 GLP5        0.0000 
     94 CA        -19.8923  -10.0587  -22.1972 C.3       4 GLC5        0.0000 
     95 CA        -18.5780  -10.9850  -21.8780 C.3      12 GLL5        0.0000 
     96 CA        -17.4047  -11.6517  -20.6718 C.3       4 GLC5        0.0000 
     97 CA        -18.3435  -14.2168  -21.8300 C.3       4 GLC5        0.0000 
     98 CA        -18.4370  -11.9420  -22.8650 C.3      12 GLL5        0.0000 
     99 CA        -17.8230  -15.8860  -20.8420 C.3       8 GLP5        0.0000 
    100 CA        -19.2375  -11.1841  -24.2135 C.3       4 GLC5        0.0000 
    101 CA        -19.7540  -10.6020  -26.0790 C.3       8 GLP5        0.0000 
    102 CA        -11.0470    2.6493  -21.3212 C.3       4 GLC5        0.0000 
    103 CA         -9.7820    3.9340  -22.7740 C.3      12 GLL5        0.0000 
    104 CA        -12.7110    1.5900  -20.3930 C.3       8 GLP5        0.0000 
    105 CA        -10.4110    4.8368  -21.1043 C.3       4 GLC5        0.0000 
    106 CA         -8.9840    3.4830  -21.7250 C.3      12 GLL5        0.0000 
    107 CA        -11.4390    5.9650  -19.9590 C.3       8 GLP5        0.0000 
    108 CA         -6.6481    2.3157  -21.3074 C.3       4 GLC5        0.0000 
    109 CA         -4.7780    2.4810  -21.6090 C.3       8 GLP5        0.0000 
    110 CA        -11.0939    1.1510  -21.2389 C.3       4 GLC5        0.0000 
    111 CA         -8.9170    2.1110  -21.5040 C.3      12 GLL5        0.0000 
    112 CA        -11.5775    1.9903  -21.9277 C.3       4 GLC5        0.0000 
    113 CA        -10.4020    1.7590  -23.3510 C.3      12 GLL5        0.0000 
    114 CA        -15.0928    3.4692  -25.7538 C.3       4 GLC5        0.0000 
    115 CA        -13.5350    2.3900  -25.0320 C.3      12 GLL5        0.0000 
    116 CA        -16.2860    5.1430  -26.1670 C.3       8 GLP5        0.0000 
    117 CA        -17.5885    1.2112  -25.8728 C.3       4 GLC5        0.0000 
    118 CA        -19.2640    2.1430  -26.4750 C.3       8 GLP5        0.0000 
@<TRIPOS>BOND
@<TRIPOS>SUBSTRUCTURE
     1 ALC1       34 GROUP        1 X    ALC  0     ROOT ALC X 1
     2 SEC2        4 GROUP        1 X    SEC  0     **** SEC X 2
     3 LYC4        1 GROUP        1 X    LYC  0     **** LYC X 4
     4 GLC5       11 GROUP        1 X    GLC  0     **** GLC X 6
     5 ALP1       36 GROUP        1 Y    ALP  0     ROOT ALP Y 8
     6 SEP2        6 GROUP        1 Y    SEP  0     **** SEP Y 9
     7 LYP4        3 GROUP        1 Y    LYP  0     **** LYP Y 11
     8 GLP5       13 GROUP        1 Y    GLP  0     **** GLP Y 13
     9 ALL1       35 GROUP        1 Z    ALL  0     ROOT ALL Z 15
    10 SEL2        5 GROUP        1 Z    SEL  0     **** SEL Z 16
    11 LYL4        2 GROUP        1 Z    LYL  0     **** LYL Z 18
    12 GLL5       12 GROUP        1 Z    GLL  0     **** GLL Z 20
@<TRIPOS>SET

