#    Name: 4fdc_FAD_1_ligand
#    Modification time : Mon Mar 24 19:21:58 2014

@<TRIPOS>MOLECULE
4fdc_FAD_1_ligand
   84    89     1     0     0
SMALL
NO_CHARGES


@<TRIPOS>ATOM
      1 PA        -16.3580   -3.3100  -23.0880 P.3       1 FAD1000     0.0000 
      2 O1A       -15.0370   -4.0500  -22.9290 O.co2     1 FAD1000     0.0000 
      3 O2A       -16.5590   -1.9940  -22.3490 O.co2     1 FAD1000     0.0000 
      4 O5B       -17.5100   -4.3330  -22.6070 O.3       1 FAD1000     0.0000 
      5 C5B       -17.5240   -5.7150  -22.9510 C.3       1 FAD1000     0.0000 
      6 C4B       -17.7590   -6.4730  -21.6550 C.3       1 FAD1000     0.0000 
      7 O4B       -18.3830   -7.7370  -21.8970 O.3       1 FAD1000     0.0000 
      8 C3B       -16.4400   -6.7730  -20.9850 C.3       1 FAD1000     0.0000 
      9 O3B       -16.6030   -6.4070  -19.6160 O.3       1 FAD1000     0.0000 
     10 C2B       -16.2170   -8.2630  -21.1850 C.3       1 FAD1000     0.0000 
     11 O2B       -15.5920   -8.8690  -20.0620 O.3       1 FAD1000     0.0000 
     12 C1B       -17.6260   -8.7910  -21.3090 C.3       1 FAD1000     0.0000 
     13 N9A       -17.7420   -9.9970  -22.1540 N.pl3     1 FAD1000     0.0000 
     14 C8A       -17.0810  -10.3030  -23.2770 C.2       1 FAD1000     0.0000 
     15 N7A       -17.4960  -11.5020  -23.7210 N.2       1 FAD1000     0.0000 
     16 C5A       -18.4370  -11.9420  -22.8650 C.ar      1 FAD1000     0.0000 
     17 C6A       -19.2910  -13.1530  -22.7710 C.ar      1 FAD1000     0.0000 
     18 N6A       -19.2370  -14.1600  -23.6720 N.pl3     1 FAD1000     0.0000 
     19 N1A       -20.1360  -13.2370  -21.7330 N.ar      1 FAD1000     0.0000 
     20 C2A       -20.2210  -12.2650  -20.8090 C.ar      1 FAD1000     0.0000 
     21 N3A       -19.4630  -11.1590  -20.8670 N.ar      1 FAD1000     0.0000 
     22 C4A       -18.5780  -10.9850  -21.8780 C.ar      1 FAD1000     0.0000 
     23 N1        -12.1340    5.3210  -25.8740 N.2       1 FAD1000     0.0000 
     24 C2        -12.2190    6.6640  -26.1000 C.2       1 FAD1000     0.0000 
     25 O2        -12.9180    7.0950  -27.0310 O.2       1 FAD1000     0.0000 
     26 N3        -11.5570    7.5530  -25.3500 N.am      1 FAD1000     0.0000 
     27 C4        -10.7770    7.1460  -24.3350 C.2       1 FAD1000     0.0000 
     28 O4        -10.1610    7.9680  -23.6310 O.2       1 FAD1000     0.0000 
     29 C4X       -10.6680    5.6910  -24.0460 C.2       1 FAD1000     0.0000 
     30 N5         -9.8860    5.2570  -23.0220 N.2       1 FAD1000     0.0000 
     31 C5X        -9.7820    3.9340  -22.7740 C.ar      1 FAD1000     0.0000 
     32 C6         -8.9840    3.4830  -21.7250 C.ar      1 FAD1000     0.0000 
     33 C7         -8.9170    2.1110  -21.5040 C.ar      1 FAD1000     0.0000 
     34 C7M        -8.0860    1.5040  -20.3970 C.3       1 FAD1000     0.0000 
     35 C8         -9.6980    1.2390  -22.4110 C.ar      1 FAD1000     0.0000 
     36 C8M        -9.6460   -0.2510  -22.2120 C.3       1 FAD1000     0.0000 
     37 C9        -10.4020    1.7590  -23.3510 C.ar      1 FAD1000     0.0000 
     38 C9A       -10.4860    3.0220  -23.5740 C.ar      1 FAD1000     0.0000 
     39 N10       -11.3010    3.4850  -24.6430 N.pl3     1 FAD1000     0.0000 
     40 C10       -11.3840    4.8080  -24.8650 C.2       1 FAD1000     0.0000 
     41 C1'       -12.0550    2.5060  -25.4720 C.3       1 FAD1000     0.0000 
     42 C2'       -13.5350    2.3900  -25.0320 C.3       1 FAD1000     0.0000 
     43 O2'       -13.6340    2.2790  -23.6180 O.3       1 FAD1000     0.0000 
     44 C3'       -14.2640    1.2010  -25.6490 C.3       1 FAD1000     0.0000 
     45 O3'       -14.7020    1.5630  -26.9610 O.3       1 FAD1000     0.0000 
     46 C4'       -15.5080    0.7830  -24.8660 C.3       1 FAD1000     0.0000 
     47 O4'       -15.1450    0.1950  -23.6130 O.3       1 FAD1000     0.0000 
     48 C5'       -16.3180   -0.2240  -25.6750 C.3       1 FAD1000     0.0000 
     49 O5'       -17.3660   -0.7880  -24.8920 O.3       1 FAD1000     0.0000 
     50 P         -17.8660   -2.2720  -25.2620 P.3       1 FAD1000     0.0000 
     51 O1P       -19.2260   -2.5070  -24.6590 O.co2     1 FAD1000     0.0000 
     52 O2P       -17.7240   -2.4510  -26.7520 O.co2     1 FAD1000     0.0000 
     53 O3P       -16.6810   -3.1590  -24.6490 O.3       1 FAD1000     0.0000 
     54 H         -16.5786   -6.0412  -23.3674 H         1 FAD1000     0.0000 
     55 H         -18.3282   -5.9568  -23.6353 H         1 FAD1000     0.0000 
     56 H         -18.3452   -5.8701  -20.9918 H         1 FAD1000     0.0000 
     57 H         -15.6850   -6.2268  -21.4783 H         1 FAD1000     0.0000 
     58 H         -15.7195   -8.4171  -22.0984 H         1 FAD1000     0.0000 
     59 H         -17.9993   -8.9950  -20.3149 H         1 FAD1000     0.0000 
     60 H         -16.4063   -9.7477  -23.7066 H         1 FAD1000     0.0000 
     61 H         -18.6078  -14.0313  -24.4385 H         1 FAD1000     0.0000 
     62 H         -19.8310  -14.9440  -23.4918 H         1 FAD1000     0.0000 
     63 H         -20.9071  -12.3758  -20.0112 H         1 FAD1000     0.0000 
     64 H         -11.6466    8.5780  -25.5550 H         1 FAD1000     0.0000 
     65 H          -8.4701    4.1328  -21.1431 H         1 FAD1000     0.0000 
     66 H         -10.9637    1.0873  -24.0007 H         1 FAD1000     0.0000 
     67 H         -11.6002    1.5112  -25.3971 H         1 FAD1000     0.0000 
     68 H         -12.0374    2.8045  -26.5268 H         1 FAD1000     0.0000 
     69 H         -14.0488    3.2992  -25.3688 H         1 FAD1000     0.0000 
     70 H         -13.5923    0.3621  -25.6964 H         1 FAD1000     0.0000 
     71 H         -16.1237    1.6610  -24.7188 H         1 FAD1000     0.0000 
     72 H         -15.6214   -0.9972  -26.0394 H         1 FAD1000     0.0000 
     73 H         -16.7102    0.2991  -26.5629 H         1 FAD1000     0.0000 
     74 H          -7.1161    1.7262  -20.4962 H         1 FAD1000     0.0000 
     75 H          -8.3712    1.8316  -19.4962 H         1 FAD1000     0.0000 
     76 H          -8.1582    0.5067  -20.3826 H         1 FAD1000     0.0000 
     77 H          -8.7158   -0.6059  -22.3053 H         1 FAD1000     0.0000 
     78 H          -9.9711   -0.5160  -21.3042 H         1 FAD1000     0.0000 
     79 H         -10.2126   -0.7348  -22.8790 H         1 FAD1000     0.0000 
     80 H         -16.3926   -7.2370  -19.0995 H         1 FAD1000     0.0000 
     81 H         -14.6280   -8.6127  -20.1329 H         1 FAD1000     0.0000 
     82 H         -14.1827    1.4579  -23.4608 H         1 FAD1000     0.0000 
     83 H         -14.7430    0.7014  -27.4669 H         1 FAD1000     0.0000 
     84 H         -16.0012   -0.1568  -23.2346 H         1 FAD1000     0.0000 
@<TRIPOS>BOND
     1    2    1 ar   
     2    3    1 ar   
     3    4    1 1    
     4   53    1 1    
     5    5    4 1    
     6    6    5 1    
     7   54    5 1    
     8   55    5 1    
     9    7    6 1    
    10    8    6 1    
    11   56    6 1    
    12   12    7 1    
    13    9    8 1    
    14   10    8 1    
    15   57    8 1    
    16   80    9 1    
    17   11   10 1    
    18   12   10 1    
    19   58   10 1    
    20   81   11 1    
    21   13   12 1    
    22   59   12 1    
    23   14   13 1    
    24   22   13 1    
    25   15   14 2    
    26   60   14 1    
    27   16   15 1    
    28   17   16 ar   
    29   22   16 ar   
    30   18   17 1    
    31   19   17 ar   
    32   61   18 1    
    33   62   18 1    
    34   20   19 ar   
    35   21   20 ar   
    36   63   20 1    
    37   22   21 ar   
    38   24   23 1    
    39   40   23 2    
    40   25   24 2    
    41   26   24 am   
    42   27   26 am   
    43   64   26 1    
    44   28   27 2    
    45   29   27 1    
    46   30   29 2    
    47   40   29 1    
    48   31   30 1    
    49   32   31 ar   
    50   38   31 ar   
    51   33   32 ar   
    52   65   32 1    
    53   34   33 1    
    54   35   33 ar   
    55   74   34 1    
    56   75   34 1    
    57   76   34 1    
    58   36   35 1    
    59   37   35 ar   
    60   77   36 1    
    61   78   36 1    
    62   79   36 1    
    63   38   37 ar   
    64   66   37 1    
    65   39   38 1    
    66   40   39 1    
    67   41   39 1    
    68   42   41 1    
    69   67   41 1    
    70   68   41 1    
    71   43   42 1    
    72   44   42 1    
    73   69   42 1    
    74   82   43 1    
    75   45   44 1    
    76   46   44 1    
    77   70   44 1    
    78   83   45 1    
    79   47   46 1    
    80   48   46 1    
    81   71   46 1    
    82   84   47 1    
    83   49   48 1    
    84   72   48 1    
    85   73   48 1    
    86   50   49 1    
    87   51   50 ar   
    88   52   50 ar   
    89   53   50 1    
@<TRIPOS>SUBSTRUCTURE
     1 FAD1000     1 GROUP   
@<TRIPOS>SET

