#    Name: 2xru_400_1_INTS_M
#    Modification time : Tue Mar 25 06:32:30 2014

@<TRIPOS>MOLECULE
2xru_400_1_INTS_M
   63     0     9     0     0
SMALL
NO_CHARGES


@<TRIPOS>ATOM
      1 N           3.2230   33.1470    9.9020 N.am      2 SEC2        0.0000 
      2 N           3.5630   31.9500    9.2420 N.am      8 SEL2        0.0000 
      3 N           2.8830   34.3440   10.5620 N.am      5 SEP2        0.0000 
      4 O           4.0195   31.0770   11.2905 O.2       1 ALC1        0.0000 
      5 O           4.3810   31.2430   10.0000 O.2       7 ALL1        0.0000 
      6 O           3.6580   30.9110   12.5810 O.2       4 ALP1        0.0000 
      7 CA          6.4105   27.9180   10.6040 C.3       3 GLC5        0.0000 
      8 CA          6.1650   29.5030    9.3180 C.3       9 GLL5        0.0000 
      9 CA          6.6560   26.3330   11.8900 C.3       6 GLP5        0.0000 
     10 CA          4.8815   27.5610    7.8830 C.3       3 GLC5        0.0000 
     11 CA          6.5710   29.0160    8.0490 C.3       9 GLL5        0.0000 
     12 CA          3.1920   26.1060    7.7170 C.3       6 GLP5        0.0000 
     13 CA          4.7340   27.9730    6.0105 C.3       3 GLC5        0.0000 
     14 CA          5.6420   29.7200    6.7270 C.3       9 GLL5        0.0000 
     15 CA          3.8260   26.2260    5.2940 C.3       6 GLP5        0.0000 
     16 CA          1.3310   32.3680    4.1465 C.3       3 GLC5        0.0000 
     17 CA          2.8550   33.6050    3.4410 C.3       9 GLL5        0.0000 
     18 CA         -0.1930   31.1310    4.8520 C.3       6 GLP5        0.0000 
     19 CA          2.0655   38.6820    4.2595 C.3       3 GLC5        0.0000 
     20 CA          0.9740   37.9950    2.8210 C.3       9 GLL5        0.0000 
     21 CA          3.1570   39.3690    5.6980 C.3       6 GLP5        0.0000 
     22 CA          2.9120   37.1470    3.5610 C.3       3 GLC5        0.0000 
     23 CA          4.8500   36.2990    4.3010 C.3       6 GLP5        0.0000 
     24 N           8.3230   25.8640    8.8415 N.am      2 SEC2        0.0000 
     25 N           8.1640   27.4530    8.7840 N.am      8 SEL2        0.0000 
     26 N           8.4820   24.2750    8.8990 N.am      5 SEP2        0.0000 
     27 CA          5.2855   22.9335    4.2000 C.3       3 GLC5        0.0000 
     28 CA          7.0020   24.3290    4.4990 C.3       9 GLL5        0.0000 
     29 CA          3.5690   21.5380    3.9010 C.3       6 GLP5        0.0000 
     30 CA         12.2785   30.2065    5.9355 C.3       3 GLC5        0.0000 
     31 CA         11.0320   28.9190    5.8880 C.3       9 GLL5        0.0000 
     32 CA         13.5250   31.4940    5.9830 C.3       6 GLP5        0.0000 
     33 CA         10.9120   29.7860    7.9395 C.3       3 GLC5        0.0000 
     34 CA         10.7920   30.6530    9.9910 C.3       6 GLP5        0.0000 
     35 CA         12.2680   27.8970    7.4180 C.3       3 GLC5        0.0000 
     36 CA         13.5040   26.8750    8.9480 C.3       6 GLP5        0.0000 
     37 CA          6.5135   30.4677   10.6850 C.3       3 GLC5        0.0000 
     38 CA          5.1370   30.4460    9.1940 C.3       9 GLL5        0.0000 
     39 CA          7.3760   30.9610   12.1140 C.3       6 GLP5        0.0000 
     40 CA          3.8527   29.3987    9.7184 C.3       3 GLC5        0.0000 
     41 CA          2.1500   28.7650   10.5080 C.3       6 GLP5        0.0000 
     42 CA          3.4662   35.1097    4.7185 C.3       3 GLC5        0.0000 
     43 CA          2.5540   33.4510    4.8550 C.3       9 GLL5        0.0000 
     44 CA          1.1288   36.2500    6.6107 C.3       3 GLC5        0.0000 
     45 CA          1.6110   34.3900    5.4170 C.3       9 GLL5        0.0000 
     46 CA          0.9400   37.6010    8.2030 C.3       6 GLP5        0.0000 
     47 CA          0.6801   32.8976    4.8650 C.3       3 GLC5        0.0000 
     48 CA          1.0240   35.4080    4.6200 C.3       9 GLL5        0.0000 
     49 CA          3.0140   35.8920    4.1052 C.3       3 GLC5        0.0000 
     50 CA          3.7055   35.2062    3.6715 C.3       3 GLC5        0.0000 
     51 CA          2.2670   34.6220    2.6430 C.3       9 GLL5        0.0000 
     52 CA          7.7510   24.4932    7.0325 C.3       3 GLC5        0.0000 
     53 CA          7.5120   25.6070    4.9570 C.3       9 GLL5        0.0000 
     54 CA          7.3710   23.3290    8.7100 C.3       6 GLP5        0.0000 
     55 CA          5.5415   25.5970    5.0110 C.3       3 GLC5        0.0000 
     56 CA          7.5117   22.6953    2.8900 C.3       3 GLC5        0.0000 
     57 CA          7.6620   21.6620    1.1150 C.3       6 GLP5        0.0000 
     58 CA          7.3663   23.5288    6.6875 C.3       3 GLC5        0.0000 
     59 CA          7.7210   23.1280    4.8310 C.3       9 GLL5        0.0000 
     60 CA          8.2858   23.5865    7.2763 C.3       3 GLC5        0.0000 
     61 CA          8.9460   23.2050    5.6150 C.3       9 GLL5        0.0000 
     62 CA          6.5888   31.2032    7.9961 C.3       3 GLC5        0.0000 
     63 CA          7.5280   32.5910    8.3230 C.3       6 GLP5        0.0000 
@<TRIPOS>BOND
@<TRIPOS>SUBSTRUCTURE
     1 ALC1        4 GROUP        1 X    ALC  0     ROOT ALC X 1
     2 SEC2        1 GROUP        1 X    SEC  0     **** SEC X 2
     3 GLC5        7 GROUP        1 X    GLC  0     **** GLC X 6
     4 ALP1        6 GROUP        1 Y    ALP  0     ROOT ALP Y 8
     5 SEP2        3 GROUP        1 Y    SEP  0     **** SEP Y 9
     6 GLP5        9 GROUP        1 Y    GLP  0     **** GLP Y 13
     7 ALL1        5 GROUP        1 Z    ALL  0     ROOT ALL Z 15
     8 SEL2        2 GROUP        1 Z    SEL  0     **** SEL Z 16
     9 GLL5        8 GROUP        1 Z    GLL  0     **** GLL Z 20
@<TRIPOS>SET

