#    Name: 2xru_400_1_ligand
#    Modification time : Tue Mar 25 06:32:30 2014

@<TRIPOS>MOLECULE
2xru_400_1_ligand
   67    71     1     0     0
SMALL
NO_CHARGES


@<TRIPOS>ATOM
      1 C1          3.7470   31.6470    7.9320 C.2       1 4001389     0.0000 
      2 N2          3.5630   31.9500    9.2420 N.2       1 4001389     0.0000 
      3 N3          4.3810   31.2430   10.0000 N.pl3     1 4001389     0.0000 
      4 C4          4.7550   30.6780    7.8850 C.2       1 4001389     0.0000 
      5 C5          5.1370   30.4460    9.1940 C.2       1 4001389     0.0000 
      6 C6          6.1650   29.5030    9.3180 C.2       1 4001389     0.0000 
      7 C7          6.5710   29.0160    8.0490 C.2       1 4001389     0.0000 
      8 S8          5.6420   29.7200    6.7270 S.3       1 4001389     0.0000 
      9 N9          3.0090   32.2690    7.0000 N.am      1 4001389     0.0000 
     10 C10         3.1830   32.3860    5.6410 C.2       1 4001389     0.0000 
     11 C11         2.5540   33.4510    4.8550 C.ar      1 4001389     0.0000 
     12 O12         3.9060   31.5140    5.0410 O.2       1 4001389     0.0000 
     13 C13         1.6110   34.3900    5.4170 C.ar      1 4001389     0.0000 
     14 C14         1.0240   35.4080    4.6200 C.ar      1 4001389     0.0000 
     15 C15         1.3320   35.5620    3.1990 C.ar      1 4001389     0.0000 
     16 C16         2.2670   34.6220    2.6430 C.ar      1 4001389     0.0000 
     17 C17         2.8550   33.6050    3.4410 C.ar      1 4001389     0.0000 
     18 N18         0.7510   36.5810    2.4350 N.3       1 4001389     0.0000 
     19 C19        -0.1590   36.3020    1.2540 C.3       1 4001389     0.0000 
     20 C20        -0.0350   37.3640    0.0850 C.3       1 4001389     0.0000 
     21 N21         0.0440   38.7800    0.6770 N.4       1 4001389     0.0000 
     22 C22         1.2470   38.8780    1.5890 C.3       1 4001389     0.0000 
     23 C23         0.9740   37.9950    2.8210 C.3       1 4001389     0.0000 
     24 C24         0.0980   39.8480   -0.3940 C.3       1 4001389     0.0000 
     25 C25         7.6380   28.0720    7.8220 C.2       1 4001389     0.0000 
     26 O26         8.1640   27.4530    8.7840 O.2       1 4001389     0.0000 
     27 N27         8.1380   27.8580    6.5820 N.am      1 4001389     0.0000 
     28 C28         9.2770   27.0380    6.2430 C.3       1 4001389     0.0000 
     29 C29         8.7500   25.7080    5.7530 C.ar      1 4001389     0.0000 
     30 C30        10.1460   27.8230    5.2220 C.3       1 4001389     0.0000 
     31 C31         7.5120   25.6070    4.9570 C.ar      1 4001389     0.0000 
     32 C32         7.0020   24.3290    4.4990 C.ar      1 4001389     0.0000 
     33 C33         7.7210   23.1280    4.8310 C.ar      1 4001389     0.0000 
     34 C34         8.9460   23.2050    5.6150 C.ar      1 4001389     0.0000 
     35 C35         9.4550   24.4830    6.0700 C.ar      1 4001389     0.0000 
     36 C36        11.0320   28.9190    5.8880 C.3       1 4001389     0.0000 
     37 H           4.4507   31.2687   10.9667 H         1 4001389     0.0000 
     38 H           6.5517   29.2166   10.1500 H         1 4001389     0.0000 
     39 H           2.0945   32.7831    7.3820 H         1 4001389     0.0000 
     40 H           1.3688   34.3113    6.4077 H         1 4001389     0.0000 
     41 H           0.3572   36.0684    5.0402 H         1 4001389     0.0000 
     42 H           2.5093   34.6936    1.6494 H         1 4001389     0.0000 
     43 H           3.5218   32.9444    3.0149 H         1 4001389     0.0000 
     44 H          -1.2069   36.2921    1.5795 H         1 4001389     0.0000 
     45 H           0.0673   35.3163    0.8282 H         1 4001389     0.0000 
     46 H          -0.9053   37.2746   -0.5432 H         1 4001389     0.0000 
     47 H           0.8606   37.1464   -0.4723 H         1 4001389     0.0000 
     48 H          -0.8509   38.9363    1.2827 H         1 4001389     0.0000 
     49 H           1.3854   39.8955    1.9109 H         1 4001389     0.0000 
     50 H           2.1247   38.5135    1.0842 H         1 4001389     0.0000 
     51 H           1.8318   38.0769    3.4969 H         1 4001389     0.0000 
     52 H           0.0955   38.3938    3.3392 H         1 4001389     0.0000 
     53 H           7.6634   28.3308    5.7433 H         1 4001389     0.0000 
     54 H           9.8760   26.8750    7.1337 H         1 4001389     0.0000 
     55 H           9.4892   28.2999    4.4908 H         1 4001389     0.0000 
     56 H          10.7953   27.1199    4.6952 H         1 4001389     0.0000 
     57 H           7.0107   26.4620    4.7290 H         1 4001389     0.0000 
     58 H           6.1574   24.2884    3.9574 H         1 4001389     0.0000 
     59 H           7.3828   22.2277    4.5241 H         1 4001389     0.0000 
     60 H           9.4454   22.3537    5.8431 H         1 4001389     0.0000 
     61 H          10.3083   24.5198    6.6126 H         1 4001389     0.0000 
     62 H           0.1484   40.7661   -0.0008 H         1 4001389     0.0000 
     63 H           0.8956   39.7391   -0.9872 H         1 4001389     0.0000 
     64 H          -0.7102   39.8251   -0.9824 H         1 4001389     0.0000 
     65 H          11.6681   28.5286    6.5535 H         1 4001389     0.0000 
     66 H          11.5803   29.4137    5.2137 H         1 4001389     0.0000 
     67 H          10.4809   29.5981    6.3728 H         1 4001389     0.0000 
@<TRIPOS>BOND
     1    2    1 2    
     2    4    1 1    
     3    9    1 1    
     4    3    2 1    
     5    5    3 1    
     6   37    3 1    
     7    5    4 2    
     8    8    4 1    
     9    6    5 1    
    10    7    6 2    
    11   38    6 1    
    12    8    7 1    
    13   25    7 1    
    14   10    9 am   
    15   39    9 1    
    16   11   10 1    
    17   12   10 2    
    18   13   11 ar   
    19   17   11 ar   
    20   14   13 ar   
    21   40   13 1    
    22   15   14 ar   
    23   41   14 1    
    24   16   15 ar   
    25   18   15 1    
    26   17   16 ar   
    27   42   16 1    
    28   43   17 1    
    29   19   18 1    
    30   23   18 1    
    31   20   19 1    
    32   44   19 1    
    33   45   19 1    
    34   21   20 1    
    35   46   20 1    
    36   47   20 1    
    37   22   21 1    
    38   24   21 1    
    39   48   21 1    
    40   23   22 1    
    41   49   22 1    
    42   50   22 1    
    43   51   23 1    
    44   52   23 1    
    45   62   24 1    
    46   63   24 1    
    47   64   24 1    
    48   26   25 2    
    49   27   25 am   
    50   28   27 1    
    51   53   27 1    
    52   29   28 1    
    53   30   28 1    
    54   54   28 1    
    55   31   29 ar   
    56   35   29 ar   
    57   36   30 1    
    58   55   30 1    
    59   56   30 1    
    60   32   31 ar   
    61   57   31 1    
    62   33   32 ar   
    63   58   32 1    
    64   34   33 ar   
    65   59   33 1    
    66   35   34 ar   
    67   60   34 1    
    68   61   35 1    
    69   65   36 1    
    70   66   36 1    
    71   67   36 1    
@<TRIPOS>SUBSTRUCTURE
     1 4001389     1 GROUP   
@<TRIPOS>SET

