#    Name: 3h5b_031_1_INTS_M
#    Modification time : Tue Mar 25 13:37:32 2014

@<TRIPOS>MOLECULE
3h5b_031_1_INTS_M
   98     0     9     0     0
SMALL
NO_CHARGES


@<TRIPOS>ATOM
      1 N          20.7535   30.4200   14.9380 N.am      2 SEC2        0.0000 
      2 N          21.5470   28.9820   14.7080 N.am      8 SEL2        0.0000 
      3 N          19.9600   31.8580   15.1680 N.am      5 SEP2        0.0000 
      4 CA         22.2890   30.3005   16.4625 C.3       3 GLC5        0.0000 
      5 CA         22.8840   28.9610   15.1590 C.3       9 GLL5        0.0000 
      6 CA         21.6940   31.6400   17.7660 C.3       6 GLP5        0.0000 
      7 CA         22.0620   30.4275   14.1145 C.3       3 GLC5        0.0000 
      8 CA         21.2400   31.8940   13.0700 C.3       6 GLP5        0.0000 
      9 CA         23.7305   28.1190   13.5605 C.3       3 GLC5        0.0000 
     10 CA         24.5770   27.2770   11.9620 C.3       6 GLP5        0.0000 
     11 CA         21.0475   29.8635   14.0110 C.3       3 GLC5        0.0000 
     12 CA         20.8550   27.8330   14.9520 C.3       9 GLL5        0.0000 
     13 CA         21.4060   26.9545   13.0175 C.3       3 GLC5        0.0000 
     14 CA         21.9570   26.0760   11.0830 C.3       6 GLP5        0.0000 
     15 CA         22.7920   26.2890   13.9510 C.3       3 GLC5        0.0000 
     16 CA         21.4440   26.6840   15.5070 C.3       9 GLL5        0.0000 
     17 CA         24.1400   25.8940   12.3950 C.3       6 GLP5        0.0000 
     18 CA         17.0305   26.1325   13.6740 C.3       3 GLC5        0.0000 
     19 CA         18.7290   26.6930   14.8510 C.3       9 GLL5        0.0000 
     20 CA         15.3320   25.5720   12.4970 C.3       6 GLP5        0.0000 
     21 CA         18.0250   25.8350   21.6555 C.3       3 GLC5        0.0000 
     22 CA         17.9110   24.6120   19.7970 C.3       9 GLL5        0.0000 
     23 CA         18.1390   27.0580   23.5140 C.3       6 GLP5        0.0000 
     24 O          18.3110   26.4825   20.3320 O.2       1 ALC1        0.0000 
     25 O          18.8440   25.2010   20.7640 O.2       7 ALL1        0.0000 
     26 O          17.7780   27.7640   19.9000 O.2       4 ALP1        0.0000 
     27 CA         20.7605   21.4270   21.1810 C.3       3 GLC5        0.0000 
     28 CA         19.2480   22.9240   20.8500 C.3       9 GLL5        0.0000 
     29 CA         22.2730   19.9300   21.5120 C.3       6 GLP5        0.0000 
     30 CA         16.4730   27.1715   16.7865 C.3       3 GLC5        0.0000 
     31 CA         16.2980   25.1580   17.2960 C.3       9 GLL5        0.0000 
     32 CA         16.6480   29.1850   16.2770 C.3       6 GLP5        0.0000 
     33 N          13.6360   26.4165   18.3485 N.am      2 SEC2        0.0000 
     34 N          14.0630   25.0880   18.2040 N.am      8 SEL2        0.0000 
     35 N          13.2090   27.7450   18.4930 N.am      5 SEP2        0.0000 
     36 O          13.6790   25.5870   19.4280 O.2       1 ALC1        0.0000 
     37 O          14.0630   25.0880   18.2040 O.2       7 ALL1        0.0000 
     38 O          13.2950   26.0860   20.6520 O.2       4 ALP1        0.0000 
     39 O          14.4180   24.8230   19.7870 O.2       1 ALC1        0.0000 
     40 O          14.7730   24.5580   21.3700 O.2       4 ALP1        0.0000 
     41 O          12.5120   22.7550   17.7380 O.2       1 ALC1        0.0000 
     42 O          13.9640   22.2030   17.7290 O.2       7 ALL1        0.0000 
     43 O          11.0600   23.3070   17.7470 O.2       4 ALP1        0.0000 
     44 CA         15.0590   17.9865   16.5305 C.3       3 GLC5        0.0000 
     45 CA         13.6530   18.1000   17.9050 C.3       9 GLL5        0.0000 
     46 CA         16.4650   17.8730   15.1560 C.3       6 GLP5        0.0000 
     47 CA         15.5050   18.6500   19.9870 C.3       3 GLC5        0.0000 
     48 CA         13.7110   18.9770   19.1450 C.3       9 GLL5        0.0000 
     49 CA         17.2990   18.3230   20.8290 C.3       6 GLP5        0.0000 
     50 CA         14.5645   19.9715   20.9180 C.3       3 GLC5        0.0000 
     51 CA         15.4180   20.9660   22.6910 C.3       6 GLP5        0.0000 
     52 CA         11.1635   17.7345   21.5965 C.3       3 GLC5        0.0000 
     53 CA         12.5300   18.4780   20.0200 C.3       9 GLL5        0.0000 
     54 CA          9.7970   16.9910   23.1730 C.3       6 GLP5        0.0000 
     55 CA         13.5070   17.8475   21.8860 C.3       3 GLC5        0.0000 
     56 CA         14.4840   17.2170   23.7520 C.3       6 GLP5        0.0000 
     57 CA         13.6815   16.6680   20.4530 C.3       3 GLC5        0.0000 
     58 CA         14.8330   14.8580   20.8860 C.3       6 GLP5        0.0000 
     59 CA          9.4055   18.5650   19.3930 C.3       3 GLC5        0.0000 
     60 CA         11.4580   18.0630   19.0030 C.3       9 GLL5        0.0000 
     61 CA          7.3530   19.0670   19.7830 C.3       6 GLP5        0.0000 
     62 N           9.8675   19.9935   19.4270 N.am      2 SEC2        0.0000 
     63 N          10.6900   19.1950   18.5770 N.am      8 SEL2        0.0000 
     64 N           9.0450   20.7920   20.2770 N.am      5 SEP2        0.0000 
     65 CA         10.8455   20.9230   18.7805 C.3       3 GLC5        0.0000 
     66 CA         10.8060   19.4370   17.1880 C.3       9 GLL5        0.0000 
     67 CA         10.8850   22.4090   20.3730 C.3       6 GLP5        0.0000 
     68 CA          9.0795   19.2520   18.4855 C.3       3 GLC5        0.0000 
     69 CA         12.0780   24.3735   15.1565 C.3       3 GLC5        0.0000 
     70 CA         14.0950   23.5800   15.7550 C.3       9 GLL5        0.0000 
     71 CA         10.0610   25.1670   14.5580 C.3       6 GLP5        0.0000 
     72 CA         11.2685   23.5450   14.6535 C.3       3 GLC5        0.0000 
     73 CA         12.4760   21.9230   14.7490 C.3       9 GLL5        0.0000 
     74 CA         17.8872   28.2157   15.4902 C.3       3 GLC5        0.0000 
     75 CA         18.9953   27.6628   12.7942 C.3       3 GLC5        0.0000 
     76 CA         18.8640   28.0790   10.8850 C.3       6 GLP5        0.0000 
     77 CA         19.2795   24.9199   13.5934 C.3       3 GLC5        0.0000 
     78 CA         19.2100   23.7150   11.9800 C.3       6 GLP5        0.0000 
     79 CA         17.8042   23.0128   22.2858 C.3       3 GLC5        0.0000 
     80 CA         17.8710   23.1410   20.1870 C.3       9 GLL5        0.0000 
     81 CA         17.0490   22.9930   24.0530 C.3       6 GLP5        0.0000 
     82 CA         13.1470   15.8443   18.4605 C.3       3 GLC5        0.0000 
     83 CA         13.3560   13.8380   19.0820 C.3       6 GLP5        0.0000 
     84 CA         12.4932   20.5187   20.5562 C.3       3 GLC5        0.0000 
     85 CA         11.8660   22.3100   21.5300 C.3       6 GLP5        0.0000 
     86 CA         12.3682   22.1085   12.7673 C.3       3 GLC5        0.0000 
     87 CA         12.4390   22.8530   11.1600 C.3       6 GLP5        0.0000 
     88 CA         14.4195   19.7623   11.6627 C.3       3 GLC5        0.0000 
     89 CA         13.1410   20.1680   13.3110 C.3       9 GLL5        0.0000 
     90 CA         15.0400   19.1380    9.9740 C.3       6 GLP5        0.0000 
     91 CA         13.1190   21.6197   12.2557 C.3       3 GLC5        0.0000 
     92 CA         14.4570   20.6050   13.3920 C.3       9 GLL5        0.0000 
     93 CA         16.5115   20.6038   13.2867 C.3       3 GLC5        0.0000 
     94 CA         18.4040   20.0420   12.7920 C.3       6 GLP5        0.0000 
     95 CA         13.3640   22.4525   12.8360 C.3       3 GLC5        0.0000 
     96 CA         14.7810   21.7260   14.1710 C.3       9 GLL5        0.0000 
     97 CA         14.8477   23.9623   13.6173 C.3       3 GLC5        0.0000 
     98 CA         15.3775   19.4646   14.4586 C.3       3 GLC5        0.0000 
@<TRIPOS>BOND
@<TRIPOS>SUBSTRUCTURE
     1 ALC1       24 GROUP        1 X    ALC  0     ROOT ALC X 1
     2 SEC2        1 GROUP        1 X    SEC  0     **** SEC X 2
     3 GLC5        4 GROUP        1 X    GLC  0     **** GLC X 6
     4 ALP1       26 GROUP        1 Y    ALP  0     ROOT ALP Y 8
     5 SEP2        3 GROUP        1 Y    SEP  0     **** SEP Y 9
     6 GLP5        6 GROUP        1 Y    GLP  0     **** GLP Y 13
     7 ALL1       25 GROUP        1 Z    ALL  0     ROOT ALL Z 15
     8 SEL2        2 GROUP        1 Z    SEL  0     **** SEL Z 16
     9 GLL5        5 GROUP        1 Z    GLL  0     **** GLL Z 20
@<TRIPOS>SET

