#    Name: 3h5b_031_1_ligand
#    Modification time : Tue Mar 25 13:37:32 2014

@<TRIPOS>MOLECULE
3h5b_031_1_ligand
   81    85     1     0     0
SMALL
NO_CHARGES


@<TRIPOS>ATOM
      1 O39        21.5470   28.9820   14.7080 O.3       1 031404      0.0000 
      2 C40        22.8840   28.9610   15.1590 C.3       1 031404      0.0000 
      3 C2         20.8550   27.8330   14.9520 C.ar      1 031404      0.0000 
      4 C3         21.4440   26.6840   15.5070 C.ar      1 031404      0.0000 
      5 C4         20.6510   25.5490   15.6950 C.ar      1 031404      0.0000 
      6 C5         19.2870   25.5640   15.4300 C.ar      1 031404      0.0000 
      7 C6         18.7290   26.6930   14.8510 C.ar      1 031404      0.0000 
      8 C7         19.5240   27.8000   14.5560 C.ar      1 031404      0.0000 
      9 S8         18.2620   24.1970   15.8630 S.o2      1 031404      0.0000 
     10 O9         17.1620   24.0810   14.8850 O.2       1 031404      0.0000 
     11 O10        19.1670   23.0480   16.1090 O.2       1 031404      0.0000 
     12 N11        17.5700   24.4760   17.3270 N.pl3     1 031404      0.0000 
     13 C12        18.4750   24.8170   18.3980 C.3       1 031404      0.0000 
     14 C13        17.9110   24.6120   19.7970 C.3       1 031404      0.0000 
     15 C14        17.8710   23.1410   20.1870 C.3       1 031404      0.0000 
     16 N15        18.8440   25.2010   20.7640 N.am      1 031404      0.0000 
     17 C45        19.6820   24.3150   21.2430 C.2       1 031404      0.0000 
     18 O46        20.6460   24.6160   21.9170 O.2       1 031404      0.0000 
     19 C47        19.2480   22.9240   20.8500 C.3       1 031404      0.0000 
     20 C16        16.2980   25.1580   17.2960 C.3       1 031404      0.0000 
     21 C17        15.2210   24.2770   17.9280 C.3       1 031404      0.0000 
     22 O18        14.0630   25.0880   18.2040 O.3       1 031404      0.0000 
     23 C19        14.8240   23.1250   17.0070 C.3       1 031404      0.0000 
     24 N20        13.9640   22.2030   17.7290 N.am      1 031404      0.0000 
     25 C21        14.3420   21.0310   18.1980 C.2       1 031404      0.0000 
     26 O22        15.5090   20.5780   18.0790 O.2       1 031404      0.0000 
     27 O23        13.3520   20.3360   18.8400 O.3       1 031404      0.0000 
     28 C24        13.6530   18.1000   17.9050 C.3       1 031404      0.0000 
     29 C25        13.7110   18.9770   19.1450 C.3       1 031404      0.0000 
     30 C26        12.5300   18.4780   20.0200 C.3       1 031404      0.0000 
     31 C27        11.4580   18.0630   19.0030 C.3       1 031404      0.0000 
     32 O28        10.6900   19.1950   18.5770 O.3       1 031404      0.0000 
     33 C29        10.8060   19.4370   17.1880 C.3       1 031404      0.0000 
     34 C30        11.4520   18.2060   16.5930 C.3       1 031404      0.0000 
     35 C31        12.2230   17.6010   17.7730 C.3       1 031404      0.0000 
     36 C32        14.0950   23.5800   15.7550 C.3       1 031404      0.0000 
     37 C33        12.4760   21.9230   14.7490 C.ar      1 031404      0.0000 
     38 C34        12.1190   20.8050   14.0000 C.ar      1 031404      0.0000 
     39 C35        13.1410   20.1680   13.3110 C.ar      1 031404      0.0000 
     40 C36        14.4570   20.6050   13.3920 C.ar      1 031404      0.0000 
     41 C37        14.7810   21.7260   14.1710 C.ar      1 031404      0.0000 
     42 C38        13.7970   22.3780   14.8530 C.ar      1 031404      0.0000 
     43 H          22.4259   26.6824   15.7648 H         1 031404      0.0000 
     44 H          21.0940   24.6763   16.0406 H         1 031404      0.0000 
     45 H          17.7211   26.7181   14.6358 H         1 031404      0.0000 
     46 H          19.1200   28.5960   14.0418 H         1 031404      0.0000 
     47 H          18.7975   25.8823   18.3176 H         1 031404      0.0000 
     48 H          19.4160   24.2218   18.3237 H         1 031404      0.0000 
     49 H          16.9597   25.0346   19.8918 H         1 031404      0.0000 
     50 H          17.7983   22.5364   19.3248 H         1 031404      0.0000 
     51 H          17.1095   22.9722   20.8982 H         1 031404      0.0000 
     52 H          18.7799   26.1542   20.9711 H         1 031404      0.0000 
     53 H          19.9166   22.5135   20.1360 H         1 031404      0.0000 
     54 H          19.1274   22.3150   21.7101 H         1 031404      0.0000 
     55 H          15.9909   25.3838   16.2699 H         1 031404      0.0000 
     56 H          16.3356   26.0988   17.8542 H         1 031404      0.0000 
     57 H          15.6172   23.8620   18.8431 H         1 031404      0.0000 
     58 H          15.7309   22.6046   16.7026 H         1 031404      0.0000 
     59 H          12.9645   22.5490   17.8614 H         1 031404      0.0000 
     60 H          14.3185   17.2633   18.0221 H         1 031404      0.0000 
     61 H          13.9147   18.6808   17.0384 H         1 031404      0.0000 
     62 H          14.5808   18.8617   19.6621 H         1 031404      0.0000 
     63 H          12.1739   19.2774   20.6150 H         1 031404      0.0000 
     64 H          12.8418   17.6364   20.5806 H         1 031404      0.0000 
     65 H          10.8907   17.2784   19.3731 H         1 031404      0.0000 
     66 H          11.4400   20.2916   16.9716 H         1 031404      0.0000 
     67 H           9.8394   19.5765   16.7133 H         1 031404      0.0000 
     68 H          12.1343   18.4807   15.8295 H         1 031404      0.0000 
     69 H          10.7104   17.5215   16.2681 H         1 031404      0.0000 
     70 H          12.1844   16.5490   17.7281 H         1 031404      0.0000 
     71 H          14.7127   24.2883   15.2102 H         1 031404      0.0000 
     72 H          13.1592   24.0576   16.0309 H         1 031404      0.0000 
     73 H          11.7278   22.4488   15.2578 H         1 031404      0.0000 
     74 H          11.1698   20.4782   13.9619 H         1 031404      0.0000 
     75 H          12.9168   19.3424   12.7187 H         1 031404      0.0000 
     76 H          15.1997   20.1102   12.8824 H         1 031404      0.0000 
     77 H          15.7588   22.0394   14.2155 H         1 031404      0.0000 
     78 H          23.4109   28.2302   14.7251 H         1 031404      0.0000 
     79 H          23.3562   29.8200   14.9611 H         1 031404      0.0000 
     80 H          22.9405   28.8163   16.1469 H         1 031404      0.0000 
     81 H          13.9590   25.0606   19.1981 H         1 031404      0.0000 
@<TRIPOS>BOND
     1    2    1 1    
     2    3    1 1    
     3   78    2 1    
     4   79    2 1    
     5   80    2 1    
     6    4    3 ar   
     7    8    3 ar   
     8    5    4 ar   
     9   43    4 1    
    10    6    5 ar   
    11   44    5 1    
    12    7    6 ar   
    13    9    6 1    
    14    8    7 ar   
    15   45    7 1    
    16   46    8 1    
    17   10    9 2    
    18   11    9 2    
    19   12    9 1    
    20   13   12 1    
    21   20   12 1    
    22   14   13 1    
    23   47   13 1    
    24   48   13 1    
    25   15   14 1    
    26   16   14 1    
    27   49   14 1    
    28   19   15 1    
    29   50   15 1    
    30   51   15 1    
    31   17   16 am   
    32   52   16 1    
    33   18   17 2    
    34   19   17 1    
    35   53   19 1    
    36   54   19 1    
    37   21   20 1    
    38   55   20 1    
    39   56   20 1    
    40   22   21 1    
    41   23   21 1    
    42   57   21 1    
    43   81   22 1    
    44   24   23 1    
    45   36   23 1    
    46   58   23 1    
    47   25   24 am   
    48   59   24 1    
    49   26   25 2    
    50   27   25 1    
    51   29   27 1    
    52   29   28 1    
    53   35   28 1    
    54   60   28 1    
    55   61   28 1    
    56   30   29 1    
    57   62   29 1    
    58   31   30 1    
    59   63   30 1    
    60   64   30 1    
    61   32   31 1    
    62   35   31 1    
    63   65   31 1    
    64   33   32 1    
    65   34   33 1    
    66   66   33 1    
    67   67   33 1    
    68   35   34 1    
    69   68   34 1    
    70   69   34 1    
    71   70   35 1    
    72   42   36 1    
    73   71   36 1    
    74   72   36 1    
    75   38   37 ar   
    76   42   37 ar   
    77   73   37 1    
    78   39   38 ar   
    79   74   38 1    
    80   40   39 ar   
    81   75   39 1    
    82   41   40 ar   
    83   76   40 1    
    84   42   41 ar   
    85   77   41 1    
@<TRIPOS>SUBSTRUCTURE
     1 031404      1 GROUP   
@<TRIPOS>SET

