#    Name: 2fzc_EOP_1_INTS_M
#    Modification time : Tue Mar 25 13:15:55 2014

@<TRIPOS>MOLECULE
2fzc_EOP_1_INTS_M
   39     0     9     0     0
SMALL
NO_CHARGES


@<TRIPOS>ATOM
      1 NZ         44.0435   27.7375   19.1885 N.4       2 LYC4        0.0000 
      2 NZ         43.9000   28.8450   19.8860 N.4       8 LYL4        0.0000 
      3 NZ         45.2100   25.9460   18.0020 N.4       5 LYP4        0.0000 
      4 N          44.0435   27.7375   19.1885 N.am      1 SEC2        0.0000 
      5 N          43.9000   28.8450   19.8860 N.am      7 SEL2        0.0000 
      6 N          44.1870   26.6300   18.4910 N.am      4 SEP2        0.0000 
      7 NZ         44.4825   32.5445   18.9655 N.4       2 LYC4        0.0000 
      8 NZ         44.9990   31.1810   19.9280 N.4       8 LYL4        0.0000 
      9 NZ         43.9660   33.9080   18.0030 N.4       5 LYP4        0.0000 
     10 NZ         46.4055   27.6055   18.9555 N.4       2 LYC4        0.0000 
     11 NZ         46.3990   29.1130   19.3640 N.4       8 LYL4        0.0000 
     12 N          46.4055   27.6055   18.9555 N.am      1 SEC2        0.0000 
     13 N          46.3990   29.1130   19.3640 N.am      7 SEL2        0.0000 
     14 N          46.4120   26.0980   18.5470 N.am      4 SEP2        0.0000 
     15 CA         45.9795   31.3225   17.6115 C.3       3 GLC5        0.0000 
     16 CA         44.6130   29.9730   17.4830 C.3       9 GLL5        0.0000 
     17 CA         47.3460   32.6720   17.7400 C.3       6 GLP5        0.0000 
     18 CA         45.0925   30.8660   15.7610 C.3       3 GLC5        0.0000 
     19 CA         45.5720   31.7590   14.0390 C.3       6 GLP5        0.0000 
     20 N          43.0105   32.3685   16.8425 N.am      1 SEC2        0.0000 
     21 N          42.5070   30.9910   16.9300 N.am      7 SEL2        0.0000 
     22 N          43.5140   33.7460   16.7550 N.am      4 SEP2        0.0000 
     23 N          43.0850   32.0175   17.9395 N.am      1 SEC2        0.0000 
     24 N          43.6630   33.0440   18.9490 N.am      4 SEP2        0.0000 
     25 N          41.6575   31.8530   15.9380 N.am      1 SEC2        0.0000 
     26 N          40.8080   32.7150   14.9460 N.am      4 SEP2        0.0000 
     27 N          38.7330   33.0045   19.1290 N.am      1 SEC2        0.0000 
     28 N          38.8590   31.5390   19.2290 N.am      7 SEL2        0.0000 
     29 N          38.6070   34.4700   19.0290 N.am      4 SEP2        0.0000 
     30 N          39.8605   32.8125   19.0400 N.am      1 SEC2        0.0000 
     31 N          40.8620   34.0860   18.8510 N.am      4 SEP2        0.0000 
     32 NZ         42.8375   32.0515   19.2605 N.4       2 LYC4        0.0000 
     33 NZ         42.0120   31.0590   19.5720 N.4       8 LYL4        0.0000 
     34 N          42.8375   32.0515   19.2605 N.am      1 SEC2        0.0000 
     35 N          42.0120   31.0590   19.5720 N.am      7 SEL2        0.0000 
     36 N          41.4370   32.5725   19.2115 N.am      1 SEC2        0.0000 
     37 CA         39.2207   27.3690   16.8180 C.3       3 GLC5        0.0000 
     38 CA         40.2370   28.4380   17.9790 C.3       9 GLL5        0.0000 
     39 CA         37.7450   26.2800   16.2680 C.3       6 GLP5        0.0000 
@<TRIPOS>BOND
@<TRIPOS>SUBSTRUCTURE
     1 SEC2        4 GROUP        1 X    SEC  0     ROOT SEC X 2
     2 LYC4        1 GROUP        1 X    LYC  0     **** LYC X 4
     3 GLC5       15 GROUP        1 X    GLC  0     **** GLC X 6
     4 SEP2        6 GROUP        1 Y    SEP  0     ROOT SEP Y 9
     5 LYP4        3 GROUP        1 Y    LYP  0     **** LYP Y 11
     6 GLP5       17 GROUP        1 Y    GLP  0     **** GLP Y 13
     7 SEL2        5 GROUP        1 Z    SEL  0     ROOT SEL Z 16
     8 LYL4        2 GROUP        1 Z    LYL  0     **** LYL Z 18
     9 GLL5       16 GROUP        1 Z    GLL  0     **** GLL Z 20
@<TRIPOS>SET

