#    Name: 2fzc_EOP_1_ligand
#    Modification time : Tue Mar 25 13:15:55 2014

@<TRIPOS>MOLECULE
2fzc_EOP_1_ligand
   28    27     1     0     0
SMALL
NO_CHARGES


@<TRIPOS>ATOM
      1 OAD        43.9000   28.8450   19.8860 O.co2     1 EOP811      0.0000 
      2 PAR        45.0640   29.7360   19.2190 P.3       1 EOP811      0.0000 
      3 OAH        44.9990   31.1810   19.9280 O.co2     1 EOP811      0.0000 
      4 OAG        46.3990   29.1130   19.3640 O.co2     1 EOP811      0.0000 
      5 CAL        44.6130   29.9730   17.4830 C.3       1 EOP811      0.0000 
      6 CAP        43.1100   29.9490   17.1570 C.2       1 EOP811      0.0000 
      7 OAB        42.5070   30.9910   16.9300 O.2       1 EOP811      0.0000 
      8 NAN        42.5660   28.7380   17.1040 N.am      1 EOP811      0.0000 
      9 CAJ        41.1560   28.4780   16.7570 C.3       1 EOP811      0.0000 
     10 CAI        40.2370   28.4380   17.9790 C.3       1 EOP811      0.0000 
     11 NAM        39.5550   29.7360   18.0740 N.am      1 EOP811      0.0000 
     12 CAO        39.3290   30.4010   19.2060 C.2       1 EOP811      0.0000 
     13 OAA        38.8590   31.5390   19.2290 O.2       1 EOP811      0.0000 
     14 CAK        39.8080   29.7370   20.4980 C.3       1 EOP811      0.0000 
     15 PAQ        41.4480   30.3720   20.9160 P.3       1 EOP811      0.0000 
     16 OAF        41.1920   31.5600   21.9730 O.co2     1 EOP811      0.0000 
     17 OAE        42.0120   31.0590   19.5720 O.co2     1 EOP811      0.0000 
     18 OAC        42.3530   29.3250   21.4400 O.co2     1 EOP811      0.0000 
     19 H          45.1656   29.1768   16.9874 H         1 EOP811      0.0000 
     20 H          45.0810   30.9274   17.2483 H         1 EOP811      0.0000 
     21 H          43.1290   27.8694   17.3134 H         1 EOP811      0.0000 
     22 H          41.0638   27.5145   16.2261 H         1 EOP811      0.0000 
     23 H          40.7808   29.2568   16.0703 H         1 EOP811      0.0000 
     24 H          40.8411   28.2517   18.8587 H         1 EOP811      0.0000 
     25 H          39.5236   27.6335   17.8476 H         1 EOP811      0.0000 
     26 H          39.2385   30.1295   17.1388 H         1 EOP811      0.0000 
     27 H          39.9797   28.6980   20.4024 H         1 EOP811      0.0000 
     28 H          39.2351   29.9992   21.3472 H         1 EOP811      0.0000 
@<TRIPOS>BOND
     1    2    1 ar   
     2    3    2 ar   
     3    4    2 ar   
     4    5    2 1    
     5    6    5 1    
     6   19    5 1    
     7   20    5 1    
     8    7    6 2    
     9    8    6 am   
    10    9    8 1    
    11   21    8 1    
    12   10    9 1    
    13   22    9 1    
    14   23    9 1    
    15   11   10 1    
    16   24   10 1    
    17   25   10 1    
    18   12   11 am   
    19   26   11 1    
    20   13   12 2    
    21   14   12 1    
    22   15   14 1    
    23   27   14 1    
    24   28   14 1    
    25   16   15 ar   
    26   17   15 ar   
    27   18   15 ar   
@<TRIPOS>SUBSTRUCTURE
     1 EOP811      1 GROUP   
@<TRIPOS>SET

