#    Name: 1z5a_ADP_2_INTS_M
#    Modification time : Mon Apr  7 16:26:57 2014

@<TRIPOS>MOLECULE
1z5a_ADP_2_INTS_M
   75     0    15     0     0
SMALL
NO_CHARGES


@<TRIPOS>ATOM
      1 NZ         17.7200   17.7140   76.1660 N.4       3 LYC4        0.0000 
      2 NZ         17.5130   19.1290   76.2560 N.4      13 LYL4        0.0000 
      3 NZ         17.9270   16.2990   76.0760 N.4       8 LYP4        0.0000 
      4 Zn         18.2725   19.3400   76.7255 Zn        4 ZIC7        0.0000 
      5 Zn         17.5130   19.1290   76.2560 Zn       14 ZIL7        0.0000 
      6 Zn         19.0320   19.5510   77.1950 Zn        9 ZIP7        0.0000 
      7 N          17.7200   17.7140   76.1660 N.am      2 SEC2        0.0000 
      8 N          17.5130   19.1290   76.2560 N.am     12 SEL2        0.0000 
      9 N          17.9270   16.2990   76.0760 N.am      7 SEP2        0.0000 
     10 N          14.5575   19.9070   77.4290 N.am      2 SEC2        0.0000 
     11 N          15.4790   20.5700   76.4530 N.am     12 SEL2        0.0000 
     12 N          13.6360   19.2440   78.4050 N.am      7 SEP2        0.0000 
     13 N          14.7420   21.6475   75.8610 N.am      2 SEC2        0.0000 
     14 N          14.0050   22.7250   75.2690 N.am      7 SEP2        0.0000 
     15 N          14.7295   19.2410   73.6545 N.am      2 SEC2        0.0000 
     16 N          15.8800   19.2780   74.3430 N.am     12 SEL2        0.0000 
     17 N          13.5790   19.2040   72.9660 N.am      7 SEP2        0.0000 
     18 NZ         18.3655   23.2125   72.9690 N.4       3 LYC4        0.0000 
     19 NZ         19.0150   22.7450   74.0500 N.4      13 LYL4        0.0000 
     20 NZ         17.7160   23.6800   71.8880 N.4       8 LYP4        0.0000 
     21 N          20.0005   23.3560   75.2565 N.am      2 SEC2        0.0000 
     22 N          19.0150   22.7450   74.0500 N.am     12 SEL2        0.0000 
     23 N          20.9860   23.9670   76.4630 N.am      7 SEP2        0.0000 
     24 N          18.3655   23.2125   72.9690 N.am      2 SEC2        0.0000 
     25 N          17.7160   23.6800   71.8880 N.am      7 SEP2        0.0000 
     26 Zn         19.3360   20.3510   76.5095 Zn        4 ZIC7        0.0000 
     27 Zn         19.6400   21.1510   75.8240 Zn       14 ZIL7        0.0000 
     28 N          20.9400   20.3170   75.8675 N.am      2 SEC2        0.0000 
     29 N          19.6400   21.1510   75.8240 N.am     12 SEL2        0.0000 
     30 N          22.2400   19.4830   75.9110 N.am      7 SEP2        0.0000 
     31 N          20.3130   22.5590   76.1435 N.am      2 SEC2        0.0000 
     32 CA         18.7065   22.4080   71.7895 C.3       5 GLC5        0.0000 
     33 CA         18.5570   20.4240   72.2080 C.3      15 GLL5        0.0000 
     34 CA         18.8560   24.3920   71.3710 C.3      10 GLP5        0.0000 
     35 CA         18.1205   18.1205   69.5385 C.3       5 GLC5        0.0000 
     36 CA         18.5380   19.0920   71.5000 C.3      15 GLL5        0.0000 
     37 CA         17.7030   17.1490   67.5770 C.3      10 GLP5        0.0000 
     38 CA         19.5715   19.7065   69.7115 C.3       5 GLC5        0.0000 
     39 CA         20.6050   20.3210   67.9230 C.3      10 GLP5        0.0000 
     40 N          15.5610   17.7480   71.5165 N.am      2 SEC2        0.0000 
     41 N          16.7410   17.8250   72.4390 N.am     12 SEL2        0.0000 
     42 N          14.3810   17.6710   70.5940 N.am      7 SEP2        0.0000 
     43 O          15.1600   18.5145   72.7025 O.2       1 ALC1        0.0000 
     44 O          16.7410   17.8250   72.4390 O.2      11 ALL1        0.0000 
     45 O          13.5790   19.2040   72.9660 O.2       6 ALP1        0.0000 
     46 O          16.8535   15.5820   70.8465 O.2       1 ALC1        0.0000 
     47 O          18.0270   16.1150   70.8980 O.2      11 ALL1        0.0000 
     48 O          15.6800   15.0490   70.7950 O.2       6 ALP1        0.0000 
     49 CA         21.4800   16.4295   69.7290 C.3       5 GLC5        0.0000 
     50 CA         20.0700   17.3610   71.1650 C.3      15 GLL5        0.0000 
     51 CA         22.8900   15.4980   68.2930 C.3      10 GLP5        0.0000 
     52 CA         20.3375   18.8410   69.5440 C.3       5 GLC5        0.0000 
     53 CA         23.2650   13.2710   73.4430 C.3       5 GLC5        0.0000 
     54 CA         24.1020   15.0560   72.9570 C.3      15 GLL5        0.0000 
     55 CA         22.4280   11.4860   73.9290 C.3      10 GLP5        0.0000 
     56 CA         25.8670   14.6380   71.9765 C.3       5 GLC5        0.0000 
     57 CA         27.6320   14.2200   70.9960 C.3      10 GLP5        0.0000 
     58 O          26.1315   14.0885   74.2205 O.2       1 ALC1        0.0000 
     59 O          25.1910   15.1530   73.7610 O.2      11 ALL1        0.0000 
     60 O          27.0720   13.0240   74.6800 O.2       6 ALP1        0.0000 
     61 CA         22.5845   12.6535   72.7170 C.3       5 GLC5        0.0000 
     62 CA         22.7410   13.8210   71.5050 C.3      15 GLL5        0.0000 
     63 CA         22.8155   14.6595   69.8990 C.3       5 GLC5        0.0000 
     64 CA         16.4772   19.9160   71.3330 C.3       5 GLC5        0.0000 
     65 CA         14.4070   20.0740   70.8120 C.3      10 GLP5        0.0000 
     66 CA         17.6502   16.4778   73.7490 C.3       5 GLC5        0.0000 
     67 CA         18.1330   17.9780   72.4500 C.3      15 GLL5        0.0000 
     68 CA         16.8080   15.5840   75.3340 C.3      10 GLP5        0.0000 
     69 CA         18.5820   17.1060   69.5493 C.3       5 GLC5        0.0000 
     70 CA         18.8520   16.7650   71.8780 C.3      15 GLL5        0.0000 
     71 CA         23.1385   16.3813   74.6923 C.3       5 GLC5        0.0000 
     72 CA         23.1640   16.1990   72.7880 C.3      15 GLL5        0.0000 
     73 CA         22.6440   17.1350   76.5120 C.3      10 GLP5        0.0000 
     74 CA         23.4123   16.0141   70.6869 C.3       5 GLC5        0.0000 
     75 CA         24.0090   16.2240   68.9740 C.3      10 GLP5        0.0000 
@<TRIPOS>BOND
@<TRIPOS>SUBSTRUCTURE
     1 ALC1       43 GROUP        1 X    ALC  0     ROOT ALC X 1
     2 SEC2        7 GROUP        1 X    SEC  0     **** SEC X 2
     3 LYC4        1 GROUP        1 X    LYC  0     **** LYC X 4
     4 ZIC7        4 GROUP        1 X    ZIC  0     **** ZIC X 5
     5 GLC5       32 GROUP        1 X    GLC  0     **** GLC X 6
     6 ALP1       45 GROUP        1 Y    ALP  0     ROOT ALP Y 8
     7 SEP2        9 GROUP        1 Y    SEP  0     **** SEP Y 9
     8 LYP4        3 GROUP        1 Y    LYP  0     **** LYP Y 11
     9 ZIP7        6 GROUP        1 Y    ZIP  0     **** ZIP Y 12
    10 GLP5       34 GROUP        1 Y    GLP  0     **** GLP Y 13
    11 ALL1       44 GROUP        1 Z    ALL  0     ROOT ALL Z 15
    12 SEL2        8 GROUP        1 Z    SEL  0     **** SEL Z 16
    13 LYL4        2 GROUP        1 Z    LYL  0     **** LYL Z 18
    14 ZIL7        5 GROUP        1 Z    ZIL  0     **** ZIL Z 19
    15 GLL5       33 GROUP        1 Z    GLL  0     **** GLL Z 20
@<TRIPOS>SET

