#    Name: 1z5a_ADP_2_ligand
#    Modification time : Mon Apr  7 16:26:57 2014

@<TRIPOS>MOLECULE
1z5a_ADP_2_ligand
   39    41     1     0     0
SMALL
NO_CHARGES


@<TRIPOS>ATOM
      1 PB         16.4950   19.9430   75.5100 P.3       1 ADP2002     0.0000 
      2 O1B        17.5130   19.1290   76.2560 O.co2     1 ADP2002     0.0000 
      3 O2B        15.4790   20.5700   76.4530 O.co2     1 ADP2002     0.0000 
      4 O3B        15.8800   19.2780   74.3430 O.co2     1 ADP2002     0.0000 
      5 PA         18.7970   21.3860   74.6150 P.3       1 ADP2002     0.0000 
      6 O1A        19.0150   22.7450   74.0500 O.co2     1 ADP2002     0.0000 
      7 O2A        19.6400   21.1510   75.8240 O.co2     1 ADP2002     0.0000 
      8 O3A        17.2370   21.2100   74.9140 O.3       1 ADP2002     0.0000 
      9 O5'        19.1710   20.3010   73.4970 O.3       1 ADP2002     0.0000 
     10 C5'        18.5570   20.4240   72.2080 C.3       1 ADP2002     0.0000 
     11 C4'        18.5380   19.0920   71.5000 C.3       1 ADP2002     0.0000 
     12 O4'        19.8610   18.7610   71.0250 O.3       1 ADP2002     0.0000 
     13 C3'        18.1330   17.9780   72.4500 C.3       1 ADP2002     0.0000 
     14 O3'        16.7410   17.8250   72.4390 O.3       1 ADP2002     0.0000 
     15 C2'        18.8520   16.7650   71.8780 C.3       1 ADP2002     0.0000 
     16 O2'        18.0270   16.1150   70.8980 O.3       1 ADP2002     0.0000 
     17 C1'        20.0700   17.3610   71.1650 C.3       1 ADP2002     0.0000 
     18 N9         21.3120   17.1240   71.9300 N.pl3     1 ADP2002     0.0000 
     19 C8         21.9590   18.0050   72.7140 C.2       1 ADP2002     0.0000 
     20 N7         23.0830   17.4470   73.2420 N.2       1 ADP2002     0.0000 
     21 C5         23.1640   16.1990   72.7880 C.ar      1 ADP2002     0.0000 
     22 C6         24.1020   15.0560   72.9570 C.ar      1 ADP2002     0.0000 
     23 N6         25.1910   15.1530   73.7610 N.pl3     1 ADP2002     0.0000 
     24 N1         23.8270   13.9270   72.2920 N.ar      1 ADP2002     0.0000 
     25 C2         22.7410   13.8210   71.5050 C.ar      1 ADP2002     0.0000 
     26 N3         21.8370   14.8010   71.3350 N.ar      1 ADP2002     0.0000 
     27 C4         21.9980   15.9810   71.9270 C.ar      1 ADP2002     0.0000 
     28 H          19.0995   21.1426   71.5745 H         1 ADP2002     0.0000 
     29 H          17.5199   20.7834   72.2927 H         1 ADP2002     0.0000 
     30 H          17.8405   19.1194   70.6908 H         1 ADP2002     0.0000 
     31 H          18.5477   18.1950   73.4015 H         1 ADP2002     0.0000 
     32 H          19.1752   16.1463   72.6479 H         1 ADP2002     0.0000 
     33 H          20.1445   16.8894   70.1952 H         1 ADP2002     0.0000 
     34 H          21.6686   18.9242   72.8871 H         1 ADP2002     0.0000 
     35 H          25.8010   14.3607   73.7731 H         1 ADP2002     0.0000 
     36 H          25.2872   16.0082   74.2703 H         1 ADP2002     0.0000 
     37 H          22.5879   12.8989   70.9821 H         1 ADP2002     0.0000 
     38 H          16.3824   18.6950   72.7773 H         1 ADP2002     0.0000 
     39 H          17.1558   15.9515   71.3608 H         1 ADP2002     0.0000 
@<TRIPOS>BOND
     1    2    1 ar   
     2    3    1 ar   
     3    4    1 ar   
     4    8    1 1    
     5    6    5 ar   
     6    7    5 ar   
     7    8    5 1    
     8    9    5 1    
     9   10    9 1    
    10   11   10 1    
    11   28   10 1    
    12   29   10 1    
    13   12   11 1    
    14   13   11 1    
    15   30   11 1    
    16   17   12 1    
    17   14   13 1    
    18   15   13 1    
    19   31   13 1    
    20   38   14 1    
    21   16   15 1    
    22   17   15 1    
    23   32   15 1    
    24   39   16 1    
    25   18   17 1    
    26   33   17 1    
    27   19   18 1    
    28   27   18 1    
    29   20   19 2    
    30   34   19 1    
    31   21   20 1    
    32   22   21 ar   
    33   27   21 ar   
    34   23   22 1    
    35   24   22 ar   
    36   35   23 1    
    37   36   23 1    
    38   25   24 ar   
    39   26   25 ar   
    40   37   25 1    
    41   27   26 ar   
@<TRIPOS>SUBSTRUCTURE
     1 ADP2002     1 GROUP   
@<TRIPOS>SET

