#    Name: 2xx5_13N_1_INTS_M
#    Modification time : Tue Mar 25 07:02:36 2014

@<TRIPOS>MOLECULE
2xx5_13N_1_INTS_M
   64     0     6     0     0
SMALL
NO_CHARGES


@<TRIPOS>ATOM
      1 CA         17.5065   -3.9395    1.4015 C.3       2 GLC5        0.0000 
      2 CA         16.6050   -2.2540    0.8200 C.3       6 GLL5        0.0000 
      3 CA         18.4080   -5.6250    1.9830 C.3       4 GLP5        0.0000 
      4 CA         19.1605   -2.8455    0.9485 C.3       2 GLC5        0.0000 
      5 CA         17.6050   -2.2590   -0.1120 C.3       6 GLL5        0.0000 
      6 CA         20.7160   -3.4320    2.0090 C.3       4 GLP5        0.0000 
      7 CA         14.2690   -2.2560    0.4335 C.3       2 GLC5        0.0000 
      8 CA         14.7040   -1.1930    2.0300 C.3       6 GLL5        0.0000 
      9 CA         13.8340   -3.3190   -1.1630 C.3       4 GLP5        0.0000 
     10 CA         16.5550    0.1565    4.3420 C.3       2 GLC5        0.0000 
     11 CA         14.8350    1.5750    4.4840 C.3       6 GLL5        0.0000 
     12 CA         18.2750   -1.2620    4.2000 C.3       4 GLP5        0.0000 
     13 CA         13.7225    1.9740    9.4415 C.3       2 GLC5        0.0000 
     14 CA         13.7560    1.1390    7.3880 C.3       6 GLL5        0.0000 
     15 CA         13.6890    2.8090   11.4950 C.3       4 GLP5        0.0000 
     16 CA         15.5215    2.0650   10.0465 C.3       2 GLC5        0.0000 
     17 CA         15.8760    1.0920    8.3410 C.3       6 GLL5        0.0000 
     18 CA         15.1670    3.0380   11.7520 C.3       4 GLP5        0.0000 
     19 CA         18.7430    3.6160    8.3800 C.3       2 GLC5        0.0000 
     20 CA         18.0240    2.0770    8.0500 C.3       6 GLL5        0.0000 
     21 CA         19.4620    5.1550    8.7100 C.3       4 GLP5        0.0000 
     22 N          21.3975    1.8975    5.6345 N.am      1 SEC2        0.0000 
     23 N          20.1000    1.9960    6.1090 N.am      5 SEL2        0.0000 
     24 N          22.6950    1.7990    5.1600 N.am      3 SEP2        0.0000 
     25 CA         19.2580    4.3320    6.6900 C.3       2 GLC5        0.0000 
     26 CA         19.0540    3.5090    4.6700 C.3       6 GLL5        0.0000 
     27 CA         21.1585    3.1765    4.5140 C.3       2 GLC5        0.0000 
     28 CA         23.2630    2.8440    4.3580 C.3       4 GLP5        0.0000 
     29 CA         19.8750    7.1660    4.8630 C.3       2 GLC5        0.0000 
     30 CA         19.9680    5.4340    3.6420 C.3       6 GLL5        0.0000 
     31 CA         19.7820    8.8980    6.0840 C.3       4 GLP5        0.0000 
     32 CA         21.4090    4.0440    3.2730 C.3       2 GLC5        0.0000 
     33 CA         22.8500    2.6540    2.9040 C.3       4 GLP5        0.0000 
     34 CA         16.9695    3.8605   -0.3885 C.3       2 GLC5        0.0000 
     35 CA         17.2650    3.9730    1.2310 C.3       6 GLL5        0.0000 
     36 CA         16.6740    3.7480   -2.0080 C.3       4 GLP5        0.0000 
     37 CA         17.6900   -1.7592    2.2770 C.3       2 GLC5        0.0000 
     38 CA         16.1005   -2.4497   -0.6700 C.3       2 GLC5        0.0000 
     39 CA         15.0960   -2.6430   -1.6940 C.3       4 GLP5        0.0000 
     40 CA         16.2500   -1.6325   -1.2385 C.3       2 GLC5        0.0000 
     41 CA         17.8120   -1.1660   -0.8690 C.3       6 GLL5        0.0000 
     42 CA         19.1945    0.1835   -1.4275 C.3       2 GLC5        0.0000 
     43 CA         20.9850    0.9890   -2.0720 C.3       4 GLP5        0.0000 
     44 CA         15.5015   -1.6252   -0.5415 C.3       2 GLC5        0.0000 
     45 CA         16.0070   -0.0570    0.2250 C.3       6 GLL5        0.0000 
     46 CA         16.7653   -1.2188    2.8567 C.3       2 GLC5        0.0000 
     47 CA         15.8070   -1.1580    0.9970 C.3       6 GLL5        0.0000 
     48 CA         14.7520   -2.3813    2.3961 C.3       2 GLC5        0.0000 
     49 CA         14.0490   -3.3130    3.3230 C.3       4 GLP5        0.0000 
     50 CA         18.3105   -0.0900    7.0013 C.3       2 GLC5        0.0000 
     51 CA         17.2200    0.8510    8.3490 C.3       6 GLL5        0.0000 
     52 CA         18.9990   -1.6440    5.8030 C.3       4 GLP5        0.0000 
     53 CA         18.2915    1.4586    9.7118 C.3       2 GLC5        0.0000 
     54 CA         19.2970    1.3930   11.2260 C.3       4 GLP5        0.0000 
     55 CA         17.9988    6.4147    3.2705 C.3       2 GLC5        0.0000 
     56 CA         19.1350    5.2350    2.5920 C.3       6 GLL5        0.0000 
     57 CA         16.4460    7.4950    3.4240 C.3       4 GLP5        0.0000 
     58 CA         20.4678    4.8507    1.5165 C.3       2 GLC5        0.0000 
     59 CA         21.3840    4.3670   -0.0840 C.3       4 GLP5        0.0000 
     60 CA         17.1067    5.7808    2.6632 C.3       2 GLC5        0.0000 
     61 CA         18.2700    4.1600    2.5740 C.3       6 GLL5        0.0000 
     62 CA         19.5757    4.2168    0.9092 C.3       2 GLC5        0.0000 
     63 CA         18.7873    1.1855    3.6549 C.3       2 GLC5        0.0000 
     64 CA         19.6300   -0.3820    3.4240 C.3       4 GLP5        0.0000 
@<TRIPOS>BOND
@<TRIPOS>SUBSTRUCTURE
     1 SEC2       22 GROUP        1 X    SEC  0     ROOT SEC X 2
     2 GLC5        1 GROUP        1 X    GLC  0     **** GLC X 6
     3 SEP2       24 GROUP        1 Y    SEP  0     ROOT SEP Y 9
     4 GLP5        3 GROUP        1 Y    GLP  0     **** GLP Y 13
     5 SEL2       23 GROUP        1 Z    SEL  0     ROOT SEL Z 16
     6 GLL5        2 GROUP        1 Z    GLL  0     **** GLL Z 20
@<TRIPOS>SET

