#    Name: 2xx5_13N_1_ligand
#    Modification time : Tue Mar 25 07:02:36 2014

@<TRIPOS>MOLECULE
2xx5_13N_1_ligand
   59    61     1     0     0
SMALL
NO_CHARGES


@<TRIPOS>ATOM
      1 CAL        16.6050   -2.2540    0.8200 C.ar      1 13N1215     0.0000 
      2 CAJ        17.6050   -2.2590   -0.1120 C.ar      1 13N1215     0.0000 
      3 CAI        17.8120   -1.1660   -0.8690 C.ar      1 13N1215     0.0000 
      4 CAK        16.9960   -0.0780   -0.6970 C.ar      1 13N1215     0.0000 
      5 CAM        16.0070   -0.0570    0.2250 C.ar      1 13N1215     0.0000 
      6 CBC        15.8070   -1.1580    0.9970 C.ar      1 13N1215     0.0000 
      7 CAT        14.7040   -1.1930    2.0300 C.3       1 13N1215     0.0000 
      8 NAW        15.0020   -0.2860    3.1120 N.am      1 13N1215     0.0000 
      9 CAZ        14.3790    0.8510    3.2770 C.2       1 13N1215     0.0000 
     10 OAC        13.5700    1.3280    2.5090 O.2       1 13N1215     0.0000 
     11 CBG        14.8350    1.5750    4.4840 C.3       1 13N1215     0.0000 
     12 CAS        13.6580    2.2200    5.1590 C.3       1 13N1215     0.0000 
     13 CAQ        13.0300    1.2240    6.0900 C.3       1 13N1215     0.0000 
     14 CAO        13.7560    1.1390    7.3880 C.3       1 13N1215     0.0000 
     15 CAG        15.0880    0.8370    7.2490 C.2       1 13N1215     0.0000 
     16 CAH        15.8760    1.0920    8.3410 C.2       1 13N1215     0.0000 
     17 CAP        17.2200    0.8510    8.3490 C.3       1 13N1215     0.0000 
     18 CAR        18.0240    2.0770    8.0500 C.3       1 13N1215     0.0000 
     19 NAV        17.9180    2.4960    6.6810 N.am      1 13N1215     0.0000 
     20 CAY        19.0970    2.6000    5.8580 C.2       1 13N1215     0.0000 
     21 OAB        20.1000    1.9960    6.1090 O.2       1 13N1215     0.0000 
     22 CBF        19.0540    3.5090    4.6700 C.ar      1 13N1215     0.0000 
     23 CBB        19.9340    4.5660    4.6850 C.ar      1 13N1215     0.0000 
     24 OAE        20.7070    4.7190    5.7280 O.co2     1 13N1215     0.0000 
     25 CAN        19.9680    5.4340    3.6420 C.ar      1 13N1215     0.0000 
     26 CBA        19.1350    5.2350    2.5920 C.ar      1 13N1215     0.0000 
     27 OAD        19.1700    6.0630    1.5840 O.3       1 13N1215     0.0000 
     28 CBD        18.2700    4.1600    2.5740 C.ar      1 13N1215     0.0000 
     29 CL1        17.2650    3.9730    1.2310 Cl        1 13N1215     0.0000 
     30 CBE        18.2160    3.2790    3.6210 C.ar      1 13N1215     0.0000 
     31 CAU        17.2540    2.1120    3.6260 C.3       1 13N1215     0.0000 
     32 CAX        15.8430    2.5820    4.0040 C.2       1 13N1215     0.0000 
     33 OAA        15.5030    3.7240    3.8830 O.2       1 13N1215     0.0000 
     34 H          16.4476   -3.1029    1.4077 H         1 13N1215     0.0000 
     35 H          18.1945   -3.1039   -0.2273 H         1 13N1215     0.0000 
     36 H          18.5682   -1.1357   -1.5696 H         1 13N1215     0.0000 
     37 H          17.1510    0.7663   -1.3075 H         1 13N1215     0.0000 
     38 H          15.4128    0.7783    0.3431 H         1 13N1215     0.0000 
     39 H          14.6048   -2.2242    2.3946 H         1 13N1215     0.0000 
     40 H          13.7604   -0.9236    1.5370 H         1 13N1215     0.0000 
     41 H          15.7646   -0.6060    3.7676 H         1 13N1215     0.0000 
     42 H          15.3132    0.8864    5.1487 H         1 13N1215     0.0000 
     43 H          12.9335    2.5303    4.4120 H         1 13N1215     0.0000 
     44 H          13.9898    3.0879    5.7210 H         1 13N1215     0.0000 
     45 H          13.0194    0.2348    5.6071 H         1 13N1215     0.0000 
     46 H          11.9821    1.5091    6.2707 H         1 13N1215     0.0000 
     47 H          13.2185    0.3856    8.0229 H         1 13N1215     0.0000 
     48 H          13.5998    2.1132    7.9228 H         1 13N1215     0.0000 
     49 H          15.4616    0.4522    6.3975 H         1 13N1215     0.0000 
     50 H          15.4255    1.4892    9.2063 H         1 13N1215     0.0000 
     51 H          17.5177    0.0712    7.6038 H         1 13N1215     0.0000 
     52 H          17.5761    0.4545    9.3329 H         1 13N1215     0.0000 
     53 H          19.0837    1.8726    8.3173 H         1 13N1215     0.0000 
     54 H          17.6923    2.8871    8.7355 H         1 13N1215     0.0000 
     55 H          17.0098    2.7207    6.2882 H         1 13N1215     0.0000 
     56 H          20.6207    6.2353    3.6496 H         1 13N1215     0.0000 
     57 H          17.5825    1.3671    4.3480 H         1 13N1215     0.0000 
     58 H          17.2211    1.6577    2.6378 H         1 13N1215     0.0000 
     59 H          19.7990    6.7874    1.8660 H         1 13N1215     0.0000 
@<TRIPOS>BOND
     1    2    1 ar   
     2    6    1 ar   
     3   34    1 1    
     4    3    2 ar   
     5   35    2 1    
     6    4    3 ar   
     7   36    3 1    
     8    5    4 ar   
     9   37    4 1    
    10    6    5 ar   
    11   38    5 1    
    12    7    6 1    
    13    8    7 1    
    14   39    7 1    
    15   40    7 1    
    16    9    8 am   
    17   41    8 1    
    18   10    9 2    
    19   11    9 1    
    20   12   11 1    
    21   32   11 1    
    22   42   11 1    
    23   13   12 1    
    24   43   12 1    
    25   44   12 1    
    26   14   13 1    
    27   45   13 1    
    28   46   13 1    
    29   15   14 1    
    30   47   14 1    
    31   48   14 1    
    32   16   15 2    
    33   49   15 1    
    34   17   16 1    
    35   50   16 1    
    36   18   17 1    
    37   51   17 1    
    38   52   17 1    
    39   19   18 1    
    40   53   18 1    
    41   54   18 1    
    42   20   19 am   
    43   55   19 1    
    44   21   20 2    
    45   22   20 1    
    46   23   22 ar   
    47   30   22 ar   
    48   24   23 ar   
    49   25   23 ar   
    50   26   25 ar   
    51   56   25 1    
    52   27   26 1    
    53   28   26 ar   
    54   59   27 1    
    55   29   28 1    
    56   30   28 ar   
    57   31   30 1    
    58   32   31 1    
    59   57   31 1    
    60   58   31 1    
    61   33   32 2    
@<TRIPOS>SUBSTRUCTURE
     1 13N1215     1 GROUP   
@<TRIPOS>SET

