#    Name: 1mxf_MTX_4_INTS_M
#    Modification time : Mon Apr  7 14:52:20 2014

@<TRIPOS>MOLECULE
1mxf_MTX_4_INTS_M
   47     0     6     0     0
SMALL
NO_CHARGES


@<TRIPOS>ATOM
      1 CA         38.2960   23.2100   19.5795 C.3       2 GLC5        0.0000 
      2 CA         39.5220   24.2240   19.2280 C.3       6 GLL5        0.0000 
      3 CA         37.0700   22.1960   19.9310 C.3       4 GLP5        0.0000 
      4 CA         40.6395   25.3805   20.0305 C.3       2 GLC5        0.0000 
      5 CA         41.7570   26.5370   20.8330 C.3       4 GLP5        0.0000 
      6 O          40.6735   23.2420   21.1885 O.2       1 ALC1        0.0000 
      7 O          40.4190   23.4760   19.8510 O.2       5 ALL1        0.0000 
      8 O          40.9280   23.0080   22.5260 O.2       3 ALP1        0.0000 
      9 O          40.8265   22.7945   18.6100 O.2       1 ALC1        0.0000 
     10 O          41.2340   22.1130   17.3690 O.2       3 ALP1        0.0000 
     11 CA         37.6355   24.2155   19.6120 C.3       2 GLC5        0.0000 
     12 CA         38.2010   26.2350   19.2930 C.3       6 GLL5        0.0000 
     13 CA         39.9790   26.3860   20.0630 C.3       2 GLC5        0.0000 
     14 O          37.6840   27.1225   21.4975 O.2       1 ALC1        0.0000 
     15 O          37.6420   27.2280   19.9920 O.2       5 ALL1        0.0000 
     16 O          37.7260   27.0170   23.0030 O.2       3 ALP1        0.0000 
     17 CA         36.5130   25.3475   13.7300 C.3       2 GLC5        0.0000 
     18 CA         37.7700   26.0030   15.0860 C.3       6 GLL5        0.0000 
     19 CA         35.2560   24.6920   12.3740 C.3       4 GLP5        0.0000 
     20 CA         37.8745   23.6350   18.5615 C.3       2 GLC5        0.0000 
     21 CA         38.6790   25.0740   17.1920 C.3       6 GLL5        0.0000 
     22 CA         35.7765   29.0835   13.2640 C.3       2 GLC5        0.0000 
     23 CA         36.3490   28.1820   15.1400 C.3       6 GLL5        0.0000 
     24 CA         35.2040   29.9850   11.3880 C.3       4 GLP5        0.0000 
     25 CA         35.9910   27.0985   13.4565 C.3       2 GLC5        0.0000 
     26 CA         35.6330   26.0150   11.7730 C.3       4 GLP5        0.0000 
     27 CA         35.4895   31.3335   15.0635 C.3       2 GLC5        0.0000 
     28 CA         35.3980   30.1390   16.2910 C.3       6 GLL5        0.0000 
     29 CA         35.5810   32.5280   13.8360 C.3       4 GLP5        0.0000 
     30 CA         37.3085   30.2295   17.4700 C.3       2 GLC5        0.0000 
     31 CA         39.2190   30.3200   18.6490 C.3       4 GLP5        0.0000 
     32 CA         29.7780   23.6690   17.0455 C.3       2 GLC5        0.0000 
     33 CA         29.0320   23.9640   14.9610 C.3       6 GLL5        0.0000 
     34 CA         30.5240   23.3740   19.1300 C.3       4 GLP5        0.0000 
     35 CA         28.9310   27.3270   12.9275 C.3       2 GLC5        0.0000 
     36 CA         28.2210   25.2610   12.8760 C.3       6 GLL5        0.0000 
     37 CA         29.6410   29.3930   12.9790 C.3       4 GLP5        0.0000 
     38 CA         34.2190   25.6125   13.7690 C.3       2 GLC5        0.0000 
     39 CA         32.5610   26.2110   15.1520 C.3       6 GLL5        0.0000 
     40 CA         32.3084   26.5485   13.4022 C.3       2 GLC5        0.0000 
     41 CA         33.8030   26.8550   15.1760 C.3       6 GLL5        0.0000 
     42 CA         31.7090   26.4220   11.4720 C.3       4 GLP5        0.0000 
     43 CA         31.3907   27.6649   18.0424 C.3       2 GLC5        0.0000 
     44 CA         31.4640   26.7790   15.8260 C.3       6 GLL5        0.0000 
     45 CA         30.5920   27.2920   19.7540 C.3       4 GLP5        0.0000 
     46 CA         30.1232   25.5215   12.3155 C.3       2 GLC5        0.0000 
     47 CA         28.8540   23.9810   13.4420 C.3       6 GLL5        0.0000 
@<TRIPOS>BOND
@<TRIPOS>SUBSTRUCTURE
     1 ALC1        6 GROUP        1 X    ALC  0     ROOT ALC X 1
     2 GLC5        1 GROUP        1 X    GLC  0     **** GLC X 6
     3 ALP1        8 GROUP        1 Y    ALP  0     ROOT ALP Y 8
     4 GLP5        3 GROUP        1 Y    GLP  0     **** GLP Y 13
     5 ALL1        7 GROUP        1 Z    ALL  0     ROOT ALL Z 15
     6 GLL5        2 GROUP        1 Z    GLL  0     **** GLL Z 20
@<TRIPOS>SET

