#    Name: 1mxf_MTX_4_ligand
#    Modification time : Mon Apr  7 14:52:20 2014

@<TRIPOS>MOLECULE
1mxf_MTX_4_ligand
   53    55     1     0     0
SMALL
NO_CHARGES


@<TRIPOS>ATOM
      1 N1         39.3850   24.1450   17.8710 N.ar      1 MTX4278     0.0000 
      2 C2         39.5220   24.2240   19.2280 C.ar      1 MTX4278     0.0000 
      3 NA2        40.4190   23.4760   19.8510 N.pl3     1 MTX4278     0.0000 
      4 N3         38.9280   25.2630   19.9180 N.ar      1 MTX4278     0.0000 
      5 C4         38.2010   26.2350   19.2930 C.ar      1 MTX4278     0.0000 
      6 NA4        37.6420   27.2280   19.9920 N.pl3     1 MTX4278     0.0000 
      7 C4A        38.0440   26.1770   17.8900 C.ar      1 MTX4278     0.0000 
      8 N5         37.3270   27.1270   17.2310 N.ar      1 MTX4278     0.0000 
      9 C6         37.1980   27.1320   15.8540 C.ar      1 MTX4278     0.0000 
     10 C7         37.7700   26.0030   15.0860 C.ar      1 MTX4278     0.0000 
     11 N8         38.5570   24.9730   15.8440 N.ar      1 MTX4278     0.0000 
     12 C8A        38.6790   25.0740   17.1920 C.ar      1 MTX4278     0.0000 
     13 C9         36.3490   28.1820   15.1400 C.3       1 MTX4278     0.0000 
     14 N10        35.2470   28.7410   15.9530 N.pl3     1 MTX4278     0.0000 
     15 CM         35.3980   30.1390   16.2910 C.3       1 MTX4278     0.0000 
     16 C11        31.4640   26.7790   15.8260 C.ar      1 MTX4278     0.0000 
     17 C12        32.5610   26.2110   15.1520 C.ar      1 MTX4278     0.0000 
     18 C13        33.8030   26.8550   15.1760 C.ar      1 MTX4278     0.0000 
     19 C14        33.9680   28.0940   15.8690 C.ar      1 MTX4278     0.0000 
     20 C15        32.8460   28.6720   16.5150 C.ar      1 MTX4278     0.0000 
     21 C16        31.6020   28.0280   16.4670 C.ar      1 MTX4278     0.0000 
     22 C          30.1550   26.0890   15.8370 C.2       1 MTX4278     0.0000 
     23 O          29.1010   26.6260   16.1910 O.2       1 MTX4278     0.0000 
     24 N          30.1390   24.8510   15.3280 N.am      1 MTX4278     0.0000 
     25 CA         29.0320   23.9640   14.9610 C.3       1 MTX4278     0.0000 
     26 CT         29.2710   22.5380   15.4520 C.2       1 MTX4278     0.0000 
     27 O1         30.4500   22.1580   15.6440 O.co2     1 MTX4278     0.0000 
     28 O2         28.2690   21.8070   15.6440 O.co2     1 MTX4278     0.0000 
     29 CB         28.8540   23.9810   13.4420 C.3       1 MTX4278     0.0000 
     30 CG         28.2210   25.2610   12.8760 C.3       1 MTX4278     0.0000 
     31 CD         27.8000   25.1510   11.4220 C.2       1 MTX4278     0.0000 
     32 OE1        28.6800   25.1840   10.5300 O.co2     1 MTX4278     0.0000 
     33 OE2        26.5810   25.0310   11.1610 O.co2     1 MTX4278     0.0000 
     34 H          40.4855   23.6015   20.8409 H         1 MTX4278     0.0000 
     35 H          40.9488   22.8532   19.2753 H         1 MTX4278     0.0000 
     36 H          37.7441   27.1785   20.9855 H         1 MTX4278     0.0000 
     37 H          37.1719   27.9312   19.4586 H         1 MTX4278     0.0000 
     38 H          37.6454   25.9222   14.1202 H         1 MTX4278     0.0000 
     39 H          35.9418   27.7236   14.2137 H         1 MTX4278     0.0000 
     40 H          37.0229   28.9982   14.8026 H         1 MTX4278     0.0000 
     41 H          32.4470   25.3288   14.6465 H         1 MTX4278     0.0000 
     42 H          34.6105   26.4448   14.6959 H         1 MTX4278     0.0000 
     43 H          32.9516   29.5576   17.0133 H         1 MTX4278     0.0000 
     44 H          30.7807   28.4664   16.9015 H         1 MTX4278     0.0000 
     45 H          31.1219   24.3732   15.1337 H         1 MTX4278     0.0000 
     46 H          28.1071   24.3253   15.4035 H         1 MTX4278     0.0000 
     47 H          28.2301   23.1173   13.1450 H         1 MTX4278     0.0000 
     48 H          29.8407   23.8338   12.9643 H         1 MTX4278     0.0000 
     49 H          28.9432   26.0873   12.9844 H         1 MTX4278     0.0000 
     50 H          27.3428   25.5197   13.4908 H         1 MTX4278     0.0000 
     51 H          36.2331   30.3063   16.8150 H         1 MTX4278     0.0000 
     52 H          35.4434   30.7155   15.4752 H         1 MTX4278     0.0000 
     53 H          34.6338   30.4722   16.8432 H         1 MTX4278     0.0000 
@<TRIPOS>BOND
     1    2    1 ar   
     2   12    1 ar   
     3    3    2 1    
     4    4    2 ar   
     5   34    3 1    
     6   35    3 1    
     7    5    4 ar   
     8    6    5 1    
     9    7    5 ar   
    10   36    6 1    
    11   37    6 1    
    12    8    7 ar   
    13   12    7 ar   
    14    9    8 ar   
    15   10    9 ar   
    16   13    9 1    
    17   11   10 ar   
    18   38   10 1    
    19   12   11 ar   
    20   14   13 1    
    21   39   13 1    
    22   40   13 1    
    23   15   14 1    
    24   19   14 1    
    25   51   15 1    
    26   52   15 1    
    27   53   15 1    
    28   17   16 ar   
    29   21   16 ar   
    30   22   16 1    
    31   18   17 ar   
    32   41   17 1    
    33   19   18 ar   
    34   42   18 1    
    35   20   19 ar   
    36   21   20 ar   
    37   43   20 1    
    38   44   21 1    
    39   23   22 2    
    40   24   22 am   
    41   25   24 1    
    42   45   24 1    
    43   26   25 1    
    44   29   25 1    
    45   46   25 1    
    46   27   26 ar   
    47   28   26 ar   
    48   30   29 1    
    49   47   29 1    
    50   48   29 1    
    51   31   30 1    
    52   49   30 1    
    53   50   30 1    
    54   32   31 ar   
    55   33   31 ar   
@<TRIPOS>SUBSTRUCTURE
     1 MTX4278     1 GROUP   
@<TRIPOS>SET

