#    Name: 4J17_1_CAVITY_N1_6.mol2
#    Modification time : Tue Mar 11 06:58:33 2014

@<TRIPOS>MOLECULE
4J17_1_CAVITY_N1_6.mol2
  179     0     6     0     0
SMALL
NO_CHARGES


@<TRIPOS>ATOM
      1 N         -21.4126  -39.7757  -12.0586 N.2       2 ALA2        0.0000 
      2 N         -22.6139  -39.7252  -11.1619 N.2       2 ALA2        0.0000 
      3 N         -21.5695  -41.2621  -12.1852 N.2       2 ALA2        0.0000 
      4 N         -21.7265  -42.7485  -12.3118 N.2       2 ALA2        0.0000 
      5 N         -22.9279  -42.6980  -11.4150 N.2       2 ALA2        0.0000 
      6 N         -24.1292  -42.6475  -10.5183 N.2       2 ALA2        0.0000 
      7 CA        -25.3306  -42.5970   -9.6215 C.3       5 GLY6        0.0000 
      8 CZ        -20.3712  -38.4846  -10.7363 C.ar      4 PHE5        0.0000 
      9 CZ        -21.5726  -38.4341   -9.8395 C.ar      4 PHE5        0.0000 
     10 CZ        -19.3269  -40.0214  -11.7596 C.ar      4 PHE5        0.0000 
     11 CZ        -20.5282  -39.9709  -10.8629 C.ar      4 PHE5        0.0000 
     12 N         -21.7296  -39.9204   -9.9661 N.2       2 ALA2        0.0000 
     13 N         -20.6852  -41.4573  -10.9895 N.2       2 ALA2        0.0000 
     14 N         -21.8865  -41.4068  -10.0927 N.2       2 ALA2        0.0000 
     15 N         -23.0879  -41.3563   -9.1959 N.2       2 ALA2        0.0000 
     16 N         -20.8421  -42.9437  -11.1161 N.2       2 ALA2        0.0000 
     17 DU        -22.0435  -42.8932  -10.2193 H         6 CUB7        0.0000 
     18 DU        -23.2449  -42.8427   -9.3225 H         6 CUB7        0.0000 
     19 CA        -24.4462  -42.7922   -8.4258 C.3       5 GLY6        0.0000 
     20 CZ        -18.1286  -37.2439  -10.3107 C.ar      4 PHE5        0.0000 
     21 CA        -19.3299  -37.1934   -9.4139 C.3       5 GLY6        0.0000 
     22 CZ        -17.0842  -38.7808  -11.3341 C.ar      4 PHE5        0.0000 
     23 CZ        -18.2855  -38.7303  -10.4373 C.ar      4 PHE5        0.0000 
     24 CZ        -19.4869  -38.6798   -9.5405 C.ar      4 PHE5        0.0000 
     25 CA        -20.6883  -38.6293   -8.6438 C.3       5 GLY6        0.0000 
     26 CZ        -21.8896  -38.5788   -7.7470 C.ar      4 PHE5        0.0000 
     27 CZ        -13.6370  -40.4186  -14.1509 C.ar      4 PHE5        0.0000 
     28 CZ        -17.2411  -40.2671  -11.4607 C.ar      4 PHE5        0.0000 
     29 CZ        -18.4425  -40.2167  -10.5639 C.ar      4 PHE5        0.0000 
     30 DU        -19.6439  -40.1662   -9.6671 H         6 CUB7        0.0000 
     31 DU        -20.8452  -40.1157   -8.7704 H         6 CUB7        0.0000 
     32 N         -22.0466  -40.0652   -7.8736 N.2       2 ALA2        0.0000 
     33 CZ        -23.2479  -40.0147   -6.9769 C.ar      4 PHE5        0.0000 
     34 OG        -13.7940  -41.9050  -14.2775 O.2       1 SER1        0.0000 
     35 CA        -14.9954  -41.8545  -13.3808 C.3       5 GLY6        0.0000 
     36 CA        -17.3981  -41.7535  -11.5873 C.3       5 GLY6        0.0000 
     37 N         -18.5995  -41.7030  -10.6905 N.2       2 ALA2        0.0000 
     38 DU        -19.8008  -41.6526   -9.7937 H         6 CUB7        0.0000 
     39 DU        -21.0022  -41.6021   -8.8970 H         6 CUB7        0.0000 
     40 DU        -22.2035  -41.5516   -8.0002 H         6 CUB7        0.0000 
     41 CA        -23.4049  -41.5011   -7.1034 C.3       5 GLY6        0.0000 
     42 OG        -16.3537  -43.2904  -12.6106 O.2       1 SER1        0.0000 
     43 N         -17.5551  -43.2399  -11.7138 N.2       2 ALA2        0.0000 
     44 N         -18.7564  -43.1894  -10.8171 N.2       2 ALA2        0.0000 
     45 DU        -19.9578  -43.1389   -9.9203 H         6 CUB7        0.0000 
     46 DU        -22.3605  -43.0380   -8.1268 H         6 CUB7        0.0000 
     47 CA        -23.5619  -42.9875   -7.2300 C.3       5 GLY6        0.0000 
     48 CZ        -16.0428  -37.4896  -10.0117 C.ar      4 PHE5        0.0000 
     49 NZ        -17.2442  -37.4391   -9.1150 N.2       3 LYS4        0.0000 
     50 CA        -18.4456  -37.3886   -8.2182 C.3       5 GLY6        0.0000 
     51 O         -12.5957  -39.1275  -12.8286 O.2       2 ALA2        0.0000 
     52 CZ        -13.7971  -39.0770  -11.9318 C.ar      4 PHE5        0.0000 
     53 CZ        -14.9984  -39.0265  -11.0351 C.ar      4 PHE5        0.0000 
     54 CZ        -16.1998  -38.9760  -10.1383 C.ar      4 PHE5        0.0000 
     55 NZ        -17.4012  -38.9255   -9.2416 N.2       3 LYS4        0.0000 
     56 CA        -18.6025  -38.8750   -8.3448 C.3       5 GLY6        0.0000 
     57 CA        -19.8039  -38.8245   -7.4480 C.3       5 GLY6        0.0000 
     58 CA        -21.0053  -38.7740   -6.5513 C.3       5 GLY6        0.0000 
     59 CZ        -12.7527  -40.6139  -12.9552 C.ar      4 PHE5        0.0000 
     60 CZ        -13.9540  -40.5634  -12.0584 C.ar      4 PHE5        0.0000 
     61 CZ        -15.1554  -40.5129  -11.1617 C.ar      4 PHE5        0.0000 
     62 CZ        -16.3568  -40.4624  -10.2649 C.ar      4 PHE5        0.0000 
     63 DU        -17.5581  -40.4119   -9.3682 H         6 CUB7        0.0000 
     64 N         -18.7595  -40.3614   -8.4714 N.2       2 ALA2        0.0000 
     65 N         -19.9609  -40.3109   -7.5746 N.2       2 ALA2        0.0000 
     66 CA        -21.1622  -40.2604   -6.6779 C.3       5 GLY6        0.0000 
     67 CZ        -22.3636  -40.2099   -5.7811 C.ar      4 PHE5        0.0000 
     68 OG        -12.9097  -42.1002  -13.0818 O.2       1 SER1        0.0000 
     69 DU        -14.1110  -42.0497  -12.1850 H         6 CUB7        0.0000 
     70 DU        -15.3124  -41.9993  -11.2883 H         6 CUB7        0.0000 
     71 DU        -16.5137  -41.9488  -10.3915 H         6 CUB7        0.0000 
     72 DU        -17.7151  -41.8983   -9.4947 H         6 CUB7        0.0000 
     73 N         -18.9165  -41.8478   -8.5980 N.2       2 ALA2        0.0000 
     74 N         -20.1178  -41.7973   -7.7012 N.2       2 ALA2        0.0000 
     75 N         -21.3192  -41.7468   -6.8045 N.2       2 ALA2        0.0000 
     76 CA        -22.5205  -41.6963   -5.9077 C.3       5 GLY6        0.0000 
     77 CA        -23.7219  -41.6458   -5.0109 C.3       5 GLY6        0.0000 
     78 OG        -13.0666  -43.5866  -13.2084 O.2       1 SER1        0.0000 
     79 OG        -14.2680  -43.5361  -12.3116 O.2       1 SER1        0.0000 
     80 DU        -15.4693  -43.4856  -11.4149 H         6 CUB7        0.0000 
     81 DU        -16.6707  -43.4351  -10.5181 H         6 CUB7        0.0000 
     82 DU        -17.8721  -43.3847   -9.6213 H         6 CUB7        0.0000 
     83 DU        -19.0734  -43.3342   -8.7246 H         6 CUB7        0.0000 
     84 DU        -20.2748  -43.2837   -7.8278 H         6 CUB7        0.0000 
     85 DU        -21.4762  -43.2332   -6.9311 H         6 CUB7        0.0000 
     86 CA        -22.6775  -43.1827   -6.0343 C.3       5 GLY6        0.0000 
     87 CA        -23.8789  -43.1322   -5.1375 C.3       5 GLY6        0.0000 
     88 OG        -14.4249  -45.0225  -12.4382 O.2       1 SER1        0.0000 
     89 OG        -15.6263  -44.9720  -11.5415 O.2       1 SER1        0.0000 
     90 DU        -16.8277  -44.9215  -10.6447 H         6 CUB7        0.0000 
     91 DU        -20.4318  -44.7701   -7.9544 H         6 CUB7        0.0000 
     92 DU        -22.8345  -44.6691   -6.1609 H         6 CUB7        0.0000 
     93 N         -24.0358  -44.6186   -5.2641 N.2       2 ALA2        0.0000 
     94 O         -11.5544  -37.8363  -11.5063 O.2       2 ALA2        0.0000 
     95 CA        -12.7558  -37.7858  -10.6095 C.3       5 GLY6        0.0000 
     96 CA        -13.9571  -37.7353   -9.7127 C.3       5 GLY6        0.0000 
     97 CA        -15.1585  -37.6848   -8.8160 C.3       5 GLY6        0.0000 
     98 OG        -11.7114  -39.3227  -11.6329 O.2       1 SER1        0.0000 
     99 N         -12.9127  -39.2722  -10.7361 N.2       2 ALA2        0.0000 
    100 N         -14.1141  -39.2217   -9.8393 N.2       2 ALA2        0.0000 
    101 NZ        -15.3154  -39.1712   -8.9426 N.2       3 LYS4        0.0000 
    102 NZ        -16.5168  -39.1207   -8.0458 N.2       3 LYS4        0.0000 
    103 NZ        -17.7182  -39.0702   -7.1491 N.2       3 LYS4        0.0000 
    104 CA        -18.9195  -39.0198   -6.2523 C.3       5 GLY6        0.0000 
    105 OG        -11.8683  -40.8091  -11.7595 O.2       1 SER1        0.0000 
    106 DU        -13.0697  -40.7586  -10.8627 H         6 CUB7        0.0000 
    107 DU        -14.2711  -40.7081   -9.9659 H         6 CUB7        0.0000 
    108 DU        -15.4724  -40.6576   -9.0692 H         6 CUB7        0.0000 
    109 N         -16.6738  -40.6071   -8.1724 N.2       2 ALA2        0.0000 
    110 N         -17.8751  -40.5566   -7.2757 N.2       2 ALA2        0.0000 
    111 N         -20.2779  -40.4557   -5.4821 N.2       2 ALA2        0.0000 
    112 CA        -21.4792  -40.4052   -4.5854 C.3       5 GLY6        0.0000 
    113 N         -22.6806  -40.3547   -3.6886 N.2       2 ALA2        0.0000 
    114 DU        -12.0253  -42.2955  -11.8861 H         6 CUB7        0.0000 
    115 DU        -14.4280  -42.1945  -10.0925 H         6 CUB7        0.0000 
    116 DU        -15.6294  -42.1440   -9.1958 H         6 CUB7        0.0000 
    117 N         -16.8307  -42.0935   -8.2990 N.2       2 ALA2        0.0000 
    118 N         -20.4348  -41.9420   -5.6087 N.2       2 ALA2        0.0000 
    119 N         -21.6362  -41.8915   -4.7120 N.2       2 ALA2        0.0000 
    120 N         -22.8376  -41.8411   -3.8152 N.2       2 ALA2        0.0000 
    121 CA        -12.1823  -43.7818  -12.0126 C.3       5 GLY6        0.0000 
    122 O         -13.3836  -43.7314  -11.1159 O.2       2 ALA2        0.0000 
    123 DU        -14.5850  -43.6809  -10.2191 H         6 CUB7        0.0000 
    124 OG        -15.7863  -43.6304   -9.3224 O.2       1 SER1        0.0000 
    125 OG        -16.9877  -43.5799   -8.4256 O.2       1 SER1        0.0000 
    126 N         -18.1891  -43.5294   -7.5288 N.2       2 ALA2        0.0000 
    127 N         -19.3904  -43.4789   -6.6321 N.2       2 ALA2        0.0000 
    128 N         -20.5918  -43.4284   -5.7353 N.2       2 ALA2        0.0000 
    129 DU        -21.7932  -43.3779   -4.8386 H         6 CUB7        0.0000 
    130 N         -22.9945  -43.3274   -3.9418 N.2       2 ALA2        0.0000 
    131 O         -13.5406  -45.2177  -11.2425 O.2       2 ALA2        0.0000 
    132 O         -14.7420  -45.1673  -10.3457 O.2       2 ALA2        0.0000 
    133 DU        -19.5474  -44.9653   -6.7587 H         6 CUB7        0.0000 
    134 OG        -20.7488  -44.9148   -5.8619 O.2       1 SER1        0.0000 
    135 OG        -21.9501  -44.8643   -4.9652 O.2       1 SER1        0.0000 
    136 N         -23.1515  -44.8138   -4.0684 N.2       2 ALA2        0.0000 
    137 OG        -10.8270  -39.5179  -10.4371 O.2       1 SER1        0.0000 
    138 N         -12.0284  -39.4674   -9.5404 N.2       2 ALA2        0.0000 
    139 N         -13.2297  -39.4170   -8.6436 N.2       2 ALA2        0.0000 
    140 NZ        -14.4311  -39.3665   -7.7468 N.2       3 LYS4        0.0000 
    141 OG        -10.9840  -41.0043  -10.5637 O.2       1 SER1        0.0000 
    142 N         -12.1853  -40.9538   -9.6670 N.2       2 ALA2        0.0000 
    143 N         -13.3867  -40.9033   -8.7702 N.2       2 ALA2        0.0000 
    144 NZ        -14.5881  -40.8528   -7.8734 N.2       3 LYS4        0.0000 
    145 CA        -20.5949  -40.6004   -3.3896 C.3       5 GLY6        0.0000 
    146 CA        -21.7962  -40.5499   -2.4929 C.3       5 GLY6        0.0000 
    147 OG        -11.1409  -42.4907  -10.6903 O.2       1 SER1        0.0000 
    148 DU        -12.3423  -42.4402   -9.7936 H         6 CUB7        0.0000 
    149 NZ        -13.5437  -42.3897   -8.8968 N.2       3 LYS4        0.0000 
    150 OG        -14.7450  -42.3392   -8.0000 O.2       1 SER1        0.0000 
    151 N         -20.7518  -42.0868   -3.5162 N.2       2 ALA2        0.0000 
    152 CA        -21.9532  -42.0363   -2.6195 C.3       5 GLY6        0.0000 
    153 OG        -11.2979  -43.9771  -10.8169 O.2       1 SER1        0.0000 
    154 O         -12.4993  -43.9266   -9.9201 O.2       2 ALA2        0.0000 
    155 O         -13.7006  -43.8761   -9.0234 O.2       2 ALA2        0.0000 
    156 OG        -14.9020  -43.8256   -8.1266 O.2       1 SER1        0.0000 
    157 N         -19.7074  -43.6237   -4.5396 N.2       2 ALA2        0.0000 
    158 OG        -20.9088  -43.5732   -3.6428 O.2       1 SER1        0.0000 
    159 OG        -22.1102  -43.5227   -2.7461 O.2       1 SER1        0.0000 
    160 O         -19.8644  -45.1100   -4.6662 O.2       2 ALA2        0.0000 
    161 N         -11.3010  -41.1491   -8.4712 N.2       2 ALA2        0.0000 
    162 NZ        -12.5023  -41.0986   -7.5745 N.2       3 LYS4        0.0000 
    163 N         -19.7105  -40.7956   -2.1939 N.2       2 ALA2        0.0000 
    164 CZ        -10.2566  -42.6859   -9.4946 C.ar      4 PHE5        0.0000 
    165 NZ        -11.4579  -42.6354   -8.5978 N.2       3 LYS4        0.0000 
    166 NZ        -12.6593  -42.5850   -7.7011 N.2       3 LYS4        0.0000 
    167 N         -19.8675  -42.2820   -2.3205 N.2       2 ALA2        0.0000 
    168 CA        -21.0688  -42.2315   -1.4237 C.3       5 GLY6        0.0000 
    169 O         -11.6149  -44.1218   -8.7244 O.2       2 ALA2        0.0000 
    170 NZ        -12.8163  -44.0713   -7.8276 N.2       3 LYS4        0.0000 
    171 O         -20.0244  -43.7684   -2.4471 O.2       2 ALA2        0.0000 
    172 OG        -21.2258  -43.7179   -1.5503 O.2       1 SER1        0.0000 
    173 O         -22.4272  -43.6674   -0.6536 O.2       2 ALA2        0.0000 
    174 CA        -20.1845  -42.4268   -0.2280 C.3       5 GLY6        0.0000 
    175 OG        -20.3414  -43.9131   -0.3546 O.2       1 SER1        0.0000 
    176 CA        -21.5428  -43.8626    0.5422 C.3       5 GLY6        0.0000 
    177 O         -22.7442  -43.8122    1.4389 O.2       2 ALA2        0.0000 
    178 OG        -21.6998  -45.3490    0.4156 O.2       1 SER1        0.0000 
    179 O         -22.9011  -45.2985    1.3123 O.2       2 ALA2        0.0000 
@<TRIPOS>BOND
@<TRIPOS>SUBSTRUCTURE
     1 SER1       34 GROUP   
     2 ALA2        1 GROUP   
     3 LYS4       49 GROUP   
     4 PHE5        8 GROUP   
     5 GLY6        7 GROUP   
     6 CUB7       17 GROUP   
@<TRIPOS>SET

