#    Name: 4j17_1HQ_1_INTS_M
#    Modification time : Tue Mar 25 05:00:54 2014

@<TRIPOS>MOLECULE
4j17_1HQ_1_INTS_M
   59     0     6     0     0
SMALL
NO_CHARGES


@<TRIPOS>ATOM
      1 CA        -18.5370  -41.2995   -2.6705 C.3       2 GLC5        0.0000 
      2 CA        -20.1150  -42.1780   -2.0720 C.3       6 GLL5        0.0000 
      3 CA        -16.9590  -40.4210   -3.2690 C.3       4 GLP5        0.0000 
      4 CA        -18.4655  -43.1995   -2.9550 C.3       2 GLC5        0.0000 
      5 CA        -16.8160  -44.2210   -3.8380 C.3       4 GLP5        0.0000 
      6 O         -19.1135  -41.1995   -5.3690 O.2       1 ALC1        0.0000 
      7 O         -20.4290  -40.5840   -5.7190 O.2       5 ALL1        0.0000 
      8 O         -17.7980  -41.8150   -5.0190 O.2       3 ALP1        0.0000 
      9 CA        -19.3645  -44.4395    0.8975 C.3       2 GLC5        0.0000 
     10 CA        -20.7760  -43.7580   -0.3250 C.3       6 GLL5        0.0000 
     11 CA        -17.9530  -45.1210    2.1200 C.3       4 GLP5        0.0000 
     12 CA        -18.6600  -37.7855  -11.9725 C.3       2 GLC5        0.0000 
     13 CA        -19.2520  -38.4440  -10.7010 C.3       6 GLL5        0.0000 
     14 CA        -18.0680  -37.1270  -13.2440 C.3       4 GLP5        0.0000 
     15 CA        -20.1835  -37.1105  -10.8320 C.3       2 GLC5        0.0000 
     16 CA        -21.1150  -35.7770  -10.9630 C.3       4 GLP5        0.0000 
     17 CA        -16.1580  -39.3225  -11.7380 C.3       2 GLC5        0.0000 
     18 CA        -16.5650  -40.0530   -9.9440 C.3       6 GLL5        0.0000 
     19 CA        -15.7510  -38.5920  -13.5320 C.3       4 GLP5        0.0000 
     20 CA        -16.2365  -40.2730   -5.3540 C.3       2 GLC5        0.0000 
     21 CA        -15.5140  -40.1250   -7.4390 C.3       6 GLL5        0.0000 
     22 O         -16.0570  -38.0340   -6.9300 O.2       1 ALC1        0.0000 
     23 O         -16.1990  -39.0650   -7.7080 O.2       5 ALL1        0.0000 
     24 O         -15.9150  -37.0030   -6.1520 O.2       3 ALP1        0.0000 
     25 CA        -15.6070  -37.3965  -11.3165 C.3       2 GLC5        0.0000 
     26 CA        -15.5220  -37.4610   -9.7160 C.3       6 GLL5        0.0000 
     27 CA        -15.6920  -37.3320  -12.9170 C.3       4 GLP5        0.0000 
     28 O         -14.8140  -39.1365   -5.3945 O.2       1 ALC1        0.0000 
     29 O         -14.7090  -40.1780   -6.2760 O.2       5 ALL1        0.0000 
     30 O         -14.9190  -38.0950   -4.5130 O.2       3 ALP1        0.0000 
     31 O         -15.3120  -38.5905   -6.2140 O.2       1 ALC1        0.0000 
     32 O         -13.9525  -41.2240   -5.7595 O.2       1 ALC1        0.0000 
     33 O         -13.1960  -42.2700   -5.2430 O.2       3 ALP1        0.0000 
     34 CA        -24.1440  -42.7627   -2.2263 C.3       2 GLC5        0.0000 
     35 CA        -22.3720  -42.7980   -3.5000 C.3       6 GLL5        0.0000 
     36 CA        -25.9930  -42.3970   -1.5580 C.3       4 GLP5        0.0000 
     37 CA        -22.3762  -41.6791   -1.6809 C.3       2 GLC5        0.0000 
     38 CA        -22.2180  -43.4590   -2.2890 C.3       6 GLL5        0.0000 
     39 CA        -22.8920  -40.8540    0.0560 C.3       4 GLP5        0.0000 
     40 CA        -19.7930  -45.1190   -1.3388 C.3       2 GLC5        0.0000 
     41 CA        -21.0220  -43.1360   -1.5880 C.3       6 GLL5        0.0000 
     42 CA        -18.6870  -46.7910   -1.7210 C.3       4 GLP5        0.0000 
     43 CA        -21.7821  -42.0307   -0.5108 C.3       2 GLC5        0.0000 
     44 CA        -20.5230  -37.7820   -7.4925 C.3       2 GLC5        0.0000 
     45 CA        -20.2570  -39.9620   -6.9510 C.3       6 GLL5        0.0000 
     46 CA        -20.2510  -35.7290   -7.5770 C.3       4 GLP5        0.0000 
     47 CA        -19.4955  -37.6075   -7.7448 C.3       2 GLC5        0.0000 
     48 CA        -18.9040  -39.7550   -7.2990 C.3       6 GLL5        0.0000 
     49 CA        -20.1932  -38.6255   -5.7242 C.3       2 GLC5        0.0000 
     50 CA        -20.5370  -37.4560   -4.0950 C.3       4 GLP5        0.0000 
     51 CA        -20.0180  -37.2475   -8.7901 C.3       2 GLC5        0.0000 
     52 CA        -20.9920  -39.2250   -9.1500 C.3       6 GLL5        0.0000 
     53 CA        -16.9642  -36.8882  -10.9043 C.3       2 GLC5        0.0000 
     54 CA        -17.2550  -36.6460   -8.5870 C.3       6 GLL5        0.0000 
     55 CA        -16.8720  -36.6380  -12.7750 C.3       4 GLP5        0.0000 
     56 CA        -18.6538  -36.4338   -8.3053 C.3       2 GLC5        0.0000 
     57 CA        -16.8580  -37.6310   -9.4800 C.3       6 GLL5        0.0000 
     58 CA        -14.8756  -36.4444   -8.7089 C.3       2 GLC5        0.0000 
     59 CA        -13.4620  -35.5890   -8.0430 C.3       4 GLP5        0.0000 
@<TRIPOS>BOND
@<TRIPOS>SUBSTRUCTURE
     1 ALC1        6 GROUP        1 X    ALC  0     ROOT ALC X 1
     2 GLC5        1 GROUP        1 X    GLC  0     **** GLC X 6
     3 ALP1        8 GROUP        1 Y    ALP  0     ROOT ALP Y 8
     4 GLP5        3 GROUP        1 Y    GLP  0     **** GLP Y 13
     5 ALL1        7 GROUP        1 Z    ALL  0     ROOT ALL Z 15
     6 GLL5        2 GROUP        1 Z    GLL  0     **** GLL Z 20
@<TRIPOS>SET

