#    Name: 4j17_1HQ_1_ligand
#    Modification time : Tue Mar 25 05:00:54 2014

@<TRIPOS>MOLECULE
4j17_1HQ_1_ligand
   43    45     1     0     0
SMALL
NO_CHARGES


@<TRIPOS>ATOM
      1 C2        -22.2180  -43.4590   -2.2890 C.ar      1 1HQ504      0.0000 
      2 C3        -22.3720  -42.7980   -3.5000 C.ar      1 1HQ504      0.0000 
      3 C4        -21.4260  -41.8800   -3.9410 C.ar      1 1HQ504      0.0000 
      4 N5        -20.3700  -41.5910   -3.2300 N.ar      1 1HQ504      0.0000 
      5 C6        -20.1150  -42.1780   -2.0720 C.ar      1 1HQ504      0.0000 
      6 N9        -20.4290  -40.5840   -5.7190 N.am      1 1HQ504      0.0000 
      7 C15       -19.6440  -38.9510   -9.4610 C.ar      1 1HQ504      0.0000 
      8 C1        -21.0220  -43.1360   -1.5880 C.ar      1 1HQ504      0.0000 
      9 C7        -21.5450  -41.1990   -5.2350 C.2       1 1HQ504      0.0000 
     10 O8        -22.5910  -41.2510   -5.8730 O.2       1 1HQ504      0.0000 
     11 C10       -20.7760  -43.7580   -0.3250 C.1       1 1HQ504      0.0000 
     12 N11       -20.5990  -44.2470    0.6630 N.1       1 1HQ504      0.0000 
     13 C12       -20.2570  -39.9620   -6.9510 C.ar      1 1HQ504      0.0000 
     14 C13       -21.3330  -39.7080   -7.8650 C.ar      1 1HQ504      0.0000 
     15 C14       -20.9920  -39.2250   -9.1500 C.ar      1 1HQ504      0.0000 
     16 C16       -18.5760  -39.2170   -8.5260 C.ar      1 1HQ504      0.0000 
     17 C17       -18.9040  -39.7550   -7.2990 C.ar      1 1HQ504      0.0000 
     18 F18       -19.2520  -38.4440  -10.7010 F         1 1HQ504      0.0000 
     19 C19       -17.0890  -39.0050   -8.9110 C.3       1 1HQ504      0.0000 
     20 C20       -16.5650  -40.0530   -9.9440 C.3       1 1HQ504      0.0000 
     21 C21       -16.4660  -41.4360   -9.3120 C.3       1 1HQ504      0.0000 
     22 O22       -15.5440  -41.2290   -8.1740 O.3       1 1HQ504      0.0000 
     23 C23       -15.5140  -40.1250   -7.4390 C.2       1 1HQ504      0.0000 
     24 N24       -16.1990  -39.0650   -7.7080 N.pl3     1 1HQ504      0.0000 
     25 C25       -16.8580  -37.6310   -9.4800 C.3       1 1HQ504      0.0000 
     26 F26       -17.2550  -36.6460   -8.5870 F         1 1HQ504      0.0000 
     27 F27       -15.5220  -37.4610   -9.7160 F         1 1HQ504      0.0000 
     28 N28       -14.7090  -40.1780   -6.2760 N.pl3     1 1HQ504      0.0000 
     29 H         -22.8720  -44.1016   -1.9291 H         1 1HQ504      0.0000 
     30 H         -23.2050  -42.9914   -4.0850 H         1 1HQ504      0.0000 
     31 H         -19.2811  -41.9642   -1.5091 H         1 1HQ504      0.0000 
     32 H         -19.5559  -40.5729   -5.0658 H         1 1HQ504      0.0000 
     33 H         -22.2803  -39.8685   -7.5963 H         1 1HQ504      0.0000 
     34 H         -21.7201  -39.0760   -9.8481 H         1 1HQ504      0.0000 
     35 H         -18.1709  -40.0113   -6.6246 H         1 1HQ504      0.0000 
     36 H         -15.5864  -39.7335  -10.2892 H         1 1HQ504      0.0000 
     37 H         -17.2525  -40.0789  -10.7840 H         1 1HQ504      0.0000 
     38 H         -16.0522  -42.1156  -10.0201 H         1 1HQ504      0.0000 
     39 H         -17.4302  -41.7356   -8.9728 H         1 1HQ504      0.0000 
     40 H         -16.1953  -38.1957   -7.1395 H         1 1HQ504      0.0000 
     41 H         -17.4274  -37.5638  -10.4064 H         1 1HQ504      0.0000 
     42 H         -14.7178  -39.3626   -5.6972 H         1 1HQ504      0.0000 
     43 H         -14.1997  -41.0264   -6.1317 H         1 1HQ504      0.0000 
@<TRIPOS>BOND
     1    2    1 ar   
     2    8    1 ar   
     3   29    1 1    
     4    3    2 ar   
     5   30    2 1    
     6    4    3 ar   
     7    9    3 1    
     8    5    4 ar   
     9    8    5 ar   
    10   31    5 1    
    11    9    6 am   
    12   13    6 1    
    13   32    6 1    
    14   15    7 ar   
    15   16    7 ar   
    16   18    7 1    
    17   11    8 1    
    18   10    9 2    
    19   12   11 3    
    20   14   13 ar   
    21   17   13 ar   
    22   15   14 ar   
    23   33   14 1    
    24   34   15 1    
    25   17   16 ar   
    26   19   16 1    
    27   35   17 1    
    28   20   19 1    
    29   24   19 1    
    30   25   19 1    
    31   21   20 1    
    32   36   20 1    
    33   37   20 1    
    34   22   21 1    
    35   38   21 1    
    36   39   21 1    
    37   23   22 1    
    38   24   23 1    
    39   28   23 2    
    40   40   24 1    
    41   26   25 1    
    42   27   25 1    
    43   41   25 1    
    44   42   28 1    
    45   43   28 1    
@<TRIPOS>SUBSTRUCTURE
     1 1HQ504      1 GROUP   
@<TRIPOS>SET

