#    Name: 1pyx_ANP_1_INTS_M
#    Modification time : Mon Mar 24 22:28:38 2014

@<TRIPOS>MOLECULE
1pyx_ANP_1_INTS_M
   71     0    18     0     0
SMALL
NO_CHARGES


@<TRIPOS>ATOM
      1 NZ         30.9430    5.7450   29.3345 N.4       4 LYC4        0.0000 
      2 NZ         31.9960    6.6630   29.4880 N.4      16 LYL4        0.0000 
      3 NZ         29.8900    4.8270   29.1810 N.4      10 LYP4        0.0000 
      4 Zn         32.4440    6.7715   30.3575 Zn        5 ZIC7        0.0000 
      5 Zn         31.9960    6.6630   29.4880 Zn       17 ZIL7        0.0000 
      6 Zn         32.8920    6.8800   31.2270 Zn       11 ZIP7        0.0000 
      7 N          30.9430    5.7450   29.3345 N.am      2 SEC2        0.0000 
      8 N          31.9960    6.6630   29.4880 N.am     14 SEL2        0.0000 
      9 N          29.8900    4.8270   29.1810 N.am      8 SEP2        0.0000 
     10 Zn         31.4420    9.2830   28.6965 Zn        5 ZIC7        0.0000 
     11 Zn         31.5890    8.5910   27.7650 Zn       17 ZIL7        0.0000 
     12 Zn         31.2950    9.9750   29.6280 Zn       11 ZIP7        0.0000 
     13 N          30.3925    8.4915   27.0950 N.am      2 SEC2        0.0000 
     14 N          31.5890    8.5910   27.7650 N.am     14 SEL2        0.0000 
     15 N          29.1960    8.3920   26.4250 N.am      8 SEP2        0.0000 
     16 NZ         33.8650   11.5260   30.4745 N.4       4 LYC4        0.0000 
     17 NZ         33.3630   10.5680   29.6620 N.4      16 LYL4        0.0000 
     18 NZ         34.3670   12.4840   31.2870 N.4      10 LYP4        0.0000 
     19 Zn         32.3290   10.2715   29.6450 Zn        5 ZIC7        0.0000 
     20 Zn         33.3630   10.5680   29.6620 Zn       17 ZIL7        0.0000 
     21 N          33.8650   11.5260   30.4745 N.am      2 SEC2        0.0000 
     22 N          33.3630   10.5680   29.6620 N.am     14 SEL2        0.0000 
     23 N          34.3670   12.4840   31.2870 N.am      8 SEP2        0.0000 
     24 OD1        32.7335    8.4370   30.1570 O.co2     3 ASC3        0.0000 
     25 OD1        33.9060    8.1910   28.9300 O.co2    15 ASL3        0.0000 
     26 OD1        31.5610    8.6830   31.3840 O.co2     9 ASP3        0.0000 
     27 NZ         34.8910   11.3015   31.8815 N.4       4 LYC4        0.0000 
     28 NZ         35.4150   10.1190   32.4760 N.4      16 LYL4        0.0000 
     29 N          34.8910   11.3015   31.8815 N.am      2 SEC2        0.0000 
     30 N          35.4150   10.1190   32.4760 N.am     14 SEL2        0.0000 
     31 Zn         33.6240    7.5710   31.4900 Zn        5 ZIC7        0.0000 
     32 Zn         34.3560    8.2620   31.7530 Zn       17 ZIL7        0.0000 
     33 O          34.9135    4.1300   33.7010 O.2       1 ALC1        0.0000 
     34 O          35.9220    4.5880   32.8870 O.2      13 ALL1        0.0000 
     35 O          33.9050    3.6720   34.5150 O.2       7 ALP1        0.0000 
     36 CA         37.3945    3.4000   35.2635 C.3       6 GLC5        0.0000 
     37 CA         37.9260    5.1300   34.1950 C.3      18 GLL5        0.0000 
     38 CA         36.8630    1.6700   36.3320 C.3      12 GLP5        0.0000 
     39 CA         37.1850    5.1790   36.1020 C.3       6 GLC5        0.0000 
     40 CA         36.4440    5.2280   38.0090 C.3      12 GLP5        0.0000 
     41 CA         41.1890    8.8870   39.7050 C.3       6 GLC5        0.0000 
     42 CA         39.6620    8.7560   38.0700 C.3      18 GLL5        0.0000 
     43 CA         42.7160    9.0180   41.3400 C.3      12 GLP5        0.0000 
     44 O          39.9020   10.2305   39.9330 O.2       1 ALC1        0.0000 
     45 O          39.2810    9.8500   38.8330 O.2      13 ALL1        0.0000 
     46 O          40.5230   10.6110   41.0330 O.2       7 ALP1        0.0000 
     47 N          40.9810    7.4480   39.9745 N.am      2 SEC2        0.0000 
     48 N          40.5870    7.8880   38.5910 N.am     14 SEL2        0.0000 
     49 N          41.3750    7.0080   41.3580 N.am      8 SEP2        0.0000 
     50 CA         42.3215    6.9850   36.5010 C.3       6 GLC5        0.0000 
     51 CA         41.0190    6.8000   37.9300 C.3      18 GLL5        0.0000 
     52 CA         43.6240    7.1700   35.0720 C.3      12 GLP5        0.0000 
     53 CA         41.6650    8.7685   37.5390 C.3       6 GLC5        0.0000 
     54 CA         42.3110   10.7370   37.1480 C.3      12 GLP5        0.0000 
     55 CA         41.8675    7.9090   39.6350 C.3       6 GLC5        0.0000 
     56 CA         40.8945    6.3220   39.9530 C.3       6 GLC5        0.0000 
     57 CA         40.7700    5.8440   41.9760 C.3      12 GLP5        0.0000 
     58 CA         41.6320    7.2400   35.6070 C.3       6 GLC5        0.0000 
     59 CA         39.6400    7.3100   36.1420 C.3      18 GLL5        0.0000 
     60 CA         38.0420    6.2690   37.0755 C.3       6 GLC5        0.0000 
     61 CA         39.3238    6.2248   30.7245 C.3       6 GLC5        0.0000 
     62 CA         37.8230    5.9920   31.9900 C.3      18 GLL5        0.0000 
     63 CA         41.1370    5.9480   29.9350 C.3      12 GLP5        0.0000 
     64 CA         38.6082    8.2138   31.4460 C.3       6 GLC5        0.0000 
     65 CA         39.7060    9.9260   31.3780 C.3      12 GLP5        0.0000 
     66 CA         40.3178    9.0557   34.8785 C.3       6 GLC5        0.0000 
     67 CA         41.2580   10.1940   33.2940 C.3      12 GLP5        0.0000 
     68 CA         37.9842    8.0023   38.3490 C.3       6 GLC5        0.0000 
     69 CA         36.5800    7.3640   39.2710 C.3      12 GLP5        0.0000 
     70 CA         40.9126    9.3561   36.9663 C.3       6 GLC5        0.0000 
     71 CA         39.1150    8.5250   36.7840 C.3      18 GLL5        0.0000 
@<TRIPOS>BOND
@<TRIPOS>SUBSTRUCTURE
     1 ALC1       33 GROUP        1 X    ALC  0     ROOT ALC X 1
     2 SEC2        7 GROUP        1 X    SEC  0     **** SEC X 2
     3 ASC3       24 GROUP        1 X    ASC  0     **** ASC X 3
     4 LYC4        1 GROUP        1 X    LYC  0     **** LYC X 4
     5 ZIC7        4 GROUP        1 X    ZIC  0     **** ZIC X 5
     6 GLC5       36 GROUP        1 X    GLC  0     **** GLC X 6
     7 ALP1       35 GROUP        1 Y    ALP  0     ROOT ALP Y 8
     8 SEP2        9 GROUP        1 Y    SEP  0     **** SEP Y 9
     9 ASP3       26 GROUP        1 Y    ASP  0     **** ASP Y 10
    10 LYP4        3 GROUP        1 Y    LYP  0     **** LYP Y 11
    11 ZIP7        6 GROUP        1 Y    ZIP  0     **** ZIP Y 12
    12 GLP5       38 GROUP        1 Y    GLP  0     **** GLP Y 13
    13 ALL1       34 GROUP        1 Z    ALL  0     ROOT ALL Z 15
    14 SEL2        8 GROUP        1 Z    SEL  0     **** SEL Z 16
    15 ASL3       25 GROUP        1 Z    ASL  0     **** ASL Z 17
    16 LYL4        2 GROUP        1 Z    LYL  0     **** LYL Z 18
    17 ZIL7        5 GROUP        1 Z    ZIL  0     **** ZIL Z 19
    18 GLL5       37 GROUP        1 Z    GLL  0     **** GLL Z 20
@<TRIPOS>SET

