#    Name: 1pyx_ANP_1_ligand
#    Modification time : Mon Mar 24 22:28:38 2014

@<TRIPOS>MOLECULE
1pyx_ANP_1_ligand
   43    45     1     0     0
SMALL
NO_CHARGES


@<TRIPOS>ATOM
      1 PG         32.6140    7.5140   28.3380 P.3       1 ANP1001     0.0000 
      2 O1G        32.9780    6.6410   27.0880 O.co2     1 ANP1001     0.0000 
      3 O2G        31.9960    6.6630   29.4880 O.co2     1 ANP1001     0.0000 
      4 O3G        31.5890    8.5910   27.7650 O.co2     1 ANP1001     0.0000 
      5 PB         34.4690    9.6710   29.0550 P.3       1 ANP1001     0.0000 
      6 O1B        35.0510   10.2260   27.7550 O.co2     1 ANP1001     0.0000 
      7 O2B        33.3630   10.5680   29.6620 O.co2     1 ANP1001     0.0000 
      8 N3B        33.9060    8.1910   28.9300 N.4       1 ANP1001     0.0000 
      9 PA         35.6170    9.0260   31.4750 P.3       1 ANP1001     0.0000 
     10 O1A        35.4150   10.1190   32.4760 O.co2     1 ANP1001     0.0000 
     11 O2A        34.3560    8.2620   31.7530 O.co2     1 ANP1001     0.0000 
     12 O3A        35.7810    9.5670   29.9400 O.3       1 ANP1001     0.0000 
     13 O5'        36.8610    8.2070   31.7920 O.3       1 ANP1001     0.0000 
     14 C5'        37.1980    7.0110   31.0380 C.3       1 ANP1001     0.0000 
     15 C4'        37.8230    5.9920   31.9900 C.3       1 ANP1001     0.0000 
     16 O4'        38.9970    6.5580   32.6060 O.3       1 ANP1001     0.0000 
     17 C3'        36.9080    5.6010   33.1730 C.3       1 ANP1001     0.0000 
     18 O3'        35.9220    4.5880   32.8870 O.3       1 ANP1001     0.0000 
     19 C2'        37.9260    5.1300   34.1950 C.3       1 ANP1001     0.0000 
     20 O2'        38.3530    3.7820   33.8880 O.3       1 ANP1001     0.0000 
     21 C1'        39.0250    6.1660   33.9740 C.3       1 ANP1001     0.0000 
     22 N9         38.9660    7.2790   34.9300 N.pl3     1 ANP1001     0.0000 
     23 C8         38.1280    8.3600   34.8060 C.2       1 ANP1001     0.0000 
     24 N7         38.2090    9.1160   35.9300 N.2       1 ANP1001     0.0000 
     25 C5         39.1150    8.5250   36.7840 C.ar      1 ANP1001     0.0000 
     26 C6         39.6620    8.7560   38.0700 C.ar      1 ANP1001     0.0000 
     27 N6         39.2810    9.8500   38.8330 N.pl3     1 ANP1001     0.0000 
     28 N1         40.5870    7.8880   38.5910 N.ar      1 ANP1001     0.0000 
     29 C2         41.0190    6.8000   37.9300 C.ar      1 ANP1001     0.0000 
     30 N3         40.5920    6.4590   36.7230 N.ar      1 ANP1001     0.0000 
     31 C4         39.6400    7.3100   36.1420 C.ar      1 ANP1001     0.0000 
     32 H          37.9182    7.2295   30.2516 H         1 ANP1001     0.0000 
     33 H          36.3122    6.5625   30.5919 H         1 ANP1001     0.0000 
     34 H          38.0773    5.0997   31.4570 H         1 ANP1001     0.0000 
     35 H          36.4833    6.5155   33.5549 H         1 ANP1001     0.0000 
     36 H          37.5233    5.2584   35.1505 H         1 ANP1001     0.0000 
     37 H          39.9856    5.6054   34.1546 H         1 ANP1001     0.0000 
     38 H          37.5742    8.5441   34.0388 H         1 ANP1001     0.0000 
     39 H          38.3346   10.1540   38.7245 H         1 ANP1001     0.0000 
     40 H          39.9858   10.2400   39.4256 H         1 ANP1001     0.0000 
     41 H          41.7478    6.1805   38.4120 H         1 ANP1001     0.0000 
     42 H          35.3716    4.5204   33.7192 H         1 ANP1001     0.0000 
     43 H          37.5793    3.3685   33.4081 H         1 ANP1001     0.0000 
@<TRIPOS>BOND
     1    2    1 ar   
     2    3    1 ar   
     3    4    1 ar   
     4    8    1 1    
     5    6    5 ar   
     6    7    5 ar   
     7    8    5 1    
     8   12    5 1    
     9   10    9 ar   
    10   11    9 ar   
    11   12    9 1    
    12   13    9 1    
    13   14   13 1    
    14   15   14 1    
    15   32   14 1    
    16   33   14 1    
    17   16   15 1    
    18   17   15 1    
    19   34   15 1    
    20   21   16 1    
    21   18   17 1    
    22   19   17 1    
    23   35   17 1    
    24   42   18 1    
    25   20   19 1    
    26   21   19 1    
    27   36   19 1    
    28   43   20 1    
    29   22   21 1    
    30   37   21 1    
    31   23   22 1    
    32   31   22 1    
    33   24   23 2    
    34   38   23 1    
    35   25   24 1    
    36   26   25 ar   
    37   31   25 ar   
    38   27   26 1    
    39   28   26 ar   
    40   39   27 1    
    41   40   27 1    
    42   29   28 ar   
    43   30   29 ar   
    44   41   29 1    
    45   31   30 ar   
@<TRIPOS>SUBSTRUCTURE
     1 ANP1001     1 GROUP   
@<TRIPOS>SET

