#    Name: 1u3r_338_2_INTS_M
#    Modification time : Tue Mar 25 06:07:41 2014

@<TRIPOS>MOLECULE
1u3r_338_2_INTS_M
   69     0     9     0     0
SMALL
NO_CHARGES


@<TRIPOS>ATOM
      1 CA         23.1805   31.8945    8.2495 C.3       3 GLC5        0.0000 
      2 CA         23.2740   29.8260    7.9210 C.3       9 GLL5        0.0000 
      3 CA         23.0870   33.9630    8.5780 C.3       6 GLP5        0.0000 
      4 CA         23.7350   30.5250   10.6855 C.3       3 GLC5        0.0000 
      5 CA         22.9140   29.2130    9.1340 C.3       9 GLL5        0.0000 
      6 CA         24.5560   31.8370   12.2370 C.3       6 GLP5        0.0000 
      7 CA         21.2235   29.3210   11.3665 C.3       3 GLC5        0.0000 
      8 CA         21.5480   29.0220    9.5070 C.3       9 GLL5        0.0000 
      9 CA         20.8990   29.6200   13.2260 C.3       6 GLP5        0.0000 
     10 CA         20.4600   27.3495    9.7805 C.3       3 GLC5        0.0000 
     11 CA         19.3720   25.6770   10.0540 C.3       6 GLP5        0.0000 
     12 CA         19.6555   29.9095   10.3270 C.3       3 GLC5        0.0000 
     13 CA         20.5380   29.4900    8.6010 C.3       9 GLL5        0.0000 
     14 CA         18.7730   30.3290   12.0530 C.3       6 GLP5        0.0000 
     15 CA         19.1470   28.4395    8.9210 C.3       3 GLC5        0.0000 
     16 CA         17.7560   27.3890    9.2410 C.3       6 GLP5        0.0000 
     17 CA         30.2965   30.1820    7.2260 C.3       3 GLC5        0.0000 
     18 CA         28.8020   29.9130    8.5470 C.3       9 GLL5        0.0000 
     19 CA         31.7910   30.4510    5.9050 C.3       6 GLP5        0.0000 
     20 CA         26.7635   31.5200    7.2975 C.3       3 GLC5        0.0000 
     21 CA         27.3870   29.9330    8.3930 C.3       9 GLL5        0.0000 
     22 CA         26.1400   33.1070    6.2020 C.3       6 GLP5        0.0000 
     23 CA         26.8820   30.8210   10.2795 C.3       3 GLC5        0.0000 
     24 CA         26.3770   31.7090   12.1660 C.3       6 GLP5        0.0000 
     25 CA         26.3725   29.6060   11.7055 C.3       3 GLC5        0.0000 
     26 CA         26.3680   27.5030   11.2450 C.3       9 GLL5        0.0000 
     27 CA         27.8085   24.7600   12.1040 C.3       3 GLC5        0.0000 
     28 CA         27.0190   26.7240   12.2540 C.3       9 GLL5        0.0000 
     29 CA         28.5980   22.7960   11.9540 C.3       6 GLP5        0.0000 
     30 N          18.7915   29.8475    6.0315 N.am      2 SEC2        0.0000 
     31 N          19.9220   30.5630    6.5100 N.am      8 SEL2        0.0000 
     32 N          17.6610   29.1320    5.5530 N.am      5 SEP2        0.0000 
     33 O          20.4635   31.2565    5.6535 O.2       1 ALC1        0.0000 
     34 O          19.9220   30.5630    6.5100 O.2       7 ALL1        0.0000 
     35 O          21.0050   31.9500    4.7970 O.2       4 ALP1        0.0000 
     36 O          31.0875   26.6155   12.4415 O.2       1 ALC1        0.0000 
     37 O          30.6130   27.5190   11.6220 O.2       7 ALL1        0.0000 
     38 O          31.5620   25.7120   13.2610 O.2       4 ALP1        0.0000 
     39 CA         22.4387   29.4823    5.5906 C.3       3 GLC5        0.0000 
     40 CA         22.2920   30.2980    7.0110 C.3       9 GLL5        0.0000 
     41 CA         22.4390   28.9470    3.6270 C.3       6 GLP5        0.0000 
     42 CA         27.4078   28.2910    7.4003 C.3       3 GLC5        0.0000 
     43 CA         26.4900   29.1670    9.2360 C.3       9 GLL5        0.0000 
     44 CA         27.8770   27.0320    5.9860 C.3       6 GLP5        0.0000 
     45 CA         27.7250   26.7085    8.9642 C.3       3 GLC5        0.0000 
     46 CA         27.1050   28.3280   10.3110 C.3       9 GLL5        0.0000 
     47 CA         27.6000   25.0910    7.5470 C.3       6 GLP5        0.0000 
     48 CA         27.0366   30.1224   11.1394 C.3       3 GLC5        0.0000 
     49 CA         28.5950   28.3240   10.4520 C.3       9 GLL5        0.0000 
     50 CA         30.1980   29.4440   11.6135 C.3       3 GLC5        0.0000 
     51 CA         31.4800   30.9590   12.2630 C.3       6 GLP5        0.0000 
     52 CA         28.4885   28.2737    7.5215 C.3       3 GLC5        0.0000 
     53 CA         29.3980   29.1180    9.5670 C.3       9 GLL5        0.0000 
     54 CA         30.6965   30.3463    9.4715 C.3       3 GLC5        0.0000 
     55 CA         32.2930   31.1770    9.8860 C.3       6 GLP5        0.0000 
     56 CA         27.8573   25.9445   14.0308 C.3       3 GLC5        0.0000 
     57 CA         28.4460   26.7420   12.3650 C.3       9 GLL5        0.0000 
     58 CA         27.9820   25.1560   15.7520 C.3       6 GLP5        0.0000 
     59 CA         27.5237   27.8010   14.0218 C.3       3 GLC5        0.0000 
     60 CA         27.3150   28.8690   15.7340 C.3       6 GLP5        0.0000 
     61 CA         28.8387   25.1950   11.2302 C.3       3 GLC5        0.0000 
     62 CA         28.8360   23.2520   10.5400 C.3       6 GLP5        0.0000 
     63 CA         30.1908   26.3830   13.2782 C.3       3 GLC5        0.0000 
     64 CA         31.5400   25.6280   14.6360 C.3       6 GLP5        0.0000 
     65 CA         30.7894   27.4173    9.8744 C.3       3 GLC5        0.0000 
     66 CA         29.2370   27.5340   11.4760 C.3       9 GLL5        0.0000 
     67 CA         32.4620   26.7070    9.0060 C.3       6 GLP5        0.0000 
     68 CA         21.2739   31.3247    9.0422 C.3       3 GLC5        0.0000 
     69 CA         20.8970   33.1660    9.4770 C.3       6 GLP5        0.0000 
@<TRIPOS>BOND
@<TRIPOS>SUBSTRUCTURE
     1 ALC1       33 GROUP        1 X    ALC  0     ROOT ALC X 1
     2 SEC2       30 GROUP        1 X    SEC  0     **** SEC X 2
     3 GLC5        1 GROUP        1 X    GLC  0     **** GLC X 6
     4 ALP1       35 GROUP        1 Y    ALP  0     ROOT ALP Y 8
     5 SEP2       32 GROUP        1 Y    SEP  0     **** SEP Y 9
     6 GLP5        3 GROUP        1 Y    GLP  0     **** GLP Y 13
     7 ALL1       34 GROUP        1 Z    ALL  0     ROOT ALL Z 15
     8 SEL2       31 GROUP        1 Z    SEL  0     **** SEL Z 16
     9 GLL5        2 GROUP        1 Z    GLL  0     **** GLL Z 20
@<TRIPOS>SET

