#    Name: 1u3r_338_2_ligand
#    Modification time : Tue Mar 25 06:07:41 2014

@<TRIPOS>MOLECULE
1u3r_338_2_ligand
   32    35     1     0     0
SMALL
NO_CHARGES


@<TRIPOS>ATOM
      1 C1         20.9140   30.1200    7.3640 C.ar      1 338202      0.0000 
      2 C2         22.2920   30.2980    7.0110 C.ar      1 338202      0.0000 
      3 C3         23.2740   29.8260    7.9210 C.ar      1 338202      0.0000 
      4 C4         22.9140   29.2130    9.1340 C.ar      1 338202      0.0000 
      5 C5         21.5480   29.0220    9.5070 C.ar      1 338202      0.0000 
      6 C6         20.5380   29.4900    8.6010 C.ar      1 338202      0.0000 
      7 O10        24.6150   29.8850    7.8050 O.3       1 338202      0.0000 
      8 C11        25.1030   29.3050    8.9490 C.2       1 338202      0.0000 
      9 N12        24.0800   28.8710    9.8010 N.2       1 338202      0.0000 
     10 C13        26.4900   29.1670    9.2360 C.ar      1 338202      0.0000 
     11 C15        27.1050   28.3280   10.3110 C.ar      1 338202      0.0000 
     12 C16        28.5950   28.3240   10.4520 C.ar      1 338202      0.0000 
     13 C17        29.3980   29.1180    9.5670 C.ar      1 338202      0.0000 
     14 C18        28.8020   29.9130    8.5470 C.ar      1 338202      0.0000 
     15 C19        27.3870   29.9330    8.3930 C.ar      1 338202      0.0000 
     16 C23        26.3680   27.5030   11.2450 C.ar      1 338202      0.0000 
     17 C24        27.0190   26.7240   12.2540 C.ar      1 338202      0.0000 
     18 C25        28.4460   26.7420   12.3650 C.ar      1 338202      0.0000 
     19 C26        29.2370   27.5340   11.4760 C.ar      1 338202      0.0000 
     20 O30        19.9220   30.5630    6.5100 O.3       1 338202      0.0000 
     21 O31        30.6130   27.5190   11.6220 O.3       1 338202      0.0000 
     22 H          22.5463   30.7407    6.1508 H         1 338202      0.0000 
     23 H          21.3018   28.5791   10.3665 H         1 338202      0.0000 
     24 H          19.5575   29.3769    8.8322 H         1 338202      0.0000 
     25 H          30.4156   29.1097    9.6744 H         1 338202      0.0000 
     26 H          29.3887   30.4677    7.9272 H         1 338202      0.0000 
     27 H          26.9690   30.5176    7.6484 H         1 338202      0.0000 
     28 H          25.3423   27.4806   11.1755 H         1 338202      0.0000 
     29 H          26.4680   26.1580   12.8918 H         1 338202      0.0000 
     30 H          28.9024   26.1836   13.0863 H         1 338202      0.0000 
     31 H          20.3674   30.6493    5.6189 H         1 338202      0.0000 
     32 H          30.7971   26.7728   12.2618 H         1 338202      0.0000 
@<TRIPOS>BOND
     1    2    1 ar   
     2    6    1 ar   
     3   20    1 1    
     4    3    2 ar   
     5   22    2 1    
     6    4    3 ar   
     7    7    3 1    
     8    5    4 ar   
     9    9    4 1    
    10    6    5 ar   
    11   23    5 1    
    12   24    6 1    
    13    8    7 1    
    14    9    8 2    
    15   10    8 1    
    16   11   10 ar   
    17   15   10 ar   
    18   12   11 ar   
    19   16   11 ar   
    20   13   12 ar   
    21   19   12 ar   
    22   14   13 ar   
    23   25   13 1    
    24   15   14 ar   
    25   26   14 1    
    26   27   15 1    
    27   17   16 ar   
    28   28   16 1    
    29   18   17 ar   
    30   29   17 1    
    31   19   18 ar   
    32   30   18 1    
    33   21   19 1    
    34   31   20 1    
    35   32   21 1    
@<TRIPOS>SUBSTRUCTURE
     1 338202      1 GROUP   
@<TRIPOS>SET

