#    Name: 1vzq_SHY_1_INTS_M
#    Modification time : Tue Mar 25 08:18:21 2014

@<TRIPOS>MOLECULE
1vzq_SHY_1_INTS_M
   63     0     9     0     0
SMALL
NO_CHARGES


@<TRIPOS>ATOM
      1 O           9.9170   -9.7490   24.9095 O.2       1 ALC1        0.0000 
      2 O          11.2730   -9.8910   24.4230 O.2       7 ALL1        0.0000 
      3 O           8.5610   -9.6070   25.3960 O.2       4 ALP1        0.0000 
      4 O           9.5620  -11.9425   24.6455 O.2       1 ALC1        0.0000 
      5 O          10.7380  -12.0870   23.8820 O.2       7 ALL1        0.0000 
      6 O           8.3860  -11.7980   25.4090 O.2       4 ALP1        0.0000 
      7 O          10.7740  -13.4885   23.8505 O.2       1 ALC1        0.0000 
      8 O          10.8100  -14.8900   23.8190 O.2       4 ALP1        0.0000 
      9 CA         11.0460  -13.2545   21.4685 C.3       3 GLC5        0.0000 
     10 CA         12.9520  -12.2380   22.0500 C.3       9 GLL5        0.0000 
     11 CA          9.1400  -14.2710   20.8870 C.3       6 GLP5        0.0000 
     12 CA         13.2060  -11.9930   17.1940 C.3       3 GLC5        0.0000 
     13 CA         15.1070  -11.8710   17.9050 C.3       9 GLL5        0.0000 
     14 CA         11.3050  -12.1150   16.4830 C.3       6 GLP5        0.0000 
     15 CA         15.1230   -9.6715   18.3145 C.3       3 GLC5        0.0000 
     16 CA         15.1390   -7.4720   18.7240 C.3       6 GLP5        0.0000 
     17 N          15.9325  -12.3145   23.8370 N.am      2 SEC2        0.0000 
     18 N          16.7470  -12.7340   22.6270 N.am      8 SEL2        0.0000 
     19 N          15.1180  -11.8950   25.0470 N.am      5 SEP2        0.0000 
     20 CA         21.1600  -14.5720   27.2460 C.3       3 GLC5        0.0000 
     21 CA         20.5780  -13.5150   25.4190 C.3       9 GLL5        0.0000 
     22 CA         21.7420  -15.6290   29.0730 C.3       6 GLP5        0.0000 
     23 CA         23.2515  -12.4390   26.4640 C.3       3 GLC5        0.0000 
     24 CA         21.9210  -13.4690   25.0290 C.3       9 GLL5        0.0000 
     25 CA         24.5820  -11.4090   27.8990 C.3       6 GLP5        0.0000 
     26 CA         24.3570  -12.3505   26.4250 C.3       3 GLC5        0.0000 
     27 CA         24.1320  -13.2920   24.9510 C.3       9 GLL5        0.0000 
     28 CA         23.3535  -11.7070   24.3490 C.3       3 GLC5        0.0000 
     29 CA         22.5750  -10.1220   23.7470 C.3       6 GLP5        0.0000 
     30 O          15.0740  -13.3050   15.5905 O.2       1 ALC1        0.0000 
     31 O          16.1570  -12.9510   15.9450 O.2       7 ALL1        0.0000 
     32 O          13.9910  -13.6590   15.2360 O.2       4 ALP1        0.0000 
     33 N          23.8300  -14.5280   22.2665 N.am      2 SEC2        0.0000 
     34 N          23.6860  -13.7380   23.6270 N.am      8 SEL2        0.0000 
     35 N          23.9740  -15.3180   20.9060 N.am      5 SEP2        0.0000 
     36 CA         21.3000  -12.0775   22.9225 C.3       3 GLC5        0.0000 
     37 CA         21.4170  -14.1010   22.7560 C.3       9 GLL5        0.0000 
     38 CA         21.1830  -10.0540   23.0890 C.3       6 GLP5        0.0000 
     39 CA         14.7208  -10.2458   23.4763 C.3       3 GLC5        0.0000 
     40 CA         13.3690   -9.8970   22.4750 C.3       9 GLL5        0.0000 
     41 CA         16.4430  -10.0220   24.3510 C.3       6 GLP5        0.0000 
     42 CA         13.3762   -8.0685   21.8072 C.3       3 GLC5        0.0000 
     43 CA         12.8420   -6.2160   21.5800 C.3       6 GLP5        0.0000 
     44 CA         15.5365  -10.2852   22.8107 C.3       3 GLC5        0.0000 
     45 CA         14.4520   -9.9450   21.5940 C.3       9 GLL5        0.0000 
     46 CA         13.5461  -11.9749   24.0874 C.3       3 GLC5        0.0000 
     47 CA         14.1170  -12.5960   25.8490 C.3       6 GLP5        0.0000 
     48 CA         15.2353   -9.1546   19.6914 C.3       3 GLC5        0.0000 
     49 CA         16.5795  -10.6143   22.3712 C.3       3 GLC5        0.0000 
     50 CA         16.0330  -11.1260   20.0470 C.3       9 GLL5        0.0000 
     51 CA         18.3588  -10.2180   18.0397 C.3       3 GLC5        0.0000 
     52 CA         17.3700  -12.2570   18.5040 C.3       9 GLL5        0.0000 
     53 CA         19.3590   -8.6230   18.1850 C.3       6 GLP5        0.0000 
     54 CA         18.3537  -13.4010   17.1792 C.3       3 GLC5        0.0000 
     55 CA         17.3470  -11.3690   17.2850 C.3       9 GLL5        0.0000 
     56 CA         19.3490  -14.9890   16.4640 C.3       6 GLP5        0.0000 
     57 CA         18.6185  -10.0577   19.1650 C.3       3 GLC5        0.0000 
     58 CA         18.3570  -11.6980   19.5540 C.3       9 GLL5        0.0000 
     59 CA         18.9832  -12.1375   24.8517 C.3       3 GLC5        0.0000 
     60 CA         19.6810  -13.8530   24.4260 C.3       9 GLL5        0.0000 
     61 CA         17.8370  -10.5910   24.7810 C.3       6 GLP5        0.0000 
     62 CA         20.7047  -11.9060   23.8434 C.3       3 GLC5        0.0000 
     63 CA         22.3495  -11.8655   24.0657 C.3       3 GLC5        0.0000 
@<TRIPOS>BOND
@<TRIPOS>SUBSTRUCTURE
     1 ALC1        1 GROUP        1 X    ALC  0     ROOT ALC X 1
     2 SEC2       17 GROUP        1 X    SEC  0     **** SEC X 2
     3 GLC5        9 GROUP        1 X    GLC  0     **** GLC X 6
     4 ALP1        3 GROUP        1 Y    ALP  0     ROOT ALP Y 8
     5 SEP2       19 GROUP        1 Y    SEP  0     **** SEP Y 9
     6 GLP5       11 GROUP        1 Y    GLP  0     **** GLP Y 13
     7 ALL1        2 GROUP        1 Z    ALL  0     ROOT ALL Z 15
     8 SEL2       18 GROUP        1 Z    SEL  0     **** SEL Z 16
     9 GLL5       10 GROUP        1 Z    GLL  0     **** GLL Z 20
@<TRIPOS>SET

