#    Name: 1vzq_SHY_1_ligand
#    Modification time : Tue Mar 25 08:18:21 2014

@<TRIPOS>MOLECULE
1vzq_SHY_1_ligand
   59    64     1     0     0
SMALL
NO_CHARGES


@<TRIPOS>ATOM
      1 N1         11.2730   -9.8910   24.4230 N.pl3     1 SHY1256     0.0000 
      2 C3         11.5310  -10.9910   23.6610 C.ar      1 SHY1256     0.0000 
      3 N2         10.7380  -12.0870   23.8820 N.pl3     1 SHY1256     0.0000 
      4 C4         12.6280  -11.0420   22.7280 C.ar      1 SHY1256     0.0000 
      5 C9         13.3690   -9.8970   22.4750 C.ar      1 SHY1256     0.0000 
      6 C8         14.4520   -9.9450   21.5940 C.ar      1 SHY1256     0.0000 
      7 C7         14.8080  -11.1520   20.9470 C.ar      1 SHY1256     0.0000 
      8 C6         14.0210  -12.2790   21.1820 C.ar      1 SHY1256     0.0000 
      9 C5         12.9520  -12.2380   22.0500 C.ar      1 SHY1256     0.0000 
     10 C10        16.0330  -11.1260   20.0470 C.3       1 SHY1256     0.0000 
     11 N11        15.9840  -12.2420   19.0630 N.4       1 SHY1256     0.0000 
     12 C12        15.1070  -11.8710   17.9050 C.3       1 SHY1256     0.0000 
     13 C13        15.9910  -11.7140   16.6510 C.3       1 SHY1256     0.0000 
     14 C14        17.3470  -11.3690   17.2850 C.3       1 SHY1256     0.0000 
     15 C15        17.3700  -12.2570   18.5040 C.3       1 SHY1256     0.0000 
     16 C16        18.3570  -11.6980   19.5540 C.3       1 SHY1256     0.0000 
     17 C17        19.1540  -12.7910   20.1560 C.2       1 SHY1256     0.0000 
     18 N19        18.5860  -13.2780   21.3270 N.am      1 SHY1256     0.0000 
     19 C20        17.4670  -12.4790   21.6720 C.2       1 SHY1256     0.0000 
     20 O21        16.7470  -12.7340   22.6270 O.2       1 SHY1256     0.0000 
     21 C22        17.3990  -11.2870   20.7360 C.3       1 SHY1256     0.0000 
     22 C23        18.9930  -14.4320   22.1400 C.3       1 SHY1256     0.0000 
     23 C24        20.0690  -14.1490   23.1270 C.ar      1 SHY1256     0.0000 
     24 C32        19.6810  -13.8530   24.4260 C.ar      1 SHY1256     0.0000 
     25 C31        20.5780  -13.5150   25.4190 C.ar      1 SHY1256     0.0000 
     26 C30        21.9210  -13.4690   25.0290 C.ar      1 SHY1256     0.0000 
     27 O29        22.9690  -13.1850   25.8140 O.3       1 SHY1256     0.0000 
     28 C28        24.1320  -13.2920   24.9510 C.3       1 SHY1256     0.0000 
     29 O20        16.1570  -12.9510   15.9450 O.3       1 SHY1256     0.0000 
     30 O27        23.6860  -13.7380   23.6270 O.3       1 SHY1256     0.0000 
     31 C26        22.3270  -13.7490   23.7400 C.ar      1 SHY1256     0.0000 
     32 C25        21.4170  -14.1010   22.7560 C.ar      1 SHY1256     0.0000 
     33 O24        20.1560  -13.3290   19.7070 O.2       1 SHY1256     0.0000 
     34 H          11.8758   -9.1059   24.2807 H         1 SHY1256     0.0000 
     35 H          10.5036   -9.9658   25.0574 H         1 SHY1256     0.0000 
     36 H          10.0648  -12.0021   24.6166 H         1 SHY1256     0.0000 
     37 H          10.9021  -12.8755   23.2893 H         1 SHY1256     0.0000 
     38 H          13.1244   -9.0101   22.9341 H         1 SHY1256     0.0000 
     39 H          15.0030   -9.0959   21.4079 H         1 SHY1256     0.0000 
     40 H          14.2515  -13.1642   20.6889 H         1 SHY1256     0.0000 
     41 H          12.3766  -13.0755   22.2159 H         1 SHY1256     0.0000 
     42 H          16.0579  -10.1948   19.4826 H         1 SHY1256     0.0000 
     43 H          15.7436  -13.1334   19.4811 H         1 SHY1256     0.0000 
     44 H          14.6078  -10.9316   18.0962 H         1 SHY1256     0.0000 
     45 H          14.3787  -12.6479   17.7198 H         1 SHY1256     0.0000 
     46 H          15.6712  -10.9132   16.0908 H         1 SHY1256     0.0000 
     47 H          17.3527  -10.3514   17.5682 H         1 SHY1256     0.0000 
     48 H          18.1228  -11.6343   16.6190 H         1 SHY1256     0.0000 
     49 H          17.6489  -13.2371   18.2358 H         1 SHY1256     0.0000 
     50 H          18.8656  -10.9077   19.2395 H         1 SHY1256     0.0000 
     51 H          17.7405  -10.4245   21.1459 H         1 SHY1256     0.0000 
     52 H          19.3276  -15.2605   21.4705 H         1 SHY1256     0.0000 
     53 H          18.1053  -14.8382   22.6820 H         1 SHY1256     0.0000 
     54 H          18.6570  -13.8887   24.6613 H         1 SHY1256     0.0000 
     55 H          20.2970  -13.3151   26.3553 H         1 SHY1256     0.0000 
     56 H          24.8466  -14.0109   25.3625 H         1 SHY1256     0.0000 
     57 H          24.6333  -12.3234   24.8659 H         1 SHY1256     0.0000 
     58 H          21.7063  -14.3135   21.8157 H         1 SHY1256     0.0000 
     59 H          15.4012  -12.9789   15.2908 H         1 SHY1256     0.0000 
@<TRIPOS>BOND
     1    2    1 ar   
     2   34    1 1    
     3   35    1 1    
     4    3    2 ar   
     5    4    2 1    
     6   36    3 1    
     7   37    3 1    
     8    5    4 ar   
     9    9    4 ar   
    10    6    5 ar   
    11   38    5 1    
    12    7    6 ar   
    13   39    6 1    
    14    8    7 ar   
    15   10    7 1    
    16    9    8 ar   
    17   40    8 1    
    18   41    9 1    
    19   11   10 1    
    20   21   10 1    
    21   42   10 1    
    22   12   11 1    
    23   15   11 1    
    24   43   11 1    
    25   13   12 1    
    26   44   12 1    
    27   45   12 1    
    28   14   13 1    
    29   29   13 1    
    30   46   13 1    
    31   15   14 1    
    32   47   14 1    
    33   48   14 1    
    34   16   15 1    
    35   49   15 1    
    36   17   16 1    
    37   21   16 1    
    38   50   16 1    
    39   18   17 am   
    40   33   17 2    
    41   19   18 am   
    42   22   18 1    
    43   20   19 2    
    44   21   19 1    
    45   51   21 1    
    46   23   22 1    
    47   52   22 1    
    48   53   22 1    
    49   24   23 ar   
    50   32   23 ar   
    51   25   24 ar   
    52   54   24 1    
    53   26   25 ar   
    54   55   25 1    
    55   27   26 1    
    56   31   26 ar   
    57   28   27 1    
    58   30   28 1    
    59   56   28 1    
    60   57   28 1    
    61   59   29 1    
    62   31   30 1    
    63   32   31 ar   
    64   58   32 1    
@<TRIPOS>SUBSTRUCTURE
     1 SHY1256     1 GROUP   
@<TRIPOS>SET

