#    Name: 3cph_GDP_1_INTS_M
#    Modification time : Mon Mar 24 22:09:48 2014

@<TRIPOS>MOLECULE
3cph_GDP_1_INTS_M
   64     0    15     0     0
SMALL
NO_CHARGES


@<TRIPOS>ATOM
      1 NZ         54.2900   19.0370   10.0795 N.4       3 LYC4        0.0000 
      2 NZ         55.2450   19.7770    9.5060 N.4      13 LYL4        0.0000 
      3 NZ         53.3350   18.2970   10.6530 N.4       8 LYP4        0.0000 
      4 N          55.6295   21.1750    9.5145 N.am      2 SEC2        0.0000 
      5 N          55.2450   19.7770    9.5060 N.am     12 SEL2        0.0000 
      6 N          56.0140   22.5730    9.5230 N.am      7 SEP2        0.0000 
      7 N          56.3155   20.2235   10.3000 N.am      2 SEC2        0.0000 
      8 N          57.3860   20.6700   11.0940 N.am      7 SEP2        0.0000 
      9 N          54.2900   19.0370   10.0795 N.am      2 SEC2        0.0000 
     10 N          53.3350   18.2970   10.6530 N.am      7 SEP2        0.0000 
     11 Zn         57.0700   17.0490    8.1790 Zn        4 ZIC7        0.0000 
     12 Zn         56.8460   18.0810    8.6000 Zn       14 ZIL7        0.0000 
     13 Zn         57.2940   16.0170    7.7580 Zn        9 ZIP7        0.0000 
     14 N          58.0880   18.3780    9.5735 N.am      2 SEC2        0.0000 
     15 N          56.8460   18.0810    8.6000 N.am     12 SEL2        0.0000 
     16 N          59.3300   18.6750   10.5470 N.am      7 SEP2        0.0000 
     17 NZ         53.9860   18.4445    9.0845 N.4       3 LYC4        0.0000 
     18 NZ         54.6370   18.5920    7.5160 N.4      13 LYL4        0.0000 
     19 N          53.6740   19.5005    7.1265 N.am      2 SEC2        0.0000 
     20 N          54.6370   18.5920    7.5160 N.am     12 SEL2        0.0000 
     21 N          52.7110   20.4090    6.7370 N.am      7 SEP2        0.0000 
     22 N          53.9860   18.4445    9.0845 N.am      2 SEC2        0.0000 
     23 N          56.2710   21.4595    8.4895 N.am      2 SEC2        0.0000 
     24 N          56.5280   20.3460    7.4560 N.am     12 SEL2        0.0000 
     25 N          60.2535   20.2610    8.8040 N.am      2 SEC2        0.0000 
     26 N          59.0590   20.2730    7.9890 N.am     12 SEL2        0.0000 
     27 N          61.4480   20.2490    9.6190 N.am      7 SEP2        0.0000 
     28 CA         55.1125   21.9635    5.8405 C.3       5 GLC5        0.0000 
     29 CA         57.0570   22.2240    5.4150 C.3      15 GLL5        0.0000 
     30 CA         53.1680   21.7030    6.2660 C.3      10 GLP5        0.0000 
     31 CA         57.2675   22.4330    7.5415 C.3       5 GLC5        0.0000 
     32 CA         57.4780   22.6420    9.6680 C.3      10 GLP5        0.0000 
     33 CA         60.6950   23.2040    5.8710 C.3       5 GLC5        0.0000 
     34 CA         59.6710   24.0950    4.5470 C.3      15 GLL5        0.0000 
     35 CA         61.7190   22.3130    7.1950 C.3      10 GLP5        0.0000 
     36 O          62.1705   23.8800    3.4265 O.2       1 ALC1        0.0000 
     37 O          60.7310   24.6230    3.7450 O.2      11 ALL1        0.0000 
     38 O          63.6100   23.1370    3.1080 O.2       6 ALP1        0.0000 
     39 CA         57.3395   25.9805    6.1315 C.3       5 GLC5        0.0000 
     40 CA         58.7450   25.1800    5.0800 C.3      15 GLL5        0.0000 
     41 CA         55.9340   26.7810    7.1830 C.3      10 GLP5        0.0000 
     42 N          58.8945   25.6245    9.9360 N.am      2 SEC2        0.0000 
     43 N          59.7410   25.5010    8.5910 N.am     12 SEL2        0.0000 
     44 N          58.0480   25.7480   11.2810 N.am      7 SEP2        0.0000 
     45 CA         58.3055   27.5975    8.5735 C.3       5 GLC5        0.0000 
     46 CA         59.8070   26.7850    8.2150 C.3      15 GLL5        0.0000 
     47 CA         56.8040   28.4100    8.9320 C.3      10 GLP5        0.0000 
     48 CA         61.2095   26.1055    9.7070 C.3       5 GLC5        0.0000 
     49 CA         62.6120   25.4260   11.1990 C.3      10 GLP5        0.0000 
     50 N          61.2695   29.5435   10.4935 N.am      2 SEC2        0.0000 
     51 N          60.4900   28.1950   10.0490 N.am     12 SEL2        0.0000 
     52 N          62.0490   30.8920   10.9380 N.am      7 SEP2        0.0000 
     53 N          62.0485   28.1695    9.8785 N.am      2 SEC2        0.0000 
     54 N          63.6070   28.1440    9.7080 N.am      7 SEP2        0.0000 
     55 O          60.0570   30.5540    8.7300 O.2       1 ALC1        0.0000 
     56 O          60.0810   29.1610    8.0720 O.2      11 ALL1        0.0000 
     57 O          60.0330   31.9470    9.3880 O.2       6 ALP1        0.0000 
     58 O          60.1770   31.5255    6.7680 O.2       1 ALC1        0.0000 
     59 O          59.6680   30.2670    6.0500 O.2      11 ALL1        0.0000 
     60 O          60.6860   32.7840    7.4860 O.2       6 ALP1        0.0000 
     61 CA         57.6790   26.7945    6.9880 C.3       5 GLC5        0.0000 
     62 CA         59.4240   26.8080    6.7930 C.3      15 GLL5        0.0000 
     63 CA         61.0670   25.5917    5.2272 C.3       5 GLC5        0.0000 
     64 CA         62.9260   26.5460    5.6410 C.3      10 GLP5        0.0000 
@<TRIPOS>BOND
@<TRIPOS>SUBSTRUCTURE
     1 ALC1       36 GROUP        1 X    ALC  0     ROOT ALC X 1
     2 SEC2        4 GROUP        1 X    SEC  0     **** SEC X 2
     3 LYC4        1 GROUP        1 X    LYC  0     **** LYC X 4
     4 ZIC7       11 GROUP        1 X    ZIC  0     **** ZIC X 5
     5 GLC5       28 GROUP        1 X    GLC  0     **** GLC X 6
     6 ALP1       38 GROUP        1 Y    ALP  0     ROOT ALP Y 8
     7 SEP2        6 GROUP        1 Y    SEP  0     **** SEP Y 9
     8 LYP4        3 GROUP        1 Y    LYP  0     **** LYP Y 11
     9 ZIP7       13 GROUP        1 Y    ZIP  0     **** ZIP Y 12
    10 GLP5       30 GROUP        1 Y    GLP  0     **** GLP Y 13
    11 ALL1       37 GROUP        1 Z    ALL  0     ROOT ALL Z 15
    12 SEL2        5 GROUP        1 Z    SEL  0     **** SEL Z 16
    13 LYL4        2 GROUP        1 Z    LYL  0     **** LYL Z 18
    14 ZIL7       12 GROUP        1 Z    ZIL  0     **** ZIL Z 19
    15 GLL5       29 GROUP        1 Z    GLL  0     **** GLL Z 20
@<TRIPOS>SET

