#    Name: 3cph_GDP_1_ligand
#    Modification time : Mon Mar 24 22:09:48 2014

@<TRIPOS>MOLECULE
3cph_GDP_1_ligand
   40    42     1     0     0
SMALL
NO_CHARGES


@<TRIPOS>ATOM
      1 PB         55.8240   19.1500    8.2690 P.3       1 GDP302      0.0000 
      2 O1B        55.2450   19.7770    9.5060 O.co2     1 GDP302      0.0000 
      3 O2B        56.8460   18.0810    8.6000 O.co2     1 GDP302      0.0000 
      4 O3B        54.6370   18.5920    7.5160 O.co2     1 GDP302      0.0000 
      5 O3A        56.5280   20.3460    7.4560 O.3       1 GDP302      0.0000 
      6 PA         58.0270   20.2280    6.8870 P.3       1 GDP302      0.0000 
      7 O1A        59.0590   20.2730    7.9890 O.co2     1 GDP302      0.0000 
      8 O2A        58.1490   18.9400    6.1000 O.co2     1 GDP302      0.0000 
      9 O5'        58.1970   21.5370    5.9560 O.3       1 GDP302      0.0000 
     10 C5'        57.0570   22.2240    5.4150 C.3       1 GDP302      0.0000 
     11 C4'        57.4010   23.3570    4.4340 C.3       1 GDP302      0.0000 
     12 O4'        57.4280   24.6300    5.1040 O.3       1 GDP302      0.0000 
     13 C3'        58.7550   23.1940    3.7620 C.3       1 GDP302      0.0000 
     14 O3'        58.6830   23.6310    2.4100 O.3       1 GDP302      0.0000 
     15 C2'        59.6710   24.0950    4.5470 C.3       1 GDP302      0.0000 
     16 O2'        60.7310   24.6230    3.7450 O.3       1 GDP302      0.0000 
     17 C1'        58.7450   25.1800    5.0800 C.3       1 GDP302      0.0000 
     18 N9         59.1590   25.5750    6.4380 N.pl3     1 GDP302      0.0000 
     19 C8         59.3490   24.7780    7.5050 C.2       1 GDP302      0.0000 
     20 N7         59.7410   25.5010    8.5910 N.2       1 GDP302      0.0000 
     21 C5         59.8070   26.7850    8.2150 C.2       1 GDP302      0.0000 
     22 C6         60.1520   28.0800    8.8490 C.2       1 GDP302      0.0000 
     23 O6         60.4900   28.1950   10.0490 O.2       1 GDP302      0.0000 
     24 N1         60.0810   29.1610    8.0720 N.am      1 GDP302      0.0000 
     25 C2         59.7180   29.1150    6.7680 C.2       1 GDP302      0.0000 
     26 N2         59.6680   30.2670    6.0500 N.pl3     1 GDP302      0.0000 
     27 N3         59.3930   27.9660    6.1300 N.2       1 GDP302      0.0000 
     28 C4         59.4240   26.8080    6.7930 C.2       1 GDP302      0.0000 
     29 H          56.4347   22.6691    6.2254 H         1 GDP302      0.0000 
     30 H          56.3810   21.5191    4.8783 H         1 GDP302      0.0000 
     31 H          56.6428   23.3749    3.6510 H         1 GDP302      0.0000 
     32 H          59.0710   22.1950    3.8715 H         1 GDP302      0.0000 
     33 H          60.0312   23.5360    5.3971 H         1 GDP302      0.0000 
     34 H          58.8008   26.0180    4.4138 H         1 GDP302      0.0000 
     35 H          59.2244   23.8053    7.5100 H         1 GDP302      0.0000 
     36 H          60.3199   30.1123    8.4892 H         1 GDP302      0.0000 
     37 H          59.8738   31.1073    6.5515 H         1 GDP302      0.0000 
     38 H          59.4298   30.1730    5.0833 H         1 GDP302      0.0000 
     39 H          59.4722   24.2334    2.2904 H         1 GDP302      0.0000 
     40 H          61.4470   23.9254    3.7708 H         1 GDP302      0.0000 
@<TRIPOS>BOND
     1    2    1 ar   
     2    3    1 ar   
     3    4    1 ar   
     4    5    1 1    
     5    6    5 1    
     6    7    6 ar   
     7    8    6 ar   
     8    9    6 1    
     9   10    9 1    
    10   11   10 1    
    11   29   10 1    
    12   30   10 1    
    13   12   11 1    
    14   13   11 1    
    15   31   11 1    
    16   17   12 1    
    17   14   13 1    
    18   15   13 1    
    19   32   13 1    
    20   39   14 1    
    21   16   15 1    
    22   17   15 1    
    23   33   15 1    
    24   40   16 1    
    25   18   17 1    
    26   34   17 1    
    27   19   18 1    
    28   28   18 1    
    29   20   19 2    
    30   35   19 1    
    31   21   20 1    
    32   22   21 1    
    33   28   21 2    
    34   23   22 2    
    35   24   22 am   
    36   25   24 1    
    37   36   24 1    
    38   26   25 1    
    39   27   25 2    
    40   37   26 1    
    41   38   26 1    
    42   28   27 1    
@<TRIPOS>SUBSTRUCTURE
     1 GDP302      1 GROUP   
@<TRIPOS>SET

