#    Name: 2a5k_AZP_1_INTS_M
#    Modification time : Mon Mar 24 18:32:43 2014

@<TRIPOS>MOLECULE
2a5k_AZP_1_INTS_M
  106     0     9     0     0
SMALL
NO_CHARGES


@<TRIPOS>ATOM
      1 O          67.7320   22.1910   49.3985 O.2       1 ALC1        0.0000 
      2 O          67.5670   20.8850   49.0400 O.2       7 ALL1        0.0000 
      3 O          67.8970   23.4970   49.7570 O.2       4 ALP1        0.0000 
      4 CA         60.0915   23.2180   48.3740 C.3       3 GLC5        0.0000 
      5 CA         61.9090   23.3250   47.6550 C.3       9 GLL5        0.0000 
      6 CA         58.2740   23.1110   49.0930 C.3       6 GLP5        0.0000 
      7 CA         64.6955   24.8255   46.7875 C.3       3 GLC5        0.0000 
      8 CA         63.8530   23.1560   45.6890 C.3       9 GLL5        0.0000 
      9 CA         65.5380   26.4950   47.8860 C.3       6 GLP5        0.0000 
     10 CA         65.4805   24.4820   45.4835 C.3       3 GLC5        0.0000 
     11 CA         67.1080   25.8080   45.2780 C.3       6 GLP5        0.0000 
     12 CA         66.2985   19.3985   50.2710 C.3       3 GLC5        0.0000 
     13 CA         68.3570   19.9180   49.8230 C.3       9 GLL5        0.0000 
     14 CA         64.2400   18.8790   50.7190 C.3       6 GLP5        0.0000 
     15 CA         68.2120   18.2945   48.5315 C.3       3 GLC5        0.0000 
     16 CA         68.0670   16.6710   47.2400 C.3       6 GLP5        0.0000 
     17 CA         69.4635   17.9640   47.6260 C.3       3 GLC5        0.0000 
     18 CA         70.8600   19.2570   48.0120 C.3       9 GLL5        0.0000 
     19 N          67.2290   22.0275   52.1580 N.am      2 SEC2        0.0000 
     20 N          67.5210   20.7910   51.9170 N.am      8 SEL2        0.0000 
     21 N          66.9370   23.2640   52.3990 N.am      5 SEP2        0.0000 
     22 O          68.5185   17.5670   50.5485 O.2       1 ALC1        0.0000 
     23 O          67.8360   18.5850   51.7270 O.2       7 ALL1        0.0000 
     24 O          69.2010   16.5490   49.3700 O.2       4 ALP1        0.0000 
     25 CA         65.8265   18.6065   51.9020 C.3       3 GLC5        0.0000 
     26 CA         67.4130   18.3340   53.0850 C.3       9 GLL5        0.0000 
     27 CA         65.2275   17.4700   51.7105 C.3       3 GLC5        0.0000 
     28 CA         66.2150   16.0610   52.7020 C.3       9 GLL5        0.0000 
     29 CA         64.5190   15.5860   54.5045 C.3       3 GLC5        0.0000 
     30 CA         64.8720   16.2910   53.0590 C.3       9 GLL5        0.0000 
     31 CA         64.1660   14.8810   55.9500 C.3       6 GLP5        0.0000 
     32 CA         62.0220   15.9910   52.5595 C.3       3 GLC5        0.0000 
     33 CA         63.8190   15.5340   52.5110 C.3       9 GLL5        0.0000 
     34 CA         60.2250   16.4480   52.6080 C.3       6 GLP5        0.0000 
     35 CA         64.1470   16.6990   51.1440 C.3       3 GLC5        0.0000 
     36 CA         64.0540   14.5190   51.5690 C.3       9 GLL5        0.0000 
     37 CA         62.2345   15.7055   51.3725 C.3       3 GLC5        0.0000 
     38 CA         60.4150   16.8920   51.1760 C.3       6 GLP5        0.0000 
     39 O          66.5285   19.8350   55.1470 O.2       1 ALC1        0.0000 
     40 O          67.9790   19.6120   55.0350 O.2       7 ALL1        0.0000 
     41 O          65.0780   20.0580   55.2590 O.2       4 ALP1        0.0000 
     42 CA         67.7495   20.4750   57.5010 C.3       3 GLC5        0.0000 
     43 CA         68.9840   21.6210   56.1890 C.3       9 GLL5        0.0000 
     44 CA         66.5150   19.3290   58.8130 C.3       6 GLP5        0.0000 
     45 CA         67.7015   22.6375   57.2440 C.3       3 GLC5        0.0000 
     46 CA         66.4190   23.6540   58.2990 C.3       6 GLP5        0.0000 
     47 CA         71.9080   21.3035   56.3085 C.3       3 GLC5        0.0000 
     48 CA         70.1050   21.9410   55.2690 C.3       9 GLL5        0.0000 
     49 CA         73.7110   20.6660   57.3480 C.3       6 GLP5        0.0000 
     50 CA         69.5455   23.2750   53.8085 C.3       3 GLC5        0.0000 
     51 CA         68.9860   24.6090   52.3480 C.3       6 GLP5        0.0000 
     52 O          72.0615   25.3040   55.8030 O.2       1 ALC1        0.0000 
     53 O          71.4120   23.9980   55.0840 O.2       7 ALL1        0.0000 
     54 O          72.7110   26.6100   56.5220 O.2       4 ALP1        0.0000 
     55 O          71.2855   25.3630   54.1810 O.2       1 ALC1        0.0000 
     56 O          71.1590   26.7280   53.2780 O.2       4 ALP1        0.0000 
     57 N          68.0000   24.0690   56.3035 N.am      2 SEC2        0.0000 
     58 N          69.1530   24.0810   55.5500 N.am      8 SEL2        0.0000 
     59 N          66.8470   24.0570   57.0570 N.am      5 SEP2        0.0000 
     60 N          71.2640   19.7900   58.5200 N.am      2 SEC2        0.0000 
     61 N          70.0970   19.8850   57.8790 N.am      8 SEL2        0.0000 
     62 N          72.4310   19.6950   59.1610 N.am      5 SEP2        0.0000 
     63 N          69.0935   20.2625   59.0630 N.am      2 SEC2        0.0000 
     64 N          68.0900   20.6400   60.2470 N.am      5 SEP2        0.0000 
     65 O          71.8610   17.6760   55.8920 O.2       1 ALC1        0.0000 
     66 O          70.5560   17.3440   55.7730 O.2       7 ALL1        0.0000 
     67 O          73.1660   18.0080   56.0110 O.2       4 ALP1        0.0000 
     68 CA         68.6165   12.7845   57.8150 C.3       3 GLC5        0.0000 
     69 CA         68.0940   13.7390   56.3280 C.3       9 GLL5        0.0000 
     70 CA         69.1390   11.8300   59.3020 C.3       6 GLP5        0.0000 
     71 CA         66.6650   11.4950   54.4795 C.3       3 GLC5        0.0000 
     72 CA         67.7890   13.0840   55.0010 C.3       9 GLL5        0.0000 
     73 CA         65.5410    9.9060   53.9580 C.3       6 GLP5        0.0000 
     74 CA         67.8445   12.4250   53.1170 C.3       3 GLC5        0.0000 
     75 CA         67.9000   11.7660   51.2330 C.3       6 GLP5        0.0000 
     76 CA         62.1140   22.2705   45.7440 C.3       3 GLC5        0.0000 
     77 CA         62.8880   22.3270   47.7510 C.3       9 GLL5        0.0000 
     78 CA         60.8460   22.2520   44.2350 C.3       6 GLP5        0.0000 
     79 CA         63.1572   24.2930   48.4835 C.3       3 GLC5        0.0000 
     80 CA         63.6690   25.7790   49.5130 C.3       6 GLP5        0.0000 
     81 CA         61.3752   23.0160   45.6803 C.3       3 GLC5        0.0000 
     82 CA         62.7852   25.7225   46.8558 C.3       3 GLC5        0.0000 
     83 CA         61.9000   24.2350   46.5960 C.3       9 GLL5        0.0000 
     84 CA         63.1820   27.2470   47.6120 C.3       6 GLP5        0.0000 
     85 CA         62.1055   22.9552   44.9405 C.3       3 GLC5        0.0000 
     86 CA         62.8770   24.1610   45.6030 C.3       9 GLL5        0.0000 
     87 CA         66.1188   15.7900   54.6982 C.3       3 GLC5        0.0000 
     88 CA         65.4310   15.1350   56.3730 C.3       6 GLP5        0.0000 
     89 CA         68.3208   15.1305   52.2568 C.3       3 GLC5        0.0000 
     90 CA         69.8350   13.8160   51.4900 C.3       6 GLP5        0.0000 
     91 CA         63.9472   17.4823   52.5725 C.3       3 GLC5        0.0000 
     92 CA         63.5490   19.0520   52.3600 C.3       6 GLP5        0.0000 
     93 CA         63.7403   14.3392   53.7160 C.3       3 GLC5        0.0000 
     94 CA         63.5440   13.6520   55.3920 C.3       6 GLP5        0.0000 
     95 CA         63.4604   14.9829   49.9755 C.3       3 GLC5        0.0000 
     96 CA         65.3710   14.2770   51.2080 C.3       9 GLL5        0.0000 
     97 CA         62.2670   15.3140   48.3270 C.3       6 GLP5        0.0000 
     98 CA         66.3850   15.2040   49.4855 C.3       3 GLC5        0.0000 
     99 CA         66.8660   15.7470   47.4940 C.3       6 GLP5        0.0000 
    100 CA         66.4184   13.4767   50.7481 C.3       3 GLC5        0.0000 
    101 CA         66.4370   15.0450   51.7460 C.3       9 GLL5        0.0000 
    102 CA         67.2620   12.2320   49.9290 C.3       6 GLP5        0.0000 
    103 CA         68.5343   17.6983   58.0725 C.3       3 GLC5        0.0000 
    104 CA         70.0070   17.0050   57.0500 C.3       9 GLL5        0.0000 
    105 CA         67.6320   17.9040   58.9730 C.3       6 GLP5        0.0000 
    106 CA         66.6863   14.2733   56.0187 C.3       3 GLC5        0.0000 
@<TRIPOS>BOND
@<TRIPOS>SUBSTRUCTURE
     1 ALC1        1 GROUP        1 X    ALC  0     ROOT ALC X 1
     2 SEC2       19 GROUP        1 X    SEC  0     **** SEC X 2
     3 GLC5        4 GROUP        1 X    GLC  0     **** GLC X 6
     4 ALP1        3 GROUP        1 Y    ALP  0     ROOT ALP Y 8
     5 SEP2       21 GROUP        1 Y    SEP  0     **** SEP Y 9
     6 GLP5        6 GROUP        1 Y    GLP  0     **** GLP Y 13
     7 ALL1        2 GROUP        1 Z    ALL  0     ROOT ALL Z 15
     8 SEL2       20 GROUP        1 Z    SEL  0     **** SEL Z 16
     9 GLL5        5 GROUP        1 Z    GLL  0     **** GLL Z 20
@<TRIPOS>SET

