#    Name: 2a5k_AZP_1_ligand
#    Modification time : Mon Mar 24 18:32:43 2014

@<TRIPOS>MOLECULE
2a5k_AZP_1_ligand
   89    90     1     0     0
SMALL
NO_CHARGES


@<TRIPOS>ATOM
      1 N          67.5670   20.8850   49.0400 N.am      1 AZP307      0.0000 
      2 CAI        66.8610   20.5660   47.9450 C.2       1 AZP307      0.0000 
      3 OAH        66.2460   21.6740   47.2480 O.3       1 AZP307      0.0000 
      4 CAG        64.9580   21.1780   46.8260 C.3       1 AZP307      0.0000 
      5 CAE        63.8760   22.2510   46.7550 C.ar      1 AZP307      0.0000 
      6 CAD        62.8880   22.3270   47.7510 C.ar      1 AZP307      0.0000 
      7 CAC        61.9090   23.3250   47.6550 C.ar      1 AZP307      0.0000 
      8 CAB        61.9000   24.2350   46.5960 C.ar      1 AZP307      0.0000 
      9 CAA        62.8770   24.1610   45.6030 C.ar      1 AZP307      0.0000 
     10 CAF        63.8530   23.1560   45.6890 C.ar      1 AZP307      0.0000 
     11 OAL        66.7040   19.4230   47.5140 O.2       1 AZP307      0.0000 
     12 CA         68.3570   19.9180   49.8230 C.3       1 AZP307      0.0000 
     13 CB         69.8090   20.3700   49.9570 C.3       1 AZP307      0.0000 
     14 CG         70.5300   20.6040   48.6290 C.3       1 AZP307      0.0000 
     15 CD1        71.8230   21.3710   48.9470 C.3       1 AZP307      0.0000 
     16 CD2        70.8600   19.2570   48.0120 C.3       1 AZP307      0.0000 
     17 C          67.8620   19.8130   51.2280 C.2       1 AZP307      0.0000 
     18 O          67.5210   20.7910   51.9170 O.2       1 AZP307      0.0000 
     19 NAS        67.8360   18.5850   51.7270 N.am      1 AZP307      0.0000 
     20 CAT        67.4130   18.3340   53.0850 C.3       1 AZP307      0.0000 
     21 CAV        67.3980   16.8290   53.3450 C.3       1 AZP307      0.0000 
     22 CAW        66.2150   16.0610   52.7020 C.ar      1 AZP307      0.0000 
     23 CBF        64.8720   16.2910   53.0590 C.ar      1 AZP307      0.0000 
     24 CBG        63.8190   15.5340   52.5110 C.ar      1 AZP307      0.0000 
     25 CBH        64.0540   14.5190   51.5690 C.ar      1 AZP307      0.0000 
     26 CBI        65.3710   14.2770   51.2080 C.ar      1 AZP307      0.0000 
     27 CBJ        66.4370   15.0450   51.7460 C.ar      1 AZP307      0.0000 
     28 CAU        68.4380   19.0490   53.9120 C.2       1 AZP307      0.0000 
     29 OAY        69.6220   19.1160   53.5210 O.2       1 AZP307      0.0000 
     30 NAX        67.9790   19.6120   55.0350 N.am      1 AZP307      0.0000 
     31 NAZ        68.7800   20.1880   56.1170 N.am      1 AZP307      0.0000 
     32 CBA        68.9840   21.6210   56.1890 C.3       1 AZP307      0.0000 
     33 CBB        70.1050   21.9410   55.2690 C.3       1 AZP307      0.0000 
     34 CBC        70.1970   23.4410   55.3020 C.2       1 AZP307      0.0000 
     35 NBE        71.4120   23.9980   55.0840 N.am      1 AZP307      0.0000 
     36 OBD        69.1530   24.0810   55.5500 O.2       1 AZP307      0.0000 
     37 CBK        69.2980   19.4190   57.0970 C.2       1 AZP307      0.0000 
     38 OBL        70.0970   19.8850   57.8790 O.2       1 AZP307      0.0000 
     39 CBM        68.8660   17.9800   57.2940 C.3       1 AZP307      0.0000 
     40 CBO        70.0070   17.0050   57.0500 C.3       1 AZP307      0.0000 
     41 OBN        70.5560   17.3440   55.7730 O.3       1 AZP307      0.0000 
     42 CBP        69.4930   15.5740   57.1770 C.2       1 AZP307      0.0000 
     43 OBQ        69.5870   15.0140   58.2560 O.2       1 AZP307      0.0000 
     44 OBR        68.9160   14.8830   56.0090 O.3       1 AZP307      0.0000 
     45 CBS        68.0940   13.7390   56.3280 C.3       1 AZP307      0.0000 
     46 CBT        67.7890   13.0840   55.0010 C.3       1 AZP307      0.0000 
     47 H          67.5926   21.8723   49.4057 H         1 AZP307      0.0000 
     48 H          64.5966   20.3809   47.5120 H         1 AZP307      0.0000 
     49 H          65.0261   20.7023   45.8232 H         1 AZP307      0.0000 
     50 H          62.8848   21.6702   48.5254 H         1 AZP307      0.0000 
     51 H          61.1781   23.3871   48.3855 H         1 AZP307      0.0000 
     52 H          61.1734   24.9591   46.5486 H         1 AZP307      0.0000 
     53 H          62.8853   24.8210   44.8296 H         1 AZP307      0.0000 
     54 H          64.5703   23.0849   44.9463 H         1 AZP307      0.0000 
     55 H          68.3521   18.9485   49.3756 H         1 AZP307      0.0000 
     56 H          70.3676   19.6121   50.5365 H         1 AZP307      0.0000 
     57 H          69.8399   21.3037   50.5481 H         1 AZP307      0.0000 
     58 H          69.9232   21.1732   47.9905 H         1 AZP307      0.0000 
     59 H          68.1161   17.7510   51.1705 H         1 AZP307      0.0000 
     60 H          66.4563   18.7496   53.2622 H         1 AZP307      0.0000 
     61 H          67.3753   16.6497   54.4355 H         1 AZP307      0.0000 
     62 H          68.3406   16.3874   52.9729 H         1 AZP307      0.0000 
     63 H          64.6536   17.0368   53.7427 H         1 AZP307      0.0000 
     64 H          62.8485   15.7313   52.8105 H         1 AZP307      0.0000 
     65 H          63.2898   13.9920   51.1757 H         1 AZP307      0.0000 
     66 H          65.5957   13.5256   50.5348 H         1 AZP307      0.0000 
     67 H          67.4007   14.8532   51.4275 H         1 AZP307      0.0000 
     68 H          66.9197   19.6709   55.2058 H         1 AZP307      0.0000 
     69 H          69.2468   21.9246   57.1979 H         1 AZP307      0.0000 
     70 H          68.0933   22.1554   55.8727 H         1 AZP307      0.0000 
     71 H          69.8789   21.6145   54.2754 H         1 AZP307      0.0000 
     72 H          71.0182   21.5148   55.6289 H         1 AZP307      0.0000 
     73 H          72.1674   23.3606   54.9322 H         1 AZP307      0.0000 
     74 H          71.4461   24.9974   55.0942 H         1 AZP307      0.0000 
     75 H          68.0446   17.7505   56.6059 H         1 AZP307      0.0000 
     76 H          68.4951   17.8495   58.3168 H         1 AZP307      0.0000 
     77 H          70.7372   17.1820   57.8413 H         1 AZP307      0.0000 
     78 H          67.1666   14.0345   56.7915 H         1 AZP307      0.0000 
     79 H          68.6206   13.0342   56.9510 H         1 AZP307      0.0000 
     80 H          72.4188   20.8554   49.5628 H         1 AZP307      0.0000 
     81 H          72.3525   21.5649   48.1211 H         1 AZP307      0.0000 
     82 H          71.6353   22.2488   49.3877 H         1 AZP307      0.0000 
     83 H          71.3349   19.3554   47.1375 H         1 AZP307      0.0000 
     84 H          71.4504   18.7109   48.6063 H         1 AZP307      0.0000 
     85 H          70.0369   18.7160   47.8393 H         1 AZP307      0.0000 
     86 H          68.6223   12.7992   54.5272 H         1 AZP307      0.0000 
     87 H          67.2212   12.2683   55.1113 H         1 AZP307      0.0000 
     88 H          67.2986   13.7015   54.3860 H         1 AZP307      0.0000 
     89 H          71.5148   17.5634   55.9536 H         1 AZP307      0.0000 
@<TRIPOS>BOND
     1    2    1 am   
     2   12    1 1    
     3   47    1 1    
     4    3    2 1    
     5   11    2 2    
     6    4    3 1    
     7    5    4 1    
     8   48    4 1    
     9   49    4 1    
    10    6    5 ar   
    11   10    5 ar   
    12    7    6 ar   
    13   50    6 1    
    14    8    7 ar   
    15   51    7 1    
    16    9    8 ar   
    17   52    8 1    
    18   10    9 ar   
    19   53    9 1    
    20   54   10 1    
    21   13   12 1    
    22   17   12 1    
    23   55   12 1    
    24   14   13 1    
    25   56   13 1    
    26   57   13 1    
    27   15   14 1    
    28   16   14 1    
    29   58   14 1    
    30   80   15 1    
    31   81   15 1    
    32   82   15 1    
    33   83   16 1    
    34   84   16 1    
    35   85   16 1    
    36   18   17 2    
    37   19   17 am   
    38   20   19 1    
    39   59   19 1    
    40   21   20 1    
    41   28   20 1    
    42   60   20 1    
    43   22   21 1    
    44   61   21 1    
    45   62   21 1    
    46   23   22 ar   
    47   27   22 ar   
    48   24   23 ar   
    49   63   23 1    
    50   25   24 ar   
    51   64   24 1    
    52   26   25 ar   
    53   65   25 1    
    54   27   26 ar   
    55   66   26 1    
    56   67   27 1    
    57   29   28 2    
    58   30   28 am   
    59   31   30 1    
    60   68   30 1    
    61   32   31 1    
    62   37   31 am   
    63   33   32 1    
    64   69   32 1    
    65   70   32 1    
    66   34   33 1    
    67   71   33 1    
    68   72   33 1    
    69   35   34 am   
    70   36   34 2    
    71   73   35 1    
    72   74   35 1    
    73   38   37 2    
    74   39   37 1    
    75   40   39 1    
    76   75   39 1    
    77   76   39 1    
    78   41   40 1    
    79   42   40 1    
    80   77   40 1    
    81   89   41 1    
    82   43   42 2    
    83   44   42 1    
    84   45   44 1    
    85   46   45 1    
    86   78   45 1    
    87   79   45 1    
    88   86   46 1    
    89   87   46 1    
    90   88   46 1    
@<TRIPOS>SUBSTRUCTURE
     1 AZP307      1 GROUP   
@<TRIPOS>SET

