#    Name: 3cqe_P91_1_INTS_M
#    Modification time : Mon Mar 24 22:11:58 2014

@<TRIPOS>MOLECULE
3cqe_P91_1_INTS_M
   65     0     9     0     0
SMALL
NO_CHARGES


@<TRIPOS>ATOM
      1 N           8.8940   54.7960   26.9710 N.am      2 SEC2        0.0000 
      2 N           7.5480   54.2610   27.0800 N.am      8 SEL2        0.0000 
      3 N          10.2400   55.3310   26.8620 N.am      5 SEP2        0.0000 
      4 N           4.1550   53.9885   32.0160 N.am      2 SEC2        0.0000 
      5 N           4.6950   53.6630   30.5430 N.am      8 SEL2        0.0000 
      6 N           3.6150   54.3140   33.4890 N.am      5 SEP2        0.0000 
      7 N           7.3385   50.3920   20.7440 N.am      2 SEC2        0.0000 
      8 N           6.6130   51.1890   19.7060 N.am      8 SEL2        0.0000 
      9 N           8.0640   49.5950   21.7820 N.am      5 SEP2        0.0000 
     10 O           5.7940   50.5995   18.9115 O.2       1 ALC1        0.0000 
     11 O           6.6130   51.1890   19.7060 O.2       7 ALL1        0.0000 
     12 O           4.9750   50.0100   18.1170 O.2       4 ALP1        0.0000 
     13 O           7.3520   54.9520   29.5580 O.2       1 ALC1        0.0000 
     14 O           6.4220   54.0460   29.0600 O.2       7 ALL1        0.0000 
     15 O           8.2820   55.8580   30.0560 O.2       4 ALP1        0.0000 
     16 CA          4.4135   55.0720   20.5885 C.3       3 GLC5        0.0000 
     17 CA          5.6490   53.4990   19.7640 C.3       9 GLL5        0.0000 
     18 CA          3.1780   56.6450   21.4130 C.3       6 GLP5        0.0000 
     19 CA          8.0735   52.1355   20.5810 C.3       3 GLC5        0.0000 
     20 CA          6.8590   52.5990   19.4350 C.3       9 GLL5        0.0000 
     21 CA          9.2880   51.6720   21.7270 C.3       6 GLP5        0.0000 
     22 CA          5.7665   55.2545   23.9440 C.3       3 GLC5        0.0000 
     23 CA          7.2940   53.7920   24.1550 C.3       9 GLL5        0.0000 
     24 CA          4.2390   56.7170   23.7330 C.3       6 GLP5        0.0000 
     25 CA          7.8580   55.7480   23.9815 C.3       3 GLC5        0.0000 
     26 CA          8.4220   57.7040   23.8080 C.3       6 GLP5        0.0000 
     27 CA          9.0540   53.3680   25.4110 C.3       3 GLC5        0.0000 
     28 CA         10.8140   52.9440   26.6670 C.3       6 GLP5        0.0000 
     29 CA          8.2910   52.7320   22.9410 C.3       3 GLC5        0.0000 
     30 CA          6.9380   51.9365   24.9515 C.3       3 GLC5        0.0000 
     31 CA          6.5820   50.0810   25.7480 C.3       6 GLP5        0.0000 
     32 CA          0.4985   53.4075   22.8340 C.3       3 GLC5        0.0000 
     33 CA          1.9800   52.2610   23.5810 C.3       9 GLL5        0.0000 
     34 CA         -0.9830   54.5540   22.0870 C.3       6 GLP5        0.0000 
     35 CA          3.5880   51.1695   24.6575 C.3       3 GLC5        0.0000 
     36 CA          5.1960   50.0780   25.7340 C.3       6 GLP5        0.0000 
     37 CA          1.2360   49.6555   29.9220 C.3       3 GLC5        0.0000 
     38 CA          1.4730   51.5360   29.2460 C.3       9 GLL5        0.0000 
     39 CA          0.9990   47.7750   30.5980 C.3       6 GLP5        0.0000 
     40 CA          1.9150   55.8500   28.1450 C.3       3 GLC5        0.0000 
     41 CA          2.5330   55.4650   29.8640 C.3       9 GLL5        0.0000 
     42 CA          1.2970   56.2350   26.4260 C.3       6 GLP5        0.0000 
     43 CA          3.8435   56.3620   29.0265 C.3       3 GLC5        0.0000 
     44 CA          5.1540   57.2590   28.1890 C.3       6 GLP5        0.0000 
     45 CA          2.0650   57.6390   29.8385 C.3       3 GLC5        0.0000 
     46 CA          1.5970   59.8130   29.8130 C.3       6 GLP5        0.0000 
     47 CA          0.4920   55.7815   30.0360 C.3       3 GLC5        0.0000 
     48 CA         -1.5490   56.0980   30.2080 C.3       6 GLP5        0.0000 
     49 CA          3.9605   55.6710   31.3665 C.3       3 GLC5        0.0000 
     50 CA          5.3880   55.8770   32.8690 C.3       6 GLP5        0.0000 
     51 CA          4.9700   55.3660   27.9240 C.3       3 GLC5        0.0000 
     52 CA          4.3560   53.3930   28.1950 C.3       9 GLL5        0.0000 
     53 CA          1.6245   54.7795   27.9885 C.3       3 GLC5        0.0000 
     54 CA          2.0950   52.8120   29.1020 C.3       9 GLL5        0.0000 
     55 CA         -0.0962   54.9062   30.3665 C.3       3 GLC5        0.0000 
     56 CA          1.8090   53.8360   30.0000 C.3       9 GLL5        0.0000 
     57 CA         -1.0118   52.8135   30.1880 C.3       3 GLC5        0.0000 
     58 CA          0.3040   52.3220   31.2050 C.3       9 GLL5        0.0000 
     59 CA         -2.4590   53.8220   29.6310 C.3       6 GLP5        0.0000 
     60 CA          0.9868   50.1055   31.3225 C.3       3 GLC5        0.0000 
     61 CA          1.5380   48.4060   31.9000 C.3       6 GLP5        0.0000 
     62 CA          2.2135   54.5482   26.4235 C.3       3 GLC5        0.0000 
     63 CA          3.4440   52.8770   25.5410 C.3       9 GLL5        0.0000 
     64 CA          4.3734   54.9218   24.2934 C.3       3 GLC5        0.0000 
     65 CA          4.7640   53.2920   25.8010 C.3       9 GLL5        0.0000 
@<TRIPOS>BOND
@<TRIPOS>SUBSTRUCTURE
     1 ALC1       10 GROUP        1 X    ALC  0     ROOT ALC X 1
     2 SEC2        1 GROUP        1 X    SEC  0     **** SEC X 2
     3 GLC5       16 GROUP        1 X    GLC  0     **** GLC X 6
     4 ALP1       12 GROUP        1 Y    ALP  0     ROOT ALP Y 8
     5 SEP2        3 GROUP        1 Y    SEP  0     **** SEP Y 9
     6 GLP5       18 GROUP        1 Y    GLP  0     **** GLP Y 13
     7 ALL1       11 GROUP        1 Z    ALL  0     ROOT ALL Z 15
     8 SEL2        2 GROUP        1 Z    SEL  0     **** SEL Z 16
     9 GLL5       17 GROUP        1 Z    GLL  0     **** GLL Z 20
@<TRIPOS>SET

