#    Name: 3cqe_P91_1_ligand
#    Modification time : Mon Mar 24 22:11:58 2014

@<TRIPOS>MOLECULE
3cqe_P91_1_ligand
   44    47     1     0     0
SMALL
NO_CHARGES


@<TRIPOS>ATOM
      1 C1          2.5970   52.7020   26.6480 C.ar      1 P91901      0.0000 
      2 C2          3.0350   52.9900   27.9540 C.ar      1 P91901      0.0000 
      3 C3          4.3560   53.3930   28.1950 C.ar      1 P91901      0.0000 
      4 C4          5.2160   53.5530   27.1230 C.ar      1 P91901      0.0000 
      5 C5          6.4540   53.9590   27.6900 C.2       1 P91901      0.0000 
      6 C6          5.1500   53.6970   29.3330 C.2       1 P91901      0.0000 
      7 C7          2.0950   52.8120   29.1020 C.ar      1 P91901      0.0000 
      8 O1          7.5480   54.2610   27.0800 O.2       1 P91901      0.0000 
      9 O2          4.6950   53.6630   30.5430 O.2       1 P91901      0.0000 
     10 O3          6.6130   51.1890   19.7060 O.3       1 P91901      0.0000 
     11 O4          4.1210   51.9090   21.5830 O.2       1 P91901      0.0000 
     12 C8          1.8090   53.8360   30.0000 C.ar      1 P91901      0.0000 
     13 N1          6.4220   54.0460   29.0600 N.am      1 P91901      0.0000 
     14 C9          0.9040   53.5930   31.0500 C.ar      1 P91901      0.0000 
     15 C10         0.3040   52.3220   31.2050 C.ar      1 P91901      0.0000 
     16 C11         0.5670   51.2880   30.2850 C.ar      1 P91901      0.0000 
     17 C22         4.6910   52.8660   22.0380 C.2       1 P91901      0.0000 
     18 N3          5.4650   53.6580   21.2320 N.am      1 P91901      0.0000 
     19 C17         5.6490   53.4990   19.7640 C.3       1 P91901      0.0000 
     20 C18         6.8590   52.5990   19.4350 C.3       1 P91901      0.0000 
     21 C16         4.4260   52.9730   23.5180 C.2       1 P91901      0.0000 
     22 C15         5.3970   53.3640   24.5550 C.2       1 P91901      0.0000 
     23 BR          7.2940   53.7920   24.1550 Br        1 P91901      0.0000 
     24 N2          3.2630   52.7030   24.1890 N.pl3     1 P91901      0.0000 
     25 C21         1.9800   52.2610   23.5810 C.3       1 P91901      0.0000 
     26 C14         3.4440   52.8770   25.5410 C.ar      1 P91901      0.0000 
     27 C13         4.7640   53.2920   25.8010 C.ar      1 P91901      0.0000 
     28 C12         1.4730   51.5360   29.2460 C.ar      1 P91901      0.0000 
     29 CL          2.5330   55.4650   29.8640 Cl        1 P91901      0.0000 
     30 H           1.6361   52.3561   26.5020 H         1 P91901      0.0000 
     31 H           7.1050   54.2838   29.6307 H         1 P91901      0.0000 
     32 H           0.6753   54.3437   31.7113 H         1 P91901      0.0000 
     33 H          -0.3279   52.1536   31.9950 H         1 P91901      0.0000 
     34 H           0.1105   50.3893   30.3758 H         1 P91901      0.0000 
     35 H           6.0012   54.4724   21.6503 H         1 P91901      0.0000 
     36 H           5.8106   54.4742   19.2922 H         1 P91901      0.0000 
     37 H           4.7570   53.0496   19.3144 H         1 P91901      0.0000 
     38 H           7.1120   52.7584   18.3710 H         1 P91901      0.0000 
     39 H           7.7185   52.9700   20.0225 H         1 P91901      0.0000 
     40 H           1.7007   50.7949   28.5712 H         1 P91901      0.0000 
     41 H           2.0803   51.3955   23.0903 H         1 P91901      0.0000 
     42 H           1.2690   52.1260   24.2711 H         1 P91901      0.0000 
     43 H           1.6294   52.9304   22.9260 H         1 P91901      0.0000 
     44 H           6.4180   50.7840   18.8127 H         1 P91901      0.0000 
@<TRIPOS>BOND
     1    2    1 ar   
     2   26    1 ar   
     3   30    1 1    
     4    3    2 ar   
     5    7    2 1    
     6    4    3 ar   
     7    6    3 1    
     8    5    4 1    
     9   27    4 ar   
    10    8    5 2    
    11   13    5 am   
    12    9    6 2    
    13   13    6 am   
    14   12    7 ar   
    15   28    7 ar   
    16   20   10 1    
    17   44   10 1    
    18   17   11 2    
    19   14   12 ar   
    20   29   12 1    
    21   31   13 1    
    22   15   14 ar   
    23   32   14 1    
    24   16   15 ar   
    25   33   15 1    
    26   28   16 ar   
    27   34   16 1    
    28   18   17 am   
    29   21   17 1    
    30   19   18 1    
    31   35   18 1    
    32   20   19 1    
    33   36   19 1    
    34   37   19 1    
    35   38   20 1    
    36   39   20 1    
    37   22   21 2    
    38   24   21 1    
    39   23   22 1    
    40   27   22 1    
    41   25   24 1    
    42   26   24 1    
    43   41   25 1    
    44   42   25 1    
    45   43   25 1    
    46   27   26 ar   
    47   40   28 1    
@<TRIPOS>SUBSTRUCTURE
     1 P91901      1 GROUP   
@<TRIPOS>SET

