#    Name: 3a3b_RBF_1_INTS_M
#    Modification time : Tue Mar 25 11:33:16 2014

@<TRIPOS>MOLECULE
3a3b_RBF_1_INTS_M
   61     0     9     0     0
SMALL
NO_CHARGES


@<TRIPOS>ATOM
      1 N         -14.8785    0.6035   21.3790 N.am      2 SEC2        0.0000 
      2 N         -15.3950   -0.4650   20.6470 N.am      8 SEL2        0.0000 
      3 N         -14.3620    1.6720   22.1110 N.am      5 SEP2        0.0000 
      4 N         -14.1365   -0.6035   19.9315 N.am      2 SEC2        0.0000 
      5 N         -12.8780   -0.7420   19.2160 N.am      5 SEP2        0.0000 
      6 O         -17.6550   -0.0720   22.1035 O.2       1 ALC1        0.0000 
      7 O         -17.3240   -1.2700   21.4820 O.2       7 ALL1        0.0000 
      8 O         -17.9860    1.1260   22.7250 O.2       4 ALP1        0.0000 
      9 N         -20.5705   -2.4615   21.7525 N.am      2 SEC2        0.0000 
     10 N         -19.2550   -2.1090   22.2810 N.am      8 SEL2        0.0000 
     11 N         -21.8860   -2.8140   21.2240 N.am      5 SEP2        0.0000 
     12 N         -20.0200   -4.7930   21.9340 N.am      2 SEC2        0.0000 
     13 N         -18.8080   -4.6300   21.0710 N.am      8 SEL2        0.0000 
     14 N         -21.2320   -4.9560   22.7970 N.am      5 SEP2        0.0000 
     15 CA        -19.7450   -4.1985   19.7055 C.3       3 GLC5        0.0000 
     16 CA        -18.5360   -5.8170   20.4200 C.3       9 GLL5        0.0000 
     17 CA        -20.9540   -2.5800   18.9910 C.3       6 GLP5        0.0000 
     18 CA        -16.3615  -11.0530   19.0145 C.3       3 GLC5        0.0000 
     19 CA        -17.5180   -9.5510   18.3870 C.3       9 GLL5        0.0000 
     20 CA        -15.2050  -12.5550   19.6420 C.3       6 GLP5        0.0000 
     21 CA        -13.4445   -4.5305   19.7050 C.3       3 GLC5        0.0000 
     22 CA        -15.1630   -4.8260   18.7160 C.3       9 GLL5        0.0000 
     23 CA        -11.7260   -4.2350   20.6940 C.3       6 GLP5        0.0000 
     24 CA        -16.2145   -2.7470   16.2155 C.3       3 GLC5        0.0000 
     25 CA        -15.3040   -4.0930   17.3830 C.3       9 GLL5        0.0000 
     26 CA        -17.1250   -1.4010   15.0480 C.3       6 GLP5        0.0000 
     27 O         -17.5505   -4.1635   17.0625 O.2       1 ALC1        0.0000 
     28 O         -16.3750   -4.6520   16.5990 O.2       7 ALL1        0.0000 
     29 O         -18.7260   -3.6750   17.5260 O.2       4 ALP1        0.0000 
     30 O         -12.0205   -4.6165   17.3935 O.2       1 ALC1        0.0000 
     31 O         -13.0100   -3.7010   17.4580 O.2       7 ALL1        0.0000 
     32 O         -11.0310   -5.5320   17.3290 O.2       4 ALP1        0.0000 
     33 CA        -15.5235   -2.4430   15.1885 C.3       3 GLC5        0.0000 
     34 CA        -13.9220   -3.4850   15.3290 C.3       9 GLL5        0.0000 
     35 N         -14.6780   -4.3565   12.9380 N.am      2 SEC2        0.0000 
     36 N         -14.8200   -4.0540   14.4180 N.am      8 SEL2        0.0000 
     37 N         -14.5360   -4.6590   11.4580 N.am      5 SEP2        0.0000 
     38 CA        -10.8910   -3.8950   15.7600 C.3       3 GLC5        0.0000 
     39 CA        -12.5590   -3.6940   14.7140 C.3       9 GLL5        0.0000 
     40 CA         -9.2230   -4.0960   16.8060 C.3       6 GLP5        0.0000 
     41 CA        -11.1515   -2.1610   14.0420 C.3       3 GLC5        0.0000 
     42 CA         -9.7440   -0.6280   13.3700 C.3       6 GLP5        0.0000 
     43 CA        -13.4870   -2.9560   12.8260 C.3       3 GLC5        0.0000 
     44 CA        -14.4150   -2.2180   10.9380 C.3       6 GLP5        0.0000 
     45 N         -11.5365   -1.8695   14.0625 N.am      2 SEC2        0.0000 
     46 N         -12.4040   -2.7000   13.7320 N.am      8 SEL2        0.0000 
     47 N         -10.6690   -1.0390   14.3930 N.am      5 SEP2        0.0000 
     48 O         -12.1445   -3.3285   12.5635 O.2       1 ALC1        0.0000 
     49 O         -12.4040   -2.7000   13.7320 O.2       7 ALL1        0.0000 
     50 O         -11.8850   -3.9570   11.3950 O.2       4 ALP1        0.0000 
     51 CA        -19.3140   -6.2327   18.3370 C.3       3 GLC5        0.0000 
     52 CA        -19.6650   -6.1030   16.1910 C.3       6 GLP5        0.0000 
     53 CA        -19.0782   -7.1383   17.8365 C.3       3 GLC5        0.0000 
     54 CA        -19.1020   -8.1140   19.8930 C.3       9 GLL5        0.0000 
     55 CA        -21.1337   -7.8933   19.4549 C.3       3 GLC5        0.0000 
     56 CA        -19.3900   -6.9080   20.5460 C.3       9 GLL5        0.0000 
     57 CA        -22.6360   -7.3770   18.7610 C.3       6 GLP5        0.0000 
     58 CA        -18.4143   -6.3237   17.7368 C.3       3 GLC5        0.0000 
     59 CA        -17.0240   -7.1520   18.9530 C.3       9 GLL5        0.0000 
     60 CA        -14.3919   -2.0415   16.7794 C.3       3 GLC5        0.0000 
     61 CA        -14.4980   -0.2550   17.3920 C.3       6 GLP5        0.0000 
@<TRIPOS>BOND
@<TRIPOS>SUBSTRUCTURE
     1 ALC1        6 GROUP        1 X    ALC  0     ROOT ALC X 1
     2 SEC2        1 GROUP        1 X    SEC  0     **** SEC X 2
     3 GLC5       15 GROUP        1 X    GLC  0     **** GLC X 6
     4 ALP1        8 GROUP        1 Y    ALP  0     ROOT ALP Y 8
     5 SEP2        3 GROUP        1 Y    SEP  0     **** SEP Y 9
     6 GLP5       17 GROUP        1 Y    GLP  0     **** GLP Y 13
     7 ALL1        7 GROUP        1 Z    ALL  0     ROOT ALL Z 15
     8 SEL2        2 GROUP        1 Z    SEL  0     **** SEL Z 16
     9 GLL5       16 GROUP        1 Z    GLL  0     **** GLL Z 20
@<TRIPOS>SET

