#    Name: 3a3b_RBF_1_ligand
#    Modification time : Tue Mar 25 11:33:16 2014

@<TRIPOS>MOLECULE
3a3b_RBF_1_ligand
   47    49     1     0     0
SMALL
NO_CHARGES


@<TRIPOS>ATOM
      1 N1        -15.9470   -2.5630   20.1080 N.2       1 RBF191      0.0000 
      2 C2        -16.2200   -1.4100   20.7480 C.2       1 RBF191      0.0000 
      3 O2        -15.3950   -0.4650   20.6470 O.2       1 RBF191      0.0000 
      4 N3        -17.3240   -1.2700   21.4820 N.am      1 RBF191      0.0000 
      5 C4        -18.2130   -2.2620   21.6110 C.2       1 RBF191      0.0000 
      6 O4        -19.2550   -2.1090   22.2810 O.2       1 RBF191      0.0000 
      7 C4A       -17.9600   -3.5660   20.9630 C.2       1 RBF191      0.0000 
      8 N5        -18.8080   -4.6300   21.0710 N.2       1 RBF191      0.0000 
      9 C5A       -18.5360   -5.8170   20.4200 C.ar      1 RBF191      0.0000 
     10 C6        -19.3900   -6.9080   20.5460 C.ar      1 RBF191      0.0000 
     11 C7        -19.1020   -8.1140   19.8930 C.ar      1 RBF191      0.0000 
     12 C7M       -20.0170   -9.3080   20.0780 C.3       1 RBF191      0.0000 
     13 C8        -17.8810   -8.2330   19.0710 C.ar      1 RBF191      0.0000 
     14 C8M       -17.5180   -9.5510   18.3870 C.3       1 RBF191      0.0000 
     15 C9        -17.0240   -7.1520   18.9530 C.ar      1 RBF191      0.0000 
     16 C9A       -17.3030   -5.9370   19.6120 C.ar      1 RBF191      0.0000 
     17 N10       -16.4210   -4.8180   19.5090 N.pl3     1 RBF191      0.0000 
     18 C10       -16.7560   -3.6310   20.1610 C.2       1 RBF191      0.0000 
     19 C1'       -15.1630   -4.8260   18.7160 C.3       1 RBF191      0.0000 
     20 C2'       -15.3040   -4.0930   17.3830 C.3       1 RBF191      0.0000 
     21 O2'       -16.3750   -4.6520   16.5990 O.3       1 RBF191      0.0000 
     22 C3'       -13.9950   -4.2490   16.6260 C.3       1 RBF191      0.0000 
     23 O3'       -13.0100   -3.7010   17.4580 O.3       1 RBF191      0.0000 
     24 C4'       -13.9220   -3.4850   15.3290 C.3       1 RBF191      0.0000 
     25 O4'       -14.8200   -4.0540   14.4180 O.3       1 RBF191      0.0000 
     26 C5'       -12.5590   -3.6940   14.7140 C.3       1 RBF191      0.0000 
     27 O5'       -12.4040   -2.7000   13.7320 O.3       1 RBF191      0.0000 
     28 H         -17.5041   -0.3520   21.9761 H         1 RBF191      0.0000 
     29 H         -20.2402   -6.8334   21.1217 H         1 RBF191      0.0000 
     30 H         -16.1700   -7.2249   18.3799 H         1 RBF191      0.0000 
     31 H         -14.8525   -5.8624   18.5118 H         1 RBF191      0.0000 
     32 H         -14.3523   -4.3511   19.2900 H         1 RBF191      0.0000 
     33 H         -15.4565   -3.0520   17.5813 H         1 RBF191      0.0000 
     34 H         -13.8104   -5.2850   16.4488 H         1 RBF191      0.0000 
     35 H         -14.0827   -2.4642   15.4896 H         1 RBF191      0.0000 
     36 H         -12.5266   -4.6982   14.2958 H         1 RBF191      0.0000 
     37 H         -11.8152   -3.6151   15.5044 H         1 RBF191      0.0000 
     38 H         -19.7000  -10.1026   19.5601 H         1 RBF191      0.0000 
     39 H         -20.0745   -9.5868   21.0366 H         1 RBF191      0.0000 
     40 H         -20.9491   -9.1123   19.7733 H         1 RBF191      0.0000 
     41 H         -16.6660   -9.4780   17.8685 H         1 RBF191      0.0000 
     42 H         -17.3963  -10.2913   19.0481 H         1 RBF191      0.0000 
     43 H         -18.2271   -9.8443   17.7458 H         1 RBF191      0.0000 
     44 H         -17.2107   -4.2682   16.9918 H         1 RBF191      0.0000 
     45 H         -12.2501   -4.3500   17.4214 H         1 RBF191      0.0000 
     46 H         -15.2981   -4.7639   14.9351 H         1 RBF191      0.0000 
     47 H         -12.2400   -3.1999   12.8816 H         1 RBF191      0.0000 
@<TRIPOS>BOND
     1    2    1 1    
     2   18    1 2    
     3    3    2 2    
     4    4    2 am   
     5    5    4 am   
     6   28    4 1    
     7    6    5 2    
     8    7    5 1    
     9    8    7 2    
    10   18    7 1    
    11    9    8 1    
    12   10    9 ar   
    13   16    9 ar   
    14   11   10 ar   
    15   29   10 1    
    16   12   11 1    
    17   13   11 ar   
    18   38   12 1    
    19   39   12 1    
    20   40   12 1    
    21   14   13 1    
    22   15   13 ar   
    23   41   14 1    
    24   42   14 1    
    25   43   14 1    
    26   16   15 ar   
    27   30   15 1    
    28   17   16 1    
    29   18   17 1    
    30   19   17 1    
    31   20   19 1    
    32   31   19 1    
    33   32   19 1    
    34   21   20 1    
    35   22   20 1    
    36   33   20 1    
    37   44   21 1    
    38   23   22 1    
    39   24   22 1    
    40   34   22 1    
    41   45   23 1    
    42   25   24 1    
    43   26   24 1    
    44   35   24 1    
    45   46   25 1    
    46   27   26 1    
    47   36   26 1    
    48   37   26 1    
    49   47   27 1    
@<TRIPOS>SUBSTRUCTURE
     1 RBF191      1 GROUP   
@<TRIPOS>SET

