#    Name: 4giy_0WY_1_INTS_M
#    Modification time : Mon Mar 24 22:17:05 2014

@<TRIPOS>MOLECULE
4giy_0WY_1_INTS_M
   78     0    12     0     0
SMALL
NO_CHARGES


@<TRIPOS>ATOM
      1 CA        -10.9410   14.5790  -20.4585 C.3       4 GLC5        0.0000 
      2 CA        -11.6500   14.9290  -18.4470 C.3      12 GLL5        0.0000 
      3 CA        -10.2320   14.2290  -22.4700 C.3       8 GLP5        0.0000 
      4 OD1       -13.9850   13.4930  -17.8315 O.co2     3 ASC3        0.0000 
      5 OD1       -13.0020   15.0070  -17.8570 O.co2    11 ASL3        0.0000 
      6 OD1       -14.9680   11.9790  -17.8060 O.co2     7 ASP3        0.0000 
      7 OD1       -13.2740   13.9240  -17.1050 O.co2     3 ASC3        0.0000 
      8 OD1       -13.5460   12.8410  -16.3530 O.co2     7 ASP3        0.0000 
      9 CA        -15.8240   14.5455  -19.8185 C.3       4 GLC5        0.0000 
     10 CA        -14.0410   15.2590  -18.8730 C.3      12 GLL5        0.0000 
     11 CA        -17.6070   13.8320  -20.7640 C.3       8 GLP5        0.0000 
     12 CA        -15.6105   15.0500  -17.5605 C.3       4 GLC5        0.0000 
     13 CA        -17.1800   14.8410  -16.2480 C.3       8 GLP5        0.0000 
     14 CA        -13.4330   18.3220  -19.5465 C.3       4 GLC5        0.0000 
     15 CA        -13.8760   16.6170  -19.5570 C.3      12 GLL5        0.0000 
     16 CA        -12.9900   20.0270  -19.5360 C.3       8 GLP5        0.0000 
     17 O         -16.3495   17.3780  -25.4795 O.2       1 ALC1        0.0000 
     18 O         -16.1660   17.2120  -24.1540 O.2       9 ALL1        0.0000 
     19 O         -16.5330   17.5440  -26.8050 O.2       5 ALP1        0.0000 
     20 CA        -16.6750   16.2330  -17.7350 C.3       4 GLC5        0.0000 
     21 CA        -16.1700   17.6250  -19.2220 C.3      12 GLL5        0.0000 
     22 O         -18.8280   19.4940  -16.2140 O.2       1 ALC1        0.0000 
     23 O         -17.7110   18.4710  -16.1840 O.2       9 ALL1        0.0000 
     24 O         -19.9450   20.5170  -16.2440 O.2       5 ALP1        0.0000 
     25 CA        -15.8130   19.7845  -16.6925 C.3       4 GLC5        0.0000 
     26 CA        -16.7990   18.6600  -15.0690 C.3      12 GLL5        0.0000 
     27 CA        -14.8270   20.9090  -18.3160 C.3       8 GLP5        0.0000 
     28 CA        -16.9895   16.7505  -15.6585 C.3       4 GLC5        0.0000 
     29 N         -18.7660   18.1525  -25.1710 N.am      2 SEC2        0.0000 
     30 N         -18.2410   18.0000  -23.7360 N.am     10 SEL2        0.0000 
     31 N         -19.2910   18.3050  -26.6060 N.am      6 SEP2        0.0000 
     32 N         -19.5945   18.0555  -23.5165 N.am      2 SEC2        0.0000 
     33 N         -20.9480   18.1110  -23.2970 N.am      6 SEP2        0.0000 
     34 CA         -6.2455   14.2000  -17.8140 C.3       4 GLC5        0.0000 
     35 CA         -8.1180   14.3630  -16.9320 C.3      12 GLL5        0.0000 
     36 CA         -4.3730   14.0370  -18.6960 C.3       8 GLP5        0.0000 
     37 CA         -5.9750   15.1655  -16.7320 C.3       4 GLC5        0.0000 
     38 CA         -8.0540   15.6190  -16.0490 C.3      12 GLL5        0.0000 
     39 CA         -3.8960   14.7120  -17.4150 C.3       8 GLP5        0.0000 
     40 O         -13.0225   16.0940  -23.4035 O.2       1 ALC1        0.0000 
     41 O         -14.0610   16.3970  -24.6670 O.2       9 ALL1        0.0000 
     42 O         -11.9840   15.7910  -22.1400 O.2       5 ALP1        0.0000 
     43 O         -13.0155   15.5600  -24.3575 O.2       1 ALC1        0.0000 
     44 O         -11.9700   14.7230  -24.0480 O.2       5 ALP1        0.0000 
     45 O         -14.2185   16.9555  -25.9515 O.2       1 ALC1        0.0000 
     46 O         -14.3760   17.5140  -27.2360 O.2       5 ALP1        0.0000 
     47 O         -15.2970   16.9705  -25.7360 O.2       1 ALC1        0.0000 
     48 CA        -16.3035   16.5340   -9.0200 C.3       4 GLC5        0.0000 
     49 CA        -16.4780   18.2090  -10.4650 C.3      12 GLL5        0.0000 
     50 CA        -16.1290   14.8590   -7.5750 C.3       8 GLP5        0.0000 
     51 CA        -16.4825   15.5132  -20.7787 C.3       4 GLC5        0.0000 
     52 CA        -15.5510   17.2060  -21.4760 C.3      12 GLL5        0.0000 
     53 CA        -14.5608   18.6074  -21.7026 C.3       4 GLC5        0.0000 
     54 CA        -15.1650   17.1830  -20.1110 C.3      12 GLL5        0.0000 
     55 CA        -13.0290   19.7980  -22.0750 C.3       8 GLP5        0.0000 
     56 CA        -17.4622   15.8438  -21.0880 C.3       4 GLC5        0.0000 
     57 CA        -17.8080   18.0720  -20.9570 C.3      12 GLL5        0.0000 
     58 CA        -17.9169   19.5916  -21.4097 C.3       4 GLC5        0.0000 
     59 CA        -16.8270   17.6390  -21.8670 C.3      12 GLL5        0.0000 
     60 CA        -18.4580   21.2350  -22.3130 C.3       8 GLP5        0.0000 
     61 CA        -17.2045   15.8325  -20.0877 C.3       4 GLC5        0.0000 
     62 CA        -17.4340   18.0410  -19.6010 C.3      12 GLL5        0.0000 
     63 CA        -19.0635   18.4970  -15.1690 C.3       4 GLC5        0.0000 
     64 CA        -20.9650   17.9660  -15.8380 C.3       8 GLP5        0.0000 
     65 CA        -10.3798   12.6961  -17.9879 C.3       4 GLC5        0.0000 
     66 CA        -10.5840   14.7320  -17.3420 C.3      12 GLL5        0.0000 
     67 CA        -10.5960   10.7220  -18.0290 C.3       8 GLP5        0.0000 
     68 CA         -8.6760   13.8052  -14.5711 C.3       4 GLC5        0.0000 
     69 CA         -8.6070   12.1990  -13.2220 C.3       8 GLP5        0.0000 
     70 CA        -10.5303   15.9770  -14.1115 C.3       4 GLC5        0.0000 
     71 CA         -9.4040   15.8320  -15.3500 C.3      12 GLL5        0.0000 
     72 CA        -11.0890   16.0750  -12.3610 C.3       8 GLP5        0.0000 
     73 CA        -16.8633   16.3302  -11.0650 C.3       4 GLC5        0.0000 
     74 CA        -16.8850   14.3780  -11.0740 C.3       8 GLP5        0.0000 
     75 CA        -14.2318   17.9422  -10.5237 C.3       4 GLC5        0.0000 
     76 CA        -12.5540   17.2900  -10.7070 C.3       8 GLP5        0.0000 
     77 CA        -13.9283   18.6375  -11.2365 C.3       4 GLC5        0.0000 
     78 CA        -14.9390   19.9080  -11.1750 C.3      12 GLL5        0.0000 
@<TRIPOS>BOND
@<TRIPOS>SUBSTRUCTURE
     1 ALC1       17 GROUP        1 X    ALC  0     ROOT ALC X 1
     2 SEC2       29 GROUP        1 X    SEC  0     **** SEC X 2
     3 ASC3        4 GROUP        1 X    ASC  0     **** ASC X 3
     4 GLC5        1 GROUP        1 X    GLC  0     **** GLC X 6
     5 ALP1       19 GROUP        1 Y    ALP  0     ROOT ALP Y 8
     6 SEP2       31 GROUP        1 Y    SEP  0     **** SEP Y 9
     7 ASP3        6 GROUP        1 Y    ASP  0     **** ASP Y 10
     8 GLP5        3 GROUP        1 Y    GLP  0     **** GLP Y 13
     9 ALL1       18 GROUP        1 Z    ALL  0     ROOT ALL Z 15
    10 SEL2       30 GROUP        1 Z    SEL  0     **** SEL Z 16
    11 ASL3        5 GROUP        1 Z    ASL  0     **** ASL Z 17
    12 GLL5        2 GROUP        1 Z    GLL  0     **** GLL Z 20
@<TRIPOS>SET

