#    Name: 4giy_0WY_1_ligand
#    Modification time : Mon Mar 24 22:17:05 2014

@<TRIPOS>MOLECULE
4giy_0WY_1_ligand
   66    70     1     0     0
SMALL
NO_CHARGES


@<TRIPOS>ATOM
      1 C1        -11.6500   14.9290  -18.4470 C.3       1 0WY402      0.0000 
      2 N1        -13.0020   15.0070  -17.8570 N.4       1 0WY402      0.0000 
      3 C2        -14.0410   15.2590  -18.8730 C.3       1 0WY402      0.0000 
      4 C3        -13.8760   16.6170  -19.5570 C.3       1 0WY402      0.0000 
      5 C4        -15.1650   17.1830  -20.1110 C.ar      1 0WY402      0.0000 
      6 C5        -15.5510   17.2060  -21.4760 C.ar      1 0WY402      0.0000 
      7 N2        -14.6250   16.7720  -22.4540 N.2       1 0WY402      0.0000 
      8 C6        -14.9450   16.7900  -23.7130 C.2       1 0WY402      0.0000 
      9 N3        -16.1660   17.2120  -24.1540 N.am      1 0WY402      0.0000 
     10 C7        -17.1580   17.6380  -23.3020 C.2       1 0WY402      0.0000 
     11 C8        -16.8270   17.6390  -21.8670 C.ar      1 0WY402      0.0000 
     12 C9        -17.8080   18.0720  -20.9570 C.ar      1 0WY402      0.0000 
     13 C10       -17.4340   18.0410  -19.6010 C.ar      1 0WY402      0.0000 
     14 C11       -16.1700   17.6250  -19.2220 C.ar      1 0WY402      0.0000 
     15 N4        -16.1520   17.7530  -17.8510 N.pl3     1 0WY402      0.0000 
     16 C12       -17.3800   18.2340  -17.4650 C.2       1 0WY402      0.0000 
     17 N5        -18.1640   18.4110  -18.5050 N.2       1 0WY402      0.0000 
     18 N6        -17.7110   18.4710  -16.1840 N.pl3     1 0WY402      0.0000 
     19 C13       -16.7990   18.6600  -15.0690 C.3       1 0WY402      0.0000 
     20 O1        -18.2410   18.0000  -23.7360 O.2       1 0WY402      0.0000 
     21 C14       -10.5840   14.7320  -17.3420 C.3       1 0WY402      0.0000 
     22 C15        -9.2100   14.5100  -17.9990 C.3       1 0WY402      0.0000 
     23 C16        -8.1180   14.3630  -16.9320 C.3       1 0WY402      0.0000 
     24 C17        -8.0540   15.6190  -16.0490 C.3       1 0WY402      0.0000 
     25 C18        -9.4040   15.8320  -15.3500 C.3       1 0WY402      0.0000 
     26 C19       -10.5390   15.9260  -16.3740 C.3       1 0WY402      0.0000 
     27 N7        -14.0610   16.3970  -24.6670 N.pl3     1 0WY402      0.0000 
     28 C20       -17.5250   19.3960  -13.9310 C.3       1 0WY402      0.0000 
     29 C21       -16.8070   19.2860  -12.6150 C.ar      1 0WY402      0.0000 
     30 C22       -16.4780   18.2090  -10.4650 C.ar      1 0WY402      0.0000 
     31 C23       -17.2050   18.3560  -11.6470 C.ar      1 0WY402      0.0000 
     32 C24       -15.3410   18.9800  -10.2160 C.ar      1 0WY402      0.0000 
     33 C25       -15.6660   20.0620  -12.3570 C.ar      1 0WY402      0.0000 
     34 C26       -14.9390   19.9080  -11.1750 C.ar      1 0WY402      0.0000 
     35 H         -11.4092   15.8460  -18.9879 H         1 0WY402      0.0000 
     36 H         -11.5768   14.0885  -19.1396 H         1 0WY402      0.0000 
     37 H         -15.0423   15.2246  -18.4139 H         1 0WY402      0.0000 
     38 H         -14.0153   14.4774  -19.6496 H         1 0WY402      0.0000 
     39 H         -13.1420   16.5137  -20.3742 H         1 0WY402      0.0000 
     40 H         -13.4478   17.3283  -18.8305 H         1 0WY402      0.0000 
     41 H         -16.3609   17.2130  -25.1899 H         1 0WY402      0.0000 
     42 H         -18.7040   18.3789  -21.2513 H         1 0WY402      0.0000 
     43 H         -15.4233   17.5462  -17.2785 H         1 0WY402      0.0000 
     44 H         -18.7504   18.5349  -15.9143 H         1 0WY402      0.0000 
     45 H         -15.9349   19.2594  -15.3596 H         1 0WY402      0.0000 
     46 H         -16.4445   17.7046  -14.6792 H         1 0WY402      0.0000 
     47 H         -10.8383   13.8394  -16.7850 H         1 0WY402      0.0000 
     48 H          -8.9787   15.3593  -18.6351 H         1 0WY402      0.0000 
     49 H          -9.2462   13.6079  -18.6027 H         1 0WY402      0.0000 
     50 H          -7.1578   14.2199  -17.4187 H         1 0WY402      0.0000 
     51 H          -8.3381   13.5005  -16.3099 H         1 0WY402      0.0000 
     52 H          -7.8309   16.4792  -16.6672 H         1 0WY402      0.0000 
     53 H          -7.2802   15.4919  -15.3027 H         1 0WY402      0.0000 
     54 H          -9.3649   16.7522  -14.7715 H         1 0WY402      0.0000 
     55 H          -9.5938   14.9975  -14.6789 H         1 0WY402      0.0000 
     56 H         -11.4975   15.9875  -15.8424 H         1 0WY402      0.0000 
     57 H         -10.4217   16.8495  -16.9558 H         1 0WY402      0.0000 
     58 H         -13.3796   15.7220  -24.3842 H         1 0WY402      0.0000 
     59 H         -14.1698   16.8175  -25.5677 H         1 0WY402      0.0000 
     60 H         -18.5377   18.9794  -13.8383 H         1 0WY402      0.0000 
     61 H         -17.6280   20.4536  -14.2114 H         1 0WY402      0.0000 
     62 H         -16.7866   17.5168   -9.7608 H         1 0WY402      0.0000 
     63 H         -18.0405   17.7773  -11.8104 H         1 0WY402      0.0000 
     64 H         -14.8170   18.8659   -9.3512 H         1 0WY402      0.0000 
     65 H         -15.3613   20.7590  -13.0567 H         1 0WY402      0.0000 
     66 H         -14.1013   20.4838  -11.0119 H         1 0WY402      0.0000 
@<TRIPOS>BOND
     1    2    1 1    
     2   21    1 1    
     3   35    1 1    
     4   36    1 1    
     5    3    2 1    
     6    4    3 1    
     7   37    3 1    
     8   38    3 1    
     9    5    4 1    
    10   39    4 1    
    11   40    4 1    
    12    6    5 ar   
    13   14    5 ar   
    14    7    6 1    
    15   11    6 ar   
    16    8    7 2    
    17    9    8 1    
    18   27    8 1    
    19   10    9 am   
    20   41    9 1    
    21   11   10 1    
    22   20   10 2    
    23   12   11 ar   
    24   13   12 ar   
    25   42   12 1    
    26   14   13 ar   
    27   17   13 1    
    28   15   14 1    
    29   16   15 1    
    30   43   15 1    
    31   17   16 2    
    32   18   16 1    
    33   19   18 1    
    34   44   18 1    
    35   28   19 1    
    36   45   19 1    
    37   46   19 1    
    38   22   21 1    
    39   26   21 1    
    40   47   21 1    
    41   23   22 1    
    42   48   22 1    
    43   49   22 1    
    44   24   23 1    
    45   50   23 1    
    46   51   23 1    
    47   25   24 1    
    48   52   24 1    
    49   53   24 1    
    50   26   25 1    
    51   54   25 1    
    52   55   25 1    
    53   56   26 1    
    54   57   26 1    
    55   58   27 1    
    56   59   27 1    
    57   29   28 1    
    58   60   28 1    
    59   61   28 1    
    60   31   29 ar   
    61   33   29 ar   
    62   31   30 ar   
    63   32   30 ar   
    64   62   30 1    
    65   63   31 1    
    66   34   32 ar   
    67   64   32 1    
    68   34   33 ar   
    69   65   33 1    
    70   66   34 1    
@<TRIPOS>SUBSTRUCTURE
     1 0WY402      1 GROUP   
@<TRIPOS>SET

