#    Name: 1RCT_1_CAVITY_N1_6.mol2
#    Modification time : Tue Mar 11 05:39:01 2014

@<TRIPOS>MOLECULE
1RCT_1_CAVITY_N1_6.mol2
   86     0     6     0     0
SMALL
NO_CHARGES


@<TRIPOS>ATOM
      1 NZ         54.6108  135.0857   59.0167 N.2       3 LYS4        0.0000 
      2 N          56.1166  133.2971   60.1494 N.2       2 ALA2        0.0000 
      3 DU         54.8700  133.8820   60.7441 H         6 CUB7        0.0000 
      4 NZ         53.6233  134.4670   61.3387 N.2       3 LYS4        0.0000 
      5 N          55.4116  133.1297   58.8360 N.2       2 ALA2        0.0000 
      6 CA         54.1649  133.7147   59.4307 C.3       5 GLY6        0.0000 
      7 CA         52.9183  134.2997   60.0254 C.3       5 GLY6        0.0000 
      8 CA         53.4599  133.5473   58.1173 C.3       5 GLY6        0.0000 
      9 CZ         55.1292  132.6784   62.4715 C.ar      4 PHE5        0.0000 
     10 N          55.6708  131.9260   60.5634 N.2       2 ALA2        0.0000 
     11 DU         54.4241  132.5110   61.1581 H         6 CUB7        0.0000 
     12 DU         53.1775  133.0960   61.7528 H         6 CUB7        0.0000 
     13 N          54.9658  131.7587   59.2501 N.2       2 ALA2        0.0000 
     14 CA         53.7191  132.3436   59.8448 C.3       5 GLY6        0.0000 
     15 CA         52.4724  132.9286   60.4394 C.3       5 GLY6        0.0000 
     16 CZ         54.2607  131.5913   57.9367 C.ar      4 PHE5        0.0000 
     17 CA         53.0141  132.1763   58.5314 C.3       5 GLY6        0.0000 
     18 CZ         55.3440  130.0866   54.1206 C.ar      4 PHE5        0.0000 
     19 CZ         52.8507  131.2566   55.3100 C.ar      4 PHE5        0.0000 
     20 CA         51.6040  131.8415   55.9047 C.3       5 GLY6        0.0000 
     21 CZ         54.6389  129.9192   52.8073 C.ar      4 PHE5        0.0000 
     22 CZ         53.3923  130.5042   53.4020 C.ar      4 PHE5        0.0000 
     23 N          52.1456  131.0892   53.9966 N.2       2 ALA2        0.0000 
     24 N          50.8990  131.6742   54.5913 N.2       2 ALA2        0.0000 
     25 CZ         53.4367  131.8923   63.4802 C.ar      4 PHE5        0.0000 
     26 CZ         55.2249  130.5550   60.9775 C.ar      4 PHE5        0.0000 
     27 OG         53.9783  131.1399   61.5722 O.2       1 SER1        0.0000 
     28 OG         52.7316  131.7249   62.1669 O.2       1 SER1        0.0000 
     29 CA         54.5199  130.3876   59.6641 C.3       5 GLY6        0.0000 
     30 OG         53.2733  130.9726   60.2588 O.2       1 SER1        0.0000 
     31 O          52.0266  131.5576   60.8535 O.2       2 ALA2        0.0000 
     32 CA         53.8149  130.2202   58.3508 C.3       5 GLY6        0.0000 
     33 CA         52.5682  130.8052   58.9454 C.3       5 GLY6        0.0000 
     34 O          51.3216  131.3902   59.5401 O.2       2 ALA2        0.0000 
     35 CA         54.3565  129.4679   56.4427 C.3       5 GLY6        0.0000 
     36 CZ         53.1098  130.0529   57.0374 C.ar      4 PHE5        0.0000 
     37 CA         51.8632  130.6379   57.6321 C.3       5 GLY6        0.0000 
     38 O          50.6165  131.2228   58.2268 O.2       2 ALA2        0.0000 
     39 CA         54.8981  128.7155   54.5347 C.3       5 GLY6        0.0000 
     40 CZ         53.6515  129.3005   55.1294 C.ar      4 PHE5        0.0000 
     41 CZ         52.4048  129.8855   55.7240 C.ar      4 PHE5        0.0000 
     42 CA         51.1582  130.4705   56.3187 C.3       5 GLY6        0.0000 
     43 CA         49.9115  131.0555   56.9134 C.3       5 GLY6        0.0000 
     44 CA         48.6648  131.6405   57.5081 C.3       5 GLY6        0.0000 
     45 N          54.1931  128.5482   53.2213 N.2       2 ALA2        0.0000 
     46 N          52.9464  129.1332   53.8160 N.2       2 ALA2        0.0000 
     47 OG         51.6998  129.7181   54.4107 O.2       1 SER1        0.0000 
     48 OG         50.4531  130.3031   55.0054 O.2       1 SER1        0.0000 
     49 CA         49.2065  130.8881   55.6000 C.3       5 GLY6        0.0000 
     50 OG         51.5807  130.1865   61.2675 O.2       1 SER1        0.0000 
     51 O          50.3341  130.7715   61.8622 O.2       2 ALA2        0.0000 
     52 CA         54.6157  128.2642   58.1701 C.3       5 GLY6        0.0000 
     53 OG         53.3690  128.8492   58.7648 O.2       1 SER1        0.0000 
     54 OG         52.1224  129.4342   59.3595 O.2       1 SER1        0.0000 
     55 OG         50.8757  130.0192   59.9542 O.2       1 SER1        0.0000 
     56 O          49.6291  130.6041   60.5489 O.2       2 ALA2        0.0000 
     57 CA         55.1573  127.5119   56.2621 C.3       5 GLY6        0.0000 
     58 CA         53.9107  128.0968   56.8568 C.3       5 GLY6        0.0000 
     59 DU         52.6640  128.6818   57.4515 H         6 CUB7        0.0000 
     60 DU         51.4173  129.2668   58.0461 H         6 CUB7        0.0000 
     61 OG         50.1707  129.8518   58.6408 O.2       1 SER1        0.0000 
     62 OG         48.9240  130.4368   59.2355 O.2       1 SER1        0.0000 
     63 O          47.6774  131.0218   59.8302 O.2       2 ALA2        0.0000 
     64 CA         54.4523  127.3445   54.9487 C.3       5 GLY6        0.0000 
     65 N          53.2056  127.9295   55.5434 N.2       2 ALA2        0.0000 
     66 N          51.9590  128.5145   56.1381 N.2       2 ALA2        0.0000 
     67 CA         50.7123  129.0994   56.7328 C.3       5 GLY6        0.0000 
     68 CA         49.4657  129.6844   57.3274 C.3       5 GLY6        0.0000 
     69 CA         48.2190  130.2694   57.9221 C.3       5 GLY6        0.0000 
     70 N          51.2539  128.3471   54.8247 N.2       2 ALA2        0.0000 
     71 CA         48.7606  129.5171   56.0141 C.3       5 GLY6        0.0000 
     72 CA         54.1698  126.8931   58.5842 C.3       5 GLY6        0.0000 
     73 OG         52.9232  127.4781   59.1789 O.2       1 SER1        0.0000 
     74 OG         51.6765  128.0631   59.7735 O.2       1 SER1        0.0000 
     75 O          53.4648  126.7258   57.2708 O.2       2 ALA2        0.0000 
     76 N          52.2182  127.3108   57.8655 N.2       2 ALA2        0.0000 
     77 OG         50.9715  127.8958   58.4602 O.2       1 SER1        0.0000 
     78 CA         50.2665  127.7284   57.1468 C.3       5 GLY6        0.0000 
     79 OG         53.0190  125.3547   57.6849 O.2       1 SER1        0.0000 
     80 OG         51.7723  125.9397   58.2796 O.2       1 SER1        0.0000 
     81 OG         50.5257  126.5247   58.8742 O.2       1 SER1        0.0000 
     82 N          51.0673  125.7724   56.9662 N.2       2 ALA2        0.0000 
     83 CA         49.8206  126.3573   57.5609 C.3       5 GLY6        0.0000 
     84 OG         51.3265  124.5687   58.6936 O.2       1 SER1        0.0000 
     85 O          50.0798  125.1536   59.2883 O.2       2 ALA2        0.0000 
     86 O          50.6214  124.4013   57.3802 O.2       2 ALA2        0.0000 
@<TRIPOS>BOND
@<TRIPOS>SUBSTRUCTURE
     1 SER1       27 GROUP   
     2 ALA2        2 GROUP   
     3 LYS4        1 GROUP   
     4 PHE5        9 GROUP   
     5 GLY6        6 GROUP   
     6 CUB7        3 GROUP   
@<TRIPOS>SET

