#    Name: 1rct_NOS_1_INTS_M
#    Modification time : Tue Mar 25 00:29:51 2014

@<TRIPOS>MOLECULE
1rct_NOS_1_INTS_M
   49     0     9     0     0
SMALL
NO_CHARGES


@<TRIPOS>ATOM
      1 CA         55.9205  129.5705   55.4870 C.3       3 GLC5        0.0000 
      2 CA         54.5090  129.1820   53.9060 C.3       9 GLL5        0.0000 
      3 CA         57.3320  129.9590   57.0680 C.3       6 GLP5        0.0000 
      4 CA         56.9955  128.2915   52.0640 C.3       3 GLC5        0.0000 
      5 CA         56.7240  129.0810   53.6980 C.3       9 GLL5        0.0000 
      6 CA         57.2670  127.5020   50.4300 C.3       6 GLP5        0.0000 
      7 CA         56.2825  126.9785   53.9965 C.3       3 GLC5        0.0000 
      8 CA         55.8410  124.8760   54.2950 C.3       6 GLP5        0.0000 
      9 CA         57.0280  129.5200   55.3830 C.3       3 GLC5        0.0000 
     10 N          57.7100  130.3870   52.1675 N.am      2 SEC2        0.0000 
     11 N          56.6530  129.8810   52.6030 N.am      8 SEL2        0.0000 
     12 N          58.7670  130.8930   51.7320 N.am      5 SEP2        0.0000 
     13 CA         56.3745  128.9465   51.2475 C.3       3 GLC5        0.0000 
     14 CA         55.4820  130.3910   52.0650 C.3       9 GLL5        0.0000 
     15 CA         55.9055  130.3755   50.0505 C.3       3 GLC5        0.0000 
     16 CA         56.3290  130.3600   48.0360 C.3       6 GLP5        0.0000 
     17 O          54.3225  131.6125   50.4340 O.2       1 ALC1        0.0000 
     18 O          55.5160  131.1270   51.0610 O.2       7 ALL1        0.0000 
     19 O          53.1290  132.0980   49.8070 O.2       4 ALP1        0.0000 
     20 N          52.3110  131.1735   51.9920 N.am      2 SEC2        0.0000 
     21 N          53.0480  130.2960   52.5700 N.am      8 SEL2        0.0000 
     22 N          51.5740  132.0510   51.4140 N.am      5 SEP2        0.0000 
     23 CA         51.3345  132.3690   57.9220 C.3       3 GLC5        0.0000 
     24 CA         51.7020  130.7220   58.0870 C.3       9 GLL5        0.0000 
     25 CA         50.9670  134.0160   57.7570 C.3       6 GLP5        0.0000 
     26 O          49.9015  132.1735   58.6060 O.2       1 ALC1        0.0000 
     27 O          50.3950  131.1490   57.6330 O.2       7 ALL1        0.0000 
     28 O          49.4080  133.1980   59.5790 O.2       4 ALP1        0.0000 
     29 CA         50.6720  127.6145   55.2485 C.3       3 GLC5        0.0000 
     30 CA         52.6820  128.2780   55.5970 C.3       9 GLL5        0.0000 
     31 CA         48.6620  126.9510   54.9000 C.3       6 GLP5        0.0000 
     32 CA         52.3345  127.0840   53.7290 C.3       3 GLC5        0.0000 
     33 CA         51.9870  125.8900   51.8610 C.3       6 GLP5        0.0000 
     34 CA         54.7505  126.3795   55.5400 C.3       3 GLC5        0.0000 
     35 CA         53.6600  127.8830   56.7850 C.3       9 GLL5        0.0000 
     36 CA         55.5260  127.5945   57.2390 C.3       3 GLC5        0.0000 
     37 CA         57.3920  127.3060   57.6930 C.3       6 GLP5        0.0000 
     38 N          54.9355  125.6120   56.8440 N.am      2 SEC2        0.0000 
     39 N          53.6500  126.4150   56.9980 N.am      8 SEL2        0.0000 
     40 N          56.2210  124.8090   56.6900 N.am      5 SEP2        0.0000 
     41 CA         55.1400  128.7810   58.3060 C.3       3 GLC5        0.0000 
     42 CA         53.1870  128.6590   58.1130 C.3       9 GLL5        0.0000 
     43 CA         57.0930  128.9030   58.4990 C.3       6 GLP5        0.0000 
     44 N          53.3660  128.1400   60.7120 N.am      2 SEC2        0.0000 
     45 N          53.0070  127.7600   59.2920 N.am      8 SEL2        0.0000 
     46 N          53.7250  128.5200   62.1320 N.am      5 SEP2        0.0000 
     47 CA         54.1505  129.3055   50.9547 C.3       3 GLC5        0.0000 
     48 CA         54.3540  129.9890   52.7940 C.3       9 GLL5        0.0000 
     49 CA         53.3830  128.4210   49.4800 C.3       6 GLP5        0.0000 
@<TRIPOS>BOND
@<TRIPOS>SUBSTRUCTURE
     1 ALC1       17 GROUP        1 X    ALC  0     ROOT ALC X 1
     2 SEC2       10 GROUP        1 X    SEC  0     **** SEC X 2
     3 GLC5        1 GROUP        1 X    GLC  0     **** GLC X 6
     4 ALP1       19 GROUP        1 Y    ALP  0     ROOT ALP Y 8
     5 SEP2       12 GROUP        1 Y    SEP  0     **** SEP Y 9
     6 GLP5        3 GROUP        1 Y    GLP  0     **** GLP Y 13
     7 ALL1       18 GROUP        1 Z    ALL  0     ROOT ALL Z 15
     8 SEL2       11 GROUP        1 Z    SEL  0     **** SEL Z 16
     9 GLL5        2 GROUP        1 Z    GLL  0     **** GLL Z 20
@<TRIPOS>SET

