#    Name: 1rct_NOS_1_ligand
#    Modification time : Tue Mar 25 00:29:51 2014

@<TRIPOS>MOLECULE
1rct_NOS_1_ligand
   31    33     1     0     0
SMALL
NO_CHARGES


@<TRIPOS>ATOM
      1 N9         53.2200  129.0410   54.3500 N.pl3     1 NOS290      0.0000 
      2 C4         54.5090  129.1820   53.9060 C.ar      1 NOS290      0.0000 
      3 N3         55.6640  128.6920   54.4100 N.ar      1 NOS290      0.0000 
      4 C2         56.7240  129.0810   53.6980 C.ar      1 NOS290      0.0000 
      5 N1         56.6530  129.8810   52.6030 N.ar      1 NOS290      0.0000 
      6 C6         55.4820  130.3910   52.0650 C.ar      1 NOS290      0.0000 
      7 O6         55.5160  131.1270   51.0610 O.3       1 NOS290      0.0000 
      8 C5         54.3540  129.9890   52.7940 C.ar      1 NOS290      0.0000 
      9 N7         53.0480  130.2960   52.5700 N.2       1 NOS290      0.0000 
     10 C8         52.3350  129.6940   53.5520 C.2       1 NOS290      0.0000 
     11 C5'        51.7020  130.7220   58.0870 C.3       1 NOS290      0.0000 
     12 O5'        50.3950  131.1490   57.6330 O.3       1 NOS290      0.0000 
     13 C4'        51.8540  129.2610   57.7020 C.3       1 NOS290      0.0000 
     14 O4'        51.7360  129.2090   56.2420 O.3       1 NOS290      0.0000 
     15 C1'        52.6820  128.2780   55.5970 C.3       1 NOS290      0.0000 
     16 C2'        53.6600  127.8830   56.7850 C.3       1 NOS290      0.0000 
     17 O2'        53.6500  126.4150   56.9980 O.3       1 NOS290      0.0000 
     18 C3'        53.1870  128.6590   58.1130 C.3       1 NOS290      0.0000 
     19 O3'        53.0070  127.7600   59.2920 O.3       1 NOS290      0.0000 
     20 H          57.6950  128.7464   54.0016 H         1 NOS290      0.0000 
     21 H          51.3867  129.7219   53.6646 H         1 NOS290      0.0000 
     22 H          51.7941  130.8062   59.1637 H         1 NOS290      0.0000 
     23 H          52.4921  131.2888   57.6081 H         1 NOS290      0.0000 
     24 H          51.0520  128.6994   58.1436 H         1 NOS290      0.0000 
     25 H          52.1378  127.4105   55.2973 H         1 NOS290      0.0000 
     26 H          54.6333  128.2425   56.5382 H         1 NOS290      0.0000 
     27 H          53.8786  129.4349   58.2835 H         1 NOS290      0.0000 
     28 H          54.5599  131.2403   50.7909 H         1 NOS290      0.0000 
     29 H          50.0503  131.7435   58.3595 H         1 NOS290      0.0000 
     30 H          53.3044  126.2909   57.9281 H         1 NOS290      0.0000 
     31 H          52.0723  127.9282   59.6052 H         1 NOS290      0.0000 
@<TRIPOS>BOND
     1    2    1 1    
     2   10    1 1    
     3   15    1 1    
     4    3    2 ar   
     5    8    2 ar   
     6    4    3 ar   
     7    5    4 ar   
     8   20    4 1    
     9    6    5 ar   
    10    7    6 1    
    11    8    6 ar   
    12   28    7 1    
    13    9    8 1    
    14   10    9 2    
    15   21   10 1    
    16   12   11 1    
    17   13   11 1    
    18   22   11 1    
    19   23   11 1    
    20   29   12 1    
    21   14   13 1    
    22   18   13 1    
    23   24   13 1    
    24   15   14 1    
    25   16   15 1    
    26   25   15 1    
    27   17   16 1    
    28   18   16 1    
    29   26   16 1    
    30   30   17 1    
    31   19   18 1    
    32   27   18 1    
    33   31   19 1    
@<TRIPOS>SUBSTRUCTURE
     1 NOS290      1 GROUP   
@<TRIPOS>SET

