#    Name: 4e5d_0NJ_1_INTS_M
#    Modification time : Tue Mar 25 10:38:07 2014

@<TRIPOS>MOLECULE
4e5d_0NJ_1_INTS_M
   47     0     6     0     0
SMALL
NO_CHARGES


@<TRIPOS>ATOM
      1 CA         14.4685   36.7315   11.1285 C.3       2 GLC5        0.0000 
      2 CA         13.2550   35.5320    9.9970 C.3       6 GLL5        0.0000 
      3 CA         15.6820   37.9310   12.2600 C.3       4 GLP5        0.0000 
      4 CA         14.8790   35.9180    8.0150 C.3       2 GLC5        0.0000 
      5 CA         12.9370   35.3730    8.7130 C.3       6 GLL5        0.0000 
      6 CA         16.8210   36.4630    7.3170 C.3       4 GLP5        0.0000 
      7 N          12.3105   39.7690    6.3970 N.am      1 SEC2        0.0000 
      8 N          13.1460   38.9390    7.6850 N.am      5 SEL2        0.0000 
      9 N          11.4750   40.5990    5.1090 N.am      3 SEP2        0.0000 
     10 CA         14.7540   39.5750   11.3505 C.3       2 GLC5        0.0000 
     11 CA         13.8260   41.2190   10.4410 C.3       6 GLL5        0.0000 
     12 CA         16.6025   43.8800   11.8720 C.3       2 GLC5        0.0000 
     13 CA         14.8160   43.5540   11.7600 C.3       6 GLL5        0.0000 
     14 CA         18.3890   44.2060   11.9840 C.3       4 GLP5        0.0000 
     15 CA         15.0075   45.3570   12.7635 C.3       2 GLC5        0.0000 
     16 CA         15.1990   47.1600   13.7670 C.3       4 GLP5        0.0000 
     17 CA         14.2525   43.1960   13.8910 C.3       2 GLC5        0.0000 
     18 CA         13.6890   42.8380   16.0220 C.3       4 GLP5        0.0000 
     19 CA         13.2360   42.4540   12.4990 C.3       2 GLC5        0.0000 
     20 CA         11.6560   41.3540   13.2380 C.3       4 GLP5        0.0000 
     21 CA         10.8385   36.1690    9.0450 C.3       2 GLC5        0.0000 
     22 CA         12.7670   36.4990    7.9150 C.3       6 GLL5        0.0000 
     23 CA          8.8250   36.4020    9.7760 C.3       4 GLP5        0.0000 
     24 CA         11.2052   33.1765    5.5767 C.3       2 GLC5        0.0000 
     25 CA         12.2960   35.0840    6.0440 C.3       6 GLL5        0.0000 
     26 CA         10.0370   31.8350    4.7170 C.3       4 GLP5        0.0000 
     27 CA         10.6740   33.7840    7.4398 C.3       2 GLC5        0.0000 
     28 CA          8.8970   33.0130    8.1070 C.3       4 GLP5        0.0000 
     29 CA         11.2067   37.1960    5.6565 C.3       2 GLC5        0.0000 
     30 CA         10.0380   38.6740    5.0010 C.3       4 GLP5        0.0000 
     31 CA         13.5711   35.1025    4.8816 C.3       2 GLC5        0.0000 
     32 CA         12.4550   36.3520    6.5800 C.3       6 GLL5        0.0000 
     33 CA         14.7280   34.7700    3.2550 C.3       4 GLP5        0.0000 
     34 CA         14.4246   36.5348    6.5328 C.3       2 GLC5        0.0000 
     35 CA         16.2780   36.9610    5.9520 C.3       4 GLP5        0.0000 
     36 CA         14.5490   38.5652   11.0828 C.3       2 GLC5        0.0000 
     37 CA         13.2990   38.3550   10.0920 C.3       6 GLL5        0.0000 
     38 CA         11.7490   40.0998    9.6143 C.3       2 GLC5        0.0000 
     39 CA         10.0820   41.0000    9.3230 C.3       4 GLP5        0.0000 
     40 CA         11.7755   40.8905    8.6615 C.3       2 GLC5        0.0000 
     41 CA         13.5370   41.4060    7.6680 C.3       6 GLL5        0.0000 
     42 CA         15.1832   41.7052    7.0267 C.3       2 GLC5        0.0000 
     43 CA         13.4010   40.1560    8.3320 C.3       6 GLL5        0.0000 
     44 CA         16.7230   41.7390    5.8550 C.3       4 GLP5        0.0000 
     45 CA         12.7389   41.4529   11.5875 C.3       2 GLC5        0.0000 
     46 CA         13.9640   42.4720    9.7940 C.3       6 GLL5        0.0000 
     47 CA         11.9703   41.4340    9.5456 C.3       2 GLC5        0.0000 
@<TRIPOS>BOND
@<TRIPOS>SUBSTRUCTURE
     1 SEC2        7 GROUP        1 X    SEC  0     ROOT SEC X 2
     2 GLC5        1 GROUP        1 X    GLC  0     **** GLC X 6
     3 SEP2        9 GROUP        1 Y    SEP  0     ROOT SEP Y 9
     4 GLP5        3 GROUP        1 Y    GLP  0     **** GLP Y 13
     5 SEL2        8 GROUP        1 Z    SEL  0     ROOT SEL Z 16
     6 GLL5        2 GROUP        1 Z    GLL  0     **** GLL Z 20
@<TRIPOS>SET

