#    Name: 4e5d_0NJ_1_ligand
#    Modification time : Tue Mar 25 10:38:07 2014

@<TRIPOS>MOLECULE
4e5d_0NJ_1_ligand
   28    30     1     0     0
SMALL
NO_CHARGES


@<TRIPOS>ATOM
      1 F16        13.2550   35.5320    9.9970 F         1 0NJ601      0.0000 
      2 C11        12.9370   35.3730    8.7130 C.ar      1 0NJ601      0.0000 
      3 C12        12.7610   34.1000    8.1730 C.ar      1 0NJ601      0.0000 
      4 C13        12.4510   33.9520    6.8290 C.ar      1 0NJ601      0.0000 
      5 C14        12.2960   35.0840    6.0440 C.ar      1 0NJ601      0.0000 
      6 C15        12.4550   36.3520    6.5800 C.ar      1 0NJ601      0.0000 
      7 C10        12.7670   36.4990    7.9150 C.ar      1 0NJ601      0.0000 
      8 C8         13.0070   37.8590    8.4730 C.2       1 0NJ601      0.0000 
      9 S7         13.2990   38.3550   10.0920 S.3       1 0NJ601      0.0000 
     10 C2         13.5330   40.0440    9.7190 C.ar      1 0NJ601      0.0000 
     11 N9         13.1460   38.9390    7.6850 N.2       1 0NJ601      0.0000 
     12 C3         13.4010   40.1560    8.3320 C.ar      1 0NJ601      0.0000 
     13 C4         13.5370   41.4060    7.6680 C.ar      1 0NJ601      0.0000 
     14 C5         13.8180   42.5620    8.3970 C.ar      1 0NJ601      0.0000 
     15 C6         13.9640   42.4720    9.7940 C.ar      1 0NJ601      0.0000 
     16 C1         13.8260   41.2190   10.4410 C.ar      1 0NJ601      0.0000 
     17 O17        14.2310   43.6200   10.5140 O.3       1 0NJ601      0.0000 
     18 C18        14.8160   43.5540   11.7600 C.3       1 0NJ601      0.0000 
     19 H          12.8617   33.2714    8.7742 H         1 0NJ601      0.0000 
     20 H          12.3383   33.0195    6.4229 H         1 0NJ601      0.0000 
     21 H          12.0574   34.9802    5.0402 H         1 0NJ601      0.0000 
     22 H          12.3397   37.1811    5.9797 H         1 0NJ601      0.0000 
     23 H          13.4262   41.4456    6.6507 H         1 0NJ601      0.0000 
     24 H          13.9172   43.4615    7.9298 H         1 0NJ601      0.0000 
     25 H          13.9433   41.1684   11.4649 H         1 0NJ601      0.0000 
     26 H          15.7151   43.1176   11.7255 H         1 0NJ601      0.0000 
     27 H          14.9461   44.4622   12.1578 H         1 0NJ601      0.0000 
     28 H          14.2598   43.0288   12.4041 H         1 0NJ601      0.0000 
@<TRIPOS>BOND
     1    2    1 1    
     2    3    2 ar   
     3    7    2 ar   
     4    4    3 ar   
     5   19    3 1    
     6    5    4 ar   
     7   20    4 1    
     8    6    5 ar   
     9   21    5 1    
    10    7    6 ar   
    11   22    6 1    
    12    8    7 1    
    13    9    8 1    
    14   11    8 2    
    15   10    9 1    
    16   12   10 ar   
    17   16   10 ar   
    18   12   11 1    
    19   13   12 ar   
    20   14   13 ar   
    21   23   13 1    
    22   15   14 ar   
    23   24   14 1    
    24   16   15 ar   
    25   17   15 1    
    26   25   16 1    
    27   18   17 1    
    28   26   18 1    
    29   27   18 1    
    30   28   18 1    
@<TRIPOS>SUBSTRUCTURE
     1 0NJ601      1 GROUP   
@<TRIPOS>SET

