#    Name: 2jat_DCM_2_INTS_M
#    Modification time : Tue Mar 25 19:50:58 2014

@<TRIPOS>MOLECULE
2jat_DCM_2_INTS_M
   45     0    15     0     0
SMALL
NO_CHARGES


@<TRIPOS>ATOM
      1 N          17.2255   31.6315   -9.8175 N.am      2 SEC2        0.0000 
      2 N          17.8410   31.2260  -11.1890 N.am     12 SEL2        0.0000 
      3 N          16.6100   32.0370   -8.4460 N.am      7 SEP2        0.0000 
      4 O          18.6970   30.0245   -9.1055 O.2       1 ALC1        0.0000 
      5 O          19.1950   29.4490  -10.4530 O.2      11 ALL1        0.0000 
      6 O          18.1990   30.6000   -7.7580 O.2       6 ALP1        0.0000 
      7 O          19.6610   28.1570  -10.5075 O.2       1 ALC1        0.0000 
      8 O          20.1270   26.8650  -10.5620 O.2       6 ALP1        0.0000 
      9 CA         14.5535   32.4400  -15.6845 C.3       5 GLC5        0.0000 
     10 CA         16.4530   31.9480  -14.6490 C.3      15 GLL5        0.0000 
     11 CA         12.6540   32.9320  -16.7200 C.3      10 GLP5        0.0000 
     12 CA         14.7680   31.7050  -13.3615 C.3       5 GLC5        0.0000 
     13 CA         13.0830   31.4620  -12.0740 C.3      10 GLP5        0.0000 
     14 CA         14.4650   32.2590  -16.8230 C.3       5 GLC5        0.0000 
     15 CA         16.2760   31.5860  -16.9260 C.3      15 GLL5        0.0000 
     16 N          16.2125   34.9245  -16.1290 N.am      2 SEC2        0.0000 
     17 N          16.4310   34.0040  -17.0900 N.am     12 SEL2        0.0000 
     18 N          15.9940   35.8450  -15.1680 N.am      7 SEP2        0.0000 
     19 O          15.9055   33.9015  -18.3195 O.2       1 ALC1        0.0000 
     20 O          16.4310   34.0040  -17.0900 O.2      11 ALL1        0.0000 
     21 O          15.3800   33.7990  -19.5490 O.2       6 ALP1        0.0000 
     22 N          19.4960   30.3405  -17.0880 N.am      2 SEC2        0.0000 
     23 N          18.2880   30.4720  -17.8030 N.am     12 SEL2        0.0000 
     24 N          20.7040   30.2090  -16.3730 N.am      7 SEP2        0.0000 
     25 Zn         19.2320   28.7190  -20.7920 Zn        4 ZIC7        0.0000 
     26 Zn         19.2120   29.1410  -19.8790 Zn       14 ZIL7        0.0000 
     27 Zn         19.2520   28.2970  -21.7050 Zn        9 ZIP7        0.0000 
     28 NZ         21.9575   30.4605  -18.7750 N.4       3 LYC4        0.0000 
     29 NZ         20.6960   30.8280  -18.6840 N.4      13 LYL4        0.0000 
     30 NZ         23.2190   30.0930  -18.8660 N.4       8 LYP4        0.0000 
     31 NZ         21.2050   30.1810  -17.2655 N.4       3 LYC4        0.0000 
     32 NZ         21.7140   29.5340  -15.8470 N.4       8 LYP4        0.0000 
     33 N          21.9575   30.4605  -18.7750 N.am      2 SEC2        0.0000 
     34 N          20.6960   30.8280  -18.6840 N.am     12 SEL2        0.0000 
     35 N          23.2190   30.0930  -18.8660 N.am      7 SEP2        0.0000 
     36 CA         16.7177   28.6137  -12.5633 C.3       5 GLC5        0.0000 
     37 CA         17.8850   30.1100  -13.7580 C.3      15 GLL5        0.0000 
     38 CA         15.2100   27.4310  -11.8880 C.3      10 GLP5        0.0000 
     39 CA         18.6530   32.7918  -14.0122 C.3       5 GLC5        0.0000 
     40 CA         20.3370   33.1770  -13.0720 C.3      10 GLP5        0.0000 
     41 CA         18.8410   33.5675  -16.5695 C.3       5 GLC5        0.0000 
     42 CA         17.4850   32.8650  -15.2560 C.3      15 GLL5        0.0000 
     43 CA         20.3570   34.2930  -17.1420 C.3      10 GLP5        0.0000 
     44 CA         15.2688   29.9380  -18.2315 C.3       5 GLC5        0.0000 
     45 CA         13.9640   28.7910  -19.0290 C.3      10 GLP5        0.0000 
@<TRIPOS>BOND
@<TRIPOS>SUBSTRUCTURE
     1 ALC1        4 GROUP        1 X    ALC  0     ROOT ALC X 1
     2 SEC2        1 GROUP        1 X    SEC  0     **** SEC X 2
     3 LYC4       28 GROUP        1 X    LYC  0     **** LYC X 4
     4 ZIC7       25 GROUP        1 X    ZIC  0     **** ZIC X 5
     5 GLC5        9 GROUP        1 X    GLC  0     **** GLC X 6
     6 ALP1        6 GROUP        1 Y    ALP  0     ROOT ALP Y 8
     7 SEP2        3 GROUP        1 Y    SEP  0     **** SEP Y 9
     8 LYP4       30 GROUP        1 Y    LYP  0     **** LYP Y 11
     9 ZIP7       27 GROUP        1 Y    ZIP  0     **** ZIP Y 12
    10 GLP5       11 GROUP        1 Y    GLP  0     **** GLP Y 13
    11 ALL1        5 GROUP        1 Z    ALL  0     ROOT ALL Z 15
    12 SEL2        2 GROUP        1 Z    SEL  0     **** SEL Z 16
    13 LYL4       29 GROUP        1 Z    LYL  0     **** LYL Z 18
    14 ZIL7       26 GROUP        1 Z    ZIL  0     **** ZIL Z 19
    15 GLL5       10 GROUP        1 Z    GLL  0     **** GLL Z 20
@<TRIPOS>SET

