#    Name: 2jat_DCM_2_ligand
#    Modification time : Tue Mar 25 19:50:58 2014

@<TRIPOS>MOLECULE
2jat_DCM_2_ligand
   32    33     1     0     0
SMALL
NO_CHARGES


@<TRIPOS>ATOM
      1 N1         17.1680   31.3070  -13.5280 N.am      1 DCM1204     0.0000 
      2 C2         17.1430   31.8700  -12.2260 C.2       1 DCM1204     0.0000 
      3 N3         17.8410   31.2260  -11.1890 N.2       1 DCM1204     0.0000 
      4 C4         18.5460   30.0400  -11.4430 C.2       1 DCM1204     0.0000 
      5 C5         18.5660   29.4830  -12.7190 C.2       1 DCM1204     0.0000 
      6 C6         17.8850   30.1100  -13.7580 C.2       1 DCM1204     0.0000 
      7 O2         16.5290   32.9100  -11.9760 O.2       1 DCM1204     0.0000 
      8 N4         19.1950   29.4490  -10.4530 N.pl3     1 DCM1204     0.0000 
      9 C1'        16.4530   31.9480  -14.6490 C.3       1 DCM1204     0.0000 
     10 C2'        17.4850   32.8650  -15.2560 C.3       1 DCM1204     0.0000 
     11 C3'        17.1650   32.8190  -16.7380 C.3       1 DCM1204     0.0000 
     12 C4'        16.2760   31.5860  -16.9260 C.3       1 DCM1204     0.0000 
     13 O4'        16.1990   30.9530  -15.6430 O.3       1 DCM1204     0.0000 
     14 O3'        16.4310   34.0040  -17.0900 O.3       1 DCM1204     0.0000 
     15 C5'        16.8710   30.5840  -17.9420 C.3       1 DCM1204     0.0000 
     16 O5'        18.2880   30.4720  -17.8030 O.3       1 DCM1204     0.0000 
     17 P          19.3000   30.5350  -19.0740 P.3       1 DCM1204     0.0000 
     18 O1P        19.2120   29.1410  -19.8790 O.co2     1 DCM1204     0.0000 
     19 O2P        18.6810   31.6320  -20.1020 O.co2     1 DCM1204     0.0000 
     20 O3P        20.6960   30.8280  -18.6840 O.co2     1 DCM1204     0.0000 
     21 H          19.0816   28.6126  -12.8923 H         1 DCM1204     0.0000 
     22 H          17.8972   29.7077  -14.7039 H         1 DCM1204     0.0000 
     23 H          19.1363   29.8953   -9.5600 H         1 DCM1204     0.0000 
     24 H          19.6853   28.6096  -10.6875 H         1 DCM1204     0.0000 
     25 H          15.6361   32.4732  -14.3461 H         1 DCM1204     0.0000 
     26 H          18.4607   32.4817  -15.0863 H         1 DCM1204     0.0000 
     27 H          17.3567   33.8538  -14.8905 H         1 DCM1204     0.0000 
     28 H          18.0497   32.6956  -17.2846 H         1 DCM1204     0.0000 
     29 H          15.3161   31.8983  -17.2607 H         1 DCM1204     0.0000 
     30 H          16.5840   30.9324  -18.9476 H         1 DCM1204     0.0000 
     31 H          16.3655   29.6180  -17.7794 H         1 DCM1204     0.0000 
     32 H          15.7136   33.6889  -17.7114 H         1 DCM1204     0.0000 
@<TRIPOS>BOND
     1    2    1 am   
     2    6    1 1    
     3    9    1 1    
     4    3    2 1    
     5    7    2 2    
     6    4    3 2    
     7    5    4 1    
     8    8    4 1    
     9    6    5 2    
    10   21    5 1    
    11   22    6 1    
    12   23    8 1    
    13   24    8 1    
    14   10    9 1    
    15   13    9 1    
    16   25    9 1    
    17   11   10 1    
    18   26   10 1    
    19   27   10 1    
    20   12   11 1    
    21   14   11 1    
    22   28   11 1    
    23   13   12 1    
    24   15   12 1    
    25   29   12 1    
    26   32   14 1    
    27   16   15 1    
    28   30   15 1    
    29   31   15 1    
    30   17   16 1    
    31   18   17 ar   
    32   19   17 ar   
    33   20   17 ar   
@<TRIPOS>SUBSTRUCTURE
     1 DCM1204     1 GROUP   
@<TRIPOS>SET

