#    Name: 3otf_CMP_1_INTS_M
#    Modification time : Tue Mar 25 05:16:37 2014

@<TRIPOS>MOLECULE
3otf_CMP_1_INTS_M
   56     0    12     0     0
SMALL
NO_CHARGES


@<TRIPOS>ATOM
      1 N         -22.1645  -16.3045   11.8700 N.am      2 SEC2        0.0000 
      2 N         -20.8030  -16.9690   12.1580 N.am     10 SEL2        0.0000 
      3 N         -23.5260  -15.6400   11.5820 N.am      6 SEP2        0.0000 
      4 N         -22.1450  -17.7335   11.8140 N.am      2 SEC2        0.0000 
      5 N         -23.4870  -18.4980   11.4700 N.am      6 SEP2        0.0000 
      6 NZ        -18.3615  -15.6600   14.4750 N.4       3 LYC4        0.0000 
      7 NZ        -18.7120  -16.4340   13.3810 N.4      11 LYL4        0.0000 
      8 NZ        -18.4080  -13.8420   16.2870 N.4       7 LYP4        0.0000 
      9 N         -17.8300  -16.4025   12.2690 N.am      2 SEC2        0.0000 
     10 N         -18.7120  -16.4340   13.3810 N.am     10 SEL2        0.0000 
     11 N         -16.9480  -16.3710   11.1570 N.am      6 SEP2        0.0000 
     12 N         -18.3615  -15.6600   14.4750 N.am      2 SEC2        0.0000 
     13 N         -18.0110  -14.8860   15.5690 N.am      6 SEP2        0.0000 
     14 CA        -22.3395  -15.9580   16.2805 C.3       4 GLC5        0.0000 
     15 CA        -22.1280  -17.5550   14.9150 C.3      12 GLL5        0.0000 
     16 CA        -22.5510  -14.3610   17.6460 C.3       8 GLP5        0.0000 
     17 CA        -21.2970  -15.5945   14.9285 C.3       4 GLC5        0.0000 
     18 CA        -20.4660  -13.6340   14.9420 C.3       8 GLP5        0.0000 
     19 CA        -24.3080  -17.2665   14.5465 C.3       4 GLC5        0.0000 
     20 CA        -26.4880  -16.9780   14.1780 C.3       8 GLP5        0.0000 
     21 N         -18.2620  -18.9520   12.8495 N.am      2 SEC2        0.0000 
     22 N         -19.7820  -18.7420   13.6620 N.am     10 SEL2        0.0000 
     23 N         -16.7420  -19.1620   12.0370 N.am      6 SEP2        0.0000 
     24 CA        -20.6155  -23.0790   13.6200 C.3       4 GLC5        0.0000 
     25 CA        -20.7750  -20.9580   14.1530 C.3      12 GLL5        0.0000 
     26 CA        -20.4560  -25.2000   13.0870 C.3       8 GLP5        0.0000 
     27 N         -18.7995  -20.4375   15.6945 N.am      2 SEC2        0.0000 
     28 N         -19.5420  -21.2420   14.8310 N.am     10 SEL2        0.0000 
     29 N         -18.0570  -19.6330   16.5580 N.am      6 SEP2        0.0000 
     30 O         -18.6890  -21.9785   14.1020 O.2       1 ALC1        0.0000 
     31 O         -19.5420  -21.2420   14.8310 O.2       9 ALL1        0.0000 
     32 O         -17.8360  -22.7150   13.3730 O.2       5 ALP1        0.0000 
     33 CA        -23.9345  -21.3220   15.7875 C.3       4 GLC5        0.0000 
     34 CA        -21.9380  -21.2230   15.0890 C.3      12 GLL5        0.0000 
     35 CA        -25.9310  -21.4210   16.4860 C.3       8 GLP5        0.0000 
     36 CA        -24.4050  -24.1265   16.9045 C.3       4 GLC5        0.0000 
     37 CA        -23.5400  -25.3700   15.4020 C.3      12 GLL5        0.0000 
     38 CA        -25.2700  -22.8830   18.4070 C.3       8 GLP5        0.0000 
     39 CA        -25.3240  -26.3950   16.3035 C.3       4 GLC5        0.0000 
     40 CA        -27.1080  -27.4200   17.2050 C.3       8 GLP5        0.0000 
     41 CA        -23.0585  -26.2370   17.1115 C.3       4 GLC5        0.0000 
     42 CA        -22.5770  -27.1040   18.8210 C.3       8 GLP5        0.0000 
     43 CA        -22.5385  -25.5875   13.7965 C.3       4 GLC5        0.0000 
     44 CA        -21.5370  -25.8050   12.1910 C.3       8 GLP5        0.0000 
     45 CA        -21.8830  -24.2025   13.8065 C.3       4 GLC5        0.0000 
     46 CA        -23.3100  -23.2050   14.5260 C.3      12 GLL5        0.0000 
     47 CA        -19.4742  -18.7432   15.3665 C.3       4 GLC5        0.0000 
     48 CA        -20.9650  -19.4840   13.8440 C.3      12 GLL5        0.0000 
     49 CA        -17.6740  -18.2660   16.2590 C.3       8 GLP5        0.0000 
     50 CA        -20.6845  -20.5290   12.3217 C.3       4 GLC5        0.0000 
     51 CA        -20.4990  -20.8370   10.6450 C.3       8 GLP5        0.0000 
     52 CA        -20.4898  -21.3238   16.4970 C.3       4 GLC5        0.0000 
     53 CA        -19.6230  -21.5570   18.3730 C.3       8 GLP5        0.0000 
     54 CA        -24.8725  -22.3910   15.2518 C.3       4 GLC5        0.0000 
     55 CA        -23.0703  -25.0033   12.8580 C.3       4 GLC5        0.0000 
     56 CA        -24.3180  -23.5170   13.5090 C.3      12 GLL5        0.0000 
@<TRIPOS>BOND
@<TRIPOS>SUBSTRUCTURE
     1 ALC1       30 GROUP        1 X    ALC  0     ROOT ALC X 1
     2 SEC2        1 GROUP        1 X    SEC  0     **** SEC X 2
     3 LYC4        6 GROUP        1 X    LYC  0     **** LYC X 4
     4 GLC5       14 GROUP        1 X    GLC  0     **** GLC X 6
     5 ALP1       32 GROUP        1 Y    ALP  0     ROOT ALP Y 8
     6 SEP2        3 GROUP        1 Y    SEP  0     **** SEP Y 9
     7 LYP4        8 GROUP        1 Y    LYP  0     **** LYP Y 11
     8 GLP5       16 GROUP        1 Y    GLP  0     **** GLP Y 13
     9 ALL1       31 GROUP        1 Z    ALL  0     ROOT ALL Z 15
    10 SEL2        2 GROUP        1 Z    SEL  0     **** SEL Z 16
    11 LYL4        7 GROUP        1 Z    LYL  0     **** LYL Z 18
    12 GLL5       15 GROUP        1 Z    GLL  0     **** GLL Z 20
@<TRIPOS>SET

