#    Name: 3otf_CMP_1_ligand
#    Modification time : Tue Mar 25 05:16:37 2014

@<TRIPOS>MOLECULE
3otf_CMP_1_ligand
   33    36     1     0     0
SMALL
NO_CHARGES


@<TRIPOS>ATOM
      1 P         -20.0210  -17.1830   13.4290 P.3       1 CMP725      0.0000 
      2 O1P       -20.8030  -16.9690   12.1580 O.co2     1 CMP725      0.0000 
      3 O2P       -18.7120  -16.4340   13.3810 O.co2     1 CMP725      0.0000 
      4 O5'       -20.9740  -16.7660   14.6380 O.3       1 CMP725      0.0000 
      5 C5'       -22.1280  -17.5550   14.9150 C.3       1 CMP725      0.0000 
      6 C4'       -21.5840  -18.9570   15.1040 C.3       1 CMP725      0.0000 
      7 O4'       -22.5290  -19.9610   15.4140 O.3       1 CMP725      0.0000 
      8 C3'       -20.9650  -19.4840   13.8440 C.3       1 CMP725      0.0000 
      9 O3'       -19.7820  -18.7420   13.6620 O.3       1 CMP725      0.0000 
     10 C2'       -20.7750  -20.9580   14.1530 C.3       1 CMP725      0.0000 
     11 O2'       -19.5420  -21.2420   14.8310 O.3       1 CMP725      0.0000 
     12 C1'       -21.9380  -21.2230   15.0890 C.3       1 CMP725      0.0000 
     13 N9        -22.9350  -21.9520   14.3010 N.pl3     1 CMP725      0.0000 
     14 C8        -23.6240  -21.4600   13.2530 C.2       1 CMP725      0.0000 
     15 N7        -24.4660  -22.4030   12.7600 N.2       1 CMP725      0.0000 
     16 C5        -24.3180  -23.5170   13.5090 C.ar      1 CMP725      0.0000 
     17 C6        -24.8890  -24.8860   13.5410 C.ar      1 CMP725      0.0000 
     18 N6        -25.8330  -25.2710   12.6520 N.pl3     1 CMP725      0.0000 
     19 N1        -24.4660  -25.7380   14.5010 N.ar      1 CMP725      0.0000 
     20 C2        -23.5400  -25.3700   15.4020 C.ar      1 CMP725      0.0000 
     21 N3        -22.9740  -24.1520   15.4270 N.ar      1 CMP725      0.0000 
     22 C4        -23.3100  -23.2050   14.5260 C.ar      1 CMP725      0.0000 
     23 H         -22.8204  -17.5659   14.0917 H         1 CMP725      0.0000 
     24 H         -22.6179  -17.2538   15.8242 H         1 CMP725      0.0000 
     25 H         -20.7911  -18.9418   15.8531 H         1 CMP725      0.0000 
     26 H         -21.6739  -19.3730   13.0681 H         1 CMP725      0.0000 
     27 H         -20.9273  -21.5169   13.2739 H         1 CMP725      0.0000 
     28 H         -21.6268  -21.7603   15.9118 H         1 CMP725      0.0000 
     29 H         -23.5343  -20.5558   12.8955 H         1 CMP725      0.0000 
     30 H         -26.1401  -24.5722   12.0059 H         1 CMP725      0.0000 
     31 H         -26.1401  -26.2203   12.7197 H         1 CMP725      0.0000 
     32 H         -23.2380  -26.0831   16.1369 H         1 CMP725      0.0000 
     33 H         -19.0011  -21.7681   14.1747 H         1 CMP725      0.0000 
@<TRIPOS>BOND
     1    2    1 ar   
     2    3    1 ar   
     3    4    1 1    
     4    9    1 1    
     5    5    4 1    
     6    6    5 1    
     7   23    5 1    
     8   24    5 1    
     9    7    6 1    
    10    8    6 1    
    11   25    6 1    
    12   12    7 1    
    13    9    8 1    
    14   10    8 1    
    15   26    8 1    
    16   11   10 1    
    17   12   10 1    
    18   27   10 1    
    19   33   11 1    
    20   13   12 1    
    21   28   12 1    
    22   14   13 1    
    23   22   13 1    
    24   15   14 2    
    25   29   14 1    
    26   16   15 1    
    27   17   16 ar   
    28   22   16 ar   
    29   18   17 1    
    30   19   17 ar   
    31   30   18 1    
    32   31   18 1    
    33   20   19 ar   
    34   21   20 ar   
    35   32   20 1    
    36   22   21 ar   
@<TRIPOS>SUBSTRUCTURE
     1 CMP725      1 GROUP   
@<TRIPOS>SET

