#    Name: 3fre_TOP_1_INTS_M
#    Modification time : Tue Mar 25 06:23:30 2014

@<TRIPOS>MOLECULE
3fre_TOP_1_INTS_M
   65     0     6     0     0
SMALL
NO_CHARGES


@<TRIPOS>ATOM
      1 CA         29.5720   10.0825   43.8240 C.3       2 GLC5        0.0000 
      2 CA         28.7250    9.9330   41.7630 C.3       6 GLL5        0.0000 
      3 CA         30.4190   10.2320   45.8850 C.3       4 GLP5        0.0000 
      4 CA         30.4480    9.1330   42.0365 C.3       2 GLC5        0.0000 
      5 CA         32.1710    8.3330   42.3100 C.3       4 GLP5        0.0000 
      6 CA         25.2565    8.8220   40.3170 C.3       2 GLC5        0.0000 
      7 CA         27.2280    8.4330   40.7650 C.3       6 GLL5        0.0000 
      8 CA         23.2850    9.2110   39.8690 C.3       4 GLP5        0.0000 
      9 CA         26.1540    7.6755   42.1985 C.3       2 GLC5        0.0000 
     10 CA         25.0800    6.9180   43.6320 C.3       4 GLP5        0.0000 
     11 CA         28.5270    8.0055   39.7845 C.3       2 GLC5        0.0000 
     12 CA         29.8260    7.5780   38.8040 C.3       4 GLP5        0.0000 
     13 O          27.7030    6.6150   41.7615 O.2       1 ALC1        0.0000 
     14 O          26.7330    7.1320   40.6810 O.2       5 ALL1        0.0000 
     15 O          28.6730    6.0980   42.8420 O.2       3 ALP1        0.0000 
     16 O          27.2380    5.8515   41.1635 O.2       1 ALC1        0.0000 
     17 O          27.7430    4.5710   41.6460 O.2       3 ALP1        0.0000 
     18 O          25.8730    6.0945   39.6645 O.2       1 ALC1        0.0000 
     19 O          25.0130    5.0570   38.6480 O.2       3 ALP1        0.0000 
     20 CA         25.2280    9.9170   39.9370 C.3       2 GLC5        0.0000 
     21 CA         27.1710   10.6230   40.0050 C.3       6 GLL5        0.0000 
     22 O          25.4760   11.2820   38.5780 O.2       1 ALC1        0.0000 
     23 O          26.6280   11.5980   39.1660 O.2       5 ALL1        0.0000 
     24 O          24.3240   10.9660   37.9900 O.2       3 ALP1        0.0000 
     25 O          26.3440   12.9280   39.1600 O.2       1 ALC1        0.0000 
     26 O          26.0600   14.2580   39.1540 O.2       3 ALP1        0.0000 
     27 CA         29.6270   12.3765   39.4605 C.3       2 GLC5        0.0000 
     28 CA         28.7850   12.3680   41.0400 C.3       6 GLL5        0.0000 
     29 CA         30.4690   12.3850   37.8810 C.3       4 GLP5        0.0000 
     30 CA         27.3200   12.9730   41.6495 C.3       2 GLC5        0.0000 
     31 CA         25.8550   13.5780   42.2590 C.3       4 GLP5        0.0000 
     32 CA         32.8815    9.6055   41.5365 C.3       2 GLC5        0.0000 
     33 CA         33.5920   10.8780   40.7630 C.3       6 GLL5        0.0000 
     34 CA         32.5745    9.8270   39.1065 C.3       2 GLC5        0.0000 
     35 CA         31.5570    8.7760   37.4500 C.3       4 GLP5        0.0000 
     36 CA         34.6095   12.4065   39.4730 C.3       2 GLC5        0.0000 
     37 CA         35.6270   13.9350   38.1830 C.3       4 GLP5        0.0000 
     38 CA         32.1590   11.1530   45.5005 C.3       2 GLC5        0.0000 
     39 CA         33.8990   12.0740   45.1160 C.3       6 GLL5        0.0000 
     40 CA         34.0770   10.2620   44.4055 C.3       2 GLC5        0.0000 
     41 CA         34.2550    8.4500   43.6950 C.3       4 GLP5        0.0000 
     42 CA         30.2545   12.3880   45.2600 C.3       2 GLC5        0.0000 
     43 CA         31.0100   13.5850   43.8910 C.3       6 GLL5        0.0000 
     44 CA         29.4990   11.1910   46.6290 C.3       4 GLP5        0.0000 
     45 CA         29.6000   13.1200   45.9300 C.3       2 GLC5        0.0000 
     46 CA         29.7010   15.0490   45.2310 C.3       6 GLL5        0.0000 
     47 CA         30.6315   16.8655   45.6275 C.3       2 GLC5        0.0000 
     48 CA         31.5620   18.6820   46.0240 C.3       4 GLP5        0.0000 
     49 CA         28.1550   15.7800   45.7560 C.3       2 GLC5        0.0000 
     50 CA         26.6090   16.5110   46.2810 C.3       4 GLP5        0.0000 
     51 CA         29.0070   12.2490   44.5520 C.3       2 GLC5        0.0000 
     52 CA         29.9200   13.3630   43.0480 C.3       6 GLL5        0.0000 
     53 CA         28.0940   11.1350   46.0560 C.3       4 GLP5        0.0000 
     54 CA         31.2140   14.5490   41.8515 C.3       2 GLC5        0.0000 
     55 CA         32.5080   15.7350   40.6550 C.3       4 GLP5        0.0000 
     56 CA         28.8276    9.0556   39.7437 C.3       2 GLC5        0.0000 
     57 CA         28.2500   10.9540   40.9610 C.3       6 GLL5        0.0000 
     58 CA         31.9770   10.1698   42.1370 C.3       2 GLC5        0.0000 
     59 CA         31.2130   11.9210   41.5700 C.3       6 GLL5        0.0000 
     60 CA         31.3723   11.3745   44.4247 C.3       2 GLC5        0.0000 
     61 CA         32.3530   12.0920   42.3580 C.3       6 GLL5        0.0000 
     62 CA         31.9956   13.9482   41.3529 C.3       2 GLC5        0.0000 
     63 CA         32.3265   14.7978   42.8455 C.3       2 GLC5        0.0000 
     64 CA         32.2980   12.9420   43.5710 C.3       6 GLL5        0.0000 
     65 CA         32.9990   16.3320   41.9600 C.3       4 GLP5        0.0000 
@<TRIPOS>BOND
@<TRIPOS>SUBSTRUCTURE
     1 ALC1       13 GROUP        1 X    ALC  0     ROOT ALC X 1
     2 GLC5        1 GROUP        1 X    GLC  0     **** GLC X 6
     3 ALP1       15 GROUP        1 Y    ALP  0     ROOT ALP Y 8
     4 GLP5        3 GROUP        1 Y    GLP  0     **** GLP Y 13
     5 ALL1       14 GROUP        1 Z    ALL  0     ROOT ALL Z 15
     6 GLL5        2 GROUP        1 Z    GLL  0     **** GLL Z 20
@<TRIPOS>SET

