#    Name: 3fre_TOP_1_ligand
#    Modification time : Tue Mar 25 06:23:30 2014

@<TRIPOS>MOLECULE
3fre_TOP_1_ligand
   39    40     1     0     0
SMALL
NO_CHARGES


@<TRIPOS>ATOM
      1 C1         28.7250    9.9330   41.7630 C.ar      1 TOP300      0.0000 
      2 N2         28.2040    8.7100   41.6420 N.ar      1 TOP300      0.0000 
      3 C3         27.2280    8.4330   40.7650 C.ar      1 TOP300      0.0000 
      4 N4         26.7330    7.1320   40.6810 N.pl3     1 TOP300      0.0000 
      5 N5         26.7160    9.3710   39.9570 N.ar      1 TOP300      0.0000 
      6 C6         27.1710   10.6230   40.0050 C.ar      1 TOP300      0.0000 
      7 N7         26.6280   11.5980   39.1660 N.pl3     1 TOP300      0.0000 
      8 C8         28.2500   10.9540   40.9610 C.ar      1 TOP300      0.0000 
      9 C9         28.7850   12.3680   41.0400 C.3       1 TOP300      0.0000 
     10 C10        30.0140   12.5410   41.9170 C.ar      1 TOP300      0.0000 
     11 C11        31.2130   11.9210   41.5700 C.ar      1 TOP300      0.0000 
     12 C12        32.3530   12.0920   42.3580 C.ar      1 TOP300      0.0000 
     13 O13        33.4890   11.4960   42.0290 O.3       1 TOP300      0.0000 
     14 C14        33.5920   10.8780   40.7630 C.3       1 TOP300      0.0000 
     15 C15        32.2980   12.9420   43.5710 C.ar      1 TOP300      0.0000 
     16 O16        33.3650   13.1310   44.3470 O.3       1 TOP300      0.0000 
     17 C17        33.8990   12.0740   45.1160 C.3       1 TOP300      0.0000 
     18 C18        31.0100   13.5850   43.8910 C.ar      1 TOP300      0.0000 
     19 O19        30.9080   14.3620   44.9700 O.3       1 TOP300      0.0000 
     20 C20        29.7010   15.0490   45.2310 C.3       1 TOP300      0.0000 
     21 C21        29.9200   13.3630   43.0480 C.ar      1 TOP300      0.0000 
     22 H          29.4772   10.1370   42.4434 H         1 TOP300      0.0000 
     23 H          27.1691    6.4560   41.2751 H         1 TOP300      0.0000 
     24 H          25.9845    6.9869   40.0339 H         1 TOP300      0.0000 
     25 H          26.2712   11.2750   38.2894 H         1 TOP300      0.0000 
     26 H          26.6425   12.5355   39.5137 H         1 TOP300      0.0000 
     27 H          27.9830   13.0369   41.4140 H         1 TOP300      0.0000 
     28 H          29.0250   12.7207   40.0161 H         1 TOP300      0.0000 
     29 H          31.2598   11.3319   40.7261 H         1 TOP300      0.0000 
     30 H          29.0116   13.8193   43.2632 H         1 TOP300      0.0000 
     31 H          34.4923   10.4659   40.6230 H         1 TOP300      0.0000 
     32 H          32.9156   10.1504   40.6488 H         1 TOP300      0.0000 
     33 H          33.4493   11.5303   40.0186 H         1 TOP300      0.0000 
     34 H          34.1933   11.3094   44.5426 H         1 TOP300      0.0000 
     35 H          34.6949   12.3659   45.6465 H         1 TOP300      0.0000 
     36 H          33.2302   11.7127   45.7657 H         1 TOP300      0.0000 
     37 H          29.7559   15.5908   46.0697 H         1 TOP300      0.0000 
     38 H          29.4641   15.6781   44.4906 H         1 TOP300      0.0000 
     39 H          28.9313   14.4197   45.3385 H         1 TOP300      0.0000 
@<TRIPOS>BOND
     1    2    1 ar   
     2    8    1 ar   
     3   22    1 1    
     4    3    2 ar   
     5    4    3 1    
     6    5    3 ar   
     7   23    4 1    
     8   24    4 1    
     9    6    5 ar   
    10    7    6 1    
    11    8    6 ar   
    12   25    7 1    
    13   26    7 1    
    14    9    8 1    
    15   10    9 1    
    16   27    9 1    
    17   28    9 1    
    18   11   10 ar   
    19   21   10 ar   
    20   12   11 ar   
    21   29   11 1    
    22   13   12 1    
    23   15   12 ar   
    24   14   13 1    
    25   31   14 1    
    26   32   14 1    
    27   33   14 1    
    28   16   15 1    
    29   18   15 ar   
    30   17   16 1    
    31   34   17 1    
    32   35   17 1    
    33   36   17 1    
    34   19   18 1    
    35   21   18 ar   
    36   20   19 1    
    37   37   20 1    
    38   38   20 1    
    39   39   20 1    
    40   30   21 1    
@<TRIPOS>SUBSTRUCTURE
     1 TOP300      1 GROUP   
@<TRIPOS>SET

