#    Name: 3zy6_GFB_1_INTS_M
#    Modification time : Tue Mar 25 04:40:45 2014

@<TRIPOS>MOLECULE
3zy6_GFB_1_INTS_M
   79     0    12     0     0
SMALL
NO_CHARGES


@<TRIPOS>ATOM
      1 N          12.4585    4.3995   16.9115 N.am      2 SEC2        0.0000 
      2 N          11.9200    5.2970   17.8510 N.am     10 SEL2        0.0000 
      3 N          12.9970    3.5020   15.9720 N.am      6 SEP2        0.0000 
      4 N          10.4405    3.5375   15.3200 N.am      2 SEC2        0.0000 
      5 N          10.0290    4.7750   16.1430 N.am     10 SEL2        0.0000 
      6 N          10.8520    2.3000   14.4970 N.am      6 SEP2        0.0000 
      7 CA         10.5980    7.6610   16.9280 C.3       4 GLC5        0.0000 
      8 CA         10.1990    7.4300   18.9550 C.3      12 GLL5        0.0000 
      9 CA         10.9970    7.8920   14.9010 C.3       8 GLP5        0.0000 
     10 CA         10.7565    9.3010   17.1575 C.3       4 GLC5        0.0000 
     11 CA         11.2940    8.4580   18.7010 C.3      12 GLL5        0.0000 
     12 CA         10.2190   10.1440   15.6140 C.3       8 GLP5        0.0000 
     13 CA         11.8475    7.8900   16.8770 C.3       4 GLC5        0.0000 
     14 CA         12.6980    7.8880   18.8530 C.3      12 GLL5        0.0000 
     15 CA         13.4580    6.3290   19.6620 C.3       4 GLC5        0.0000 
     16 CA         14.2180    4.7700   20.4710 C.3       8 GLP5        0.0000 
     17 CA         11.5710   10.2945   22.1620 C.3       4 GLC5        0.0000 
     18 CA         12.4550    9.7060   20.3130 C.3      12 GLL5        0.0000 
     19 CA         10.6870   10.8830   24.0110 C.3       8 GLP5        0.0000 
     20 N          13.2715    6.7315   16.0780 N.am      2 SEC2        0.0000 
     21 N          13.2300    7.3840   17.6240 N.am     10 SEL2        0.0000 
     22 N          13.3130    6.0790   14.5320 N.am      6 SEP2        0.0000 
     23 CA         14.4415    7.2725   20.0415 C.3       4 GLC5        0.0000 
     24 CA         13.4610    9.0960   19.3450 C.3      12 GLL5        0.0000 
     25 CA         15.4220    5.4490   20.7380 C.3       8 GLP5        0.0000 
     26 CA         12.1955   10.0220   23.1880 C.3       4 GLC5        0.0000 
     27 CA         13.7040    9.1610   22.3650 C.3      12 GLL5        0.0000 
     28 N          12.1110    6.5340   24.2320 N.am      2 SEC2        0.0000 
     29 N          12.4340    7.6130   23.3120 N.am     10 SEL2        0.0000 
     30 N          11.7880    5.4550   25.1520 N.am      6 SEP2        0.0000 
     31 CA         13.0530    6.7510   24.8695 C.3       4 GLC5        0.0000 
     32 CA         13.5950    8.3000   23.4440 C.3      12 GLL5        0.0000 
     33 CA         12.5110    5.2020   26.2950 C.3       8 GLP5        0.0000 
     34 CA         12.7055    9.8600   24.1695 C.3       4 GLC5        0.0000 
     35 CA         11.8160   11.4200   24.8950 C.3       8 GLP5        0.0000 
     36 O          17.1160    9.6625   24.8530 O.2       1 ALC1        0.0000 
     37 O          15.6450    9.1990   24.2390 O.2       9 ALL1        0.0000 
     38 O          18.5870   10.1260   25.4670 O.2       5 ALP1        0.0000 
     39 O          17.6855   10.4870   24.2370 O.2       1 ALC1        0.0000 
     40 O          16.7840   10.8480   23.0070 O.2       9 ALL1        0.0000 
     41 CA          5.6155    5.2805   19.6265 C.3       4 GLC5        0.0000 
     42 CA          6.4150    5.5280   17.6510 C.3      12 GLL5        0.0000 
     43 CA          4.8160    5.0330   21.6020 C.3       8 GLP5        0.0000 
     44 N           7.1735    6.9095   19.3080 N.am      2 SEC2        0.0000 
     45 N           7.6110    5.6480   18.4270 N.am     10 SEL2        0.0000 
     46 N           6.7360    8.1710   20.1890 N.am      6 SEP2        0.0000 
     47 N           6.0555    7.2540   19.2110 N.am      2 SEC2        0.0000 
     48 N           5.3750    6.3370   18.2330 N.am     10 SEL2        0.0000 
     49 CA          4.1470    4.4725   15.4755 C.3       4 GLC5        0.0000 
     50 CA          5.4570    5.9860   15.3830 C.3      12 GLL5        0.0000 
     51 CA          2.8370    2.9590   15.5680 C.3       8 GLP5        0.0000 
     52 CA          4.4980    5.8200   19.5305 C.3       4 GLC5        0.0000 
     53 CA          4.1800    6.6070   17.4590 C.3      12 GLL5        0.0000 
     54 N           6.1185    9.1340   16.8060 N.am      2 SEC2        0.0000 
     55 N           5.0810    8.2970   15.9940 N.am     10 SEL2        0.0000 
     56 N           7.1560    9.9710   17.6180 N.am      6 SEP2        0.0000 
     57 CA          3.9425    7.0285   20.0820 C.3       4 GLC5        0.0000 
     58 CA          3.3680    7.7210   18.1310 C.3      12 GLL5        0.0000 
     59 CA          4.5170    6.3360   22.0330 C.3       8 GLP5        0.0000 
     60 CA          1.7220    7.7560   18.6430 C.3       4 GLC5        0.0000 
     61 CA          0.0760    7.7910   19.1550 C.3       8 GLP5        0.0000 
     62 N           8.0555    1.8935   19.3970 N.am      2 SEC2        0.0000 
     63 N           7.6470    3.1010   18.7340 N.am     10 SEL2        0.0000 
     64 N           8.4640    0.6860   20.0600 N.am      6 SEP2        0.0000 
     65 N           8.5405    2.4255   18.0900 N.am      2 SEC2        0.0000 
     66 N           9.4340    1.7500   17.4460 N.am      6 SEP2        0.0000 
     67 NZ          8.0925    5.9685   21.3315 N.4       3 LYC4        0.0000 
     68 NZ          8.3420    4.7270   20.6930 N.4      11 LYL4        0.0000 
     69 NZ          7.2630    8.2700   21.4050 N.4       7 LYP4        0.0000 
     70 N           8.0925    5.9685   21.3315 N.am      2 SEC2        0.0000 
     71 N           8.3420    4.7270   20.6930 N.am     10 SEL2        0.0000 
     72 N           7.8430    7.2100   21.9700 N.am      6 SEP2        0.0000 
     73 N           8.8495    3.8545   21.5080 N.am      2 SEC2        0.0000 
     74 N           9.3570    2.9820   22.3230 N.am      6 SEP2        0.0000 
     75 CA         15.0497    8.5155   18.4910 C.3       4 GLC5        0.0000 
     76 CA         17.0200    8.5390   17.8830 C.3       8 GLP5        0.0000 
     77 CA          3.1573    5.2885   16.5280 C.3       4 GLC5        0.0000 
     78 CA          4.4850    6.9850   16.0110 C.3      12 GLL5        0.0000 
     79 CA          1.9820    3.7810   16.3210 C.3       8 GLP5        0.0000 
@<TRIPOS>BOND
@<TRIPOS>SUBSTRUCTURE
     1 ALC1       36 GROUP        1 X    ALC  0     ROOT ALC X 1
     2 SEC2        1 GROUP        1 X    SEC  0     **** SEC X 2
     3 LYC4       67 GROUP        1 X    LYC  0     **** LYC X 4
     4 GLC5        7 GROUP        1 X    GLC  0     **** GLC X 6
     5 ALP1       38 GROUP        1 Y    ALP  0     ROOT ALP Y 8
     6 SEP2        3 GROUP        1 Y    SEP  0     **** SEP Y 9
     7 LYP4       69 GROUP        1 Y    LYP  0     **** LYP Y 11
     8 GLP5        9 GROUP        1 Y    GLP  0     **** GLP Y 13
     9 ALL1       37 GROUP        1 Z    ALL  0     ROOT ALL Z 15
    10 SEL2        2 GROUP        1 Z    SEL  0     **** SEL Z 16
    11 LYL4       68 GROUP        1 Z    LYL  0     **** LYL Z 18
    12 GLL5        8 GROUP        1 Z    GLL  0     **** GLL Z 20
@<TRIPOS>SET

