#    Name: 3zy6_GFB_1_ligand
#    Modification time : Tue Mar 25 04:40:46 2014

@<TRIPOS>MOLECULE
3zy6_GFB_1_ligand
   61    64     1     0     0
SMALL
NO_CHARGES


@<TRIPOS>ATOM
      1 O1P        11.9200    5.2970   17.8510 O.co2     1 GFB1381     0.0000 
      2 P          10.4530    5.2750   17.5210 P.3       1 GFB1381     0.0000 
      3 O3P        10.0290    4.7750   16.1430 O.co2     1 GFB1381     0.0000 
      4 O2P         9.7830    4.4310   18.7210 O.3       1 GFB1381     0.0000 
      5 O5'         9.8940    6.7770   17.7280 O.3       1 GFB1381     0.0000 
      6 P1          8.2540    4.3970   19.2280 P.3       1 GFB1381     0.0000 
      7 C5'        10.1990    7.4300   18.9550 C.3       1 GFB1381     0.0000 
      8 C4'        11.2940    8.4580   18.7010 C.3       1 GFB1381     0.0000 
      9 O4'        11.1890    9.4500   19.7050 O.3       1 GFB1381     0.0000 
     10 C3'        12.6980    7.8880   18.8530 C.3       1 GFB1381     0.0000 
     11 C1'        12.4550    9.7060   20.3130 C.3       1 GFB1381     0.0000 
     12 O3'        13.2300    7.3840   17.6240 O.3       1 GFB1381     0.0000 
     13 C2'        13.4610    9.0960   19.3450 C.3       1 GFB1381     0.0000 
     14 O2'        13.7130    9.9960   18.2590 O.3       1 GFB1381     0.0000 
     15 N9         12.6410    8.9750   21.5970 N.pl3     1 GFB1381     0.0000 
     16 C8         11.8700    8.0150   22.1590 C.2       1 GFB1381     0.0000 
     17 C4         13.7040    9.1610   22.3650 C.2       1 GFB1381     0.0000 
     18 N7         12.4340    7.6130   23.3120 N.2       1 GFB1381     0.0000 
     19 C5         13.5950    8.3000   23.4440 C.2       1 GFB1381     0.0000 
     20 C6         14.6100    8.3320   24.3890 C.2       1 GFB1381     0.0000 
     21 O6         14.5500    7.5900   25.3910 O.2       1 GFB1381     0.0000 
     22 N1         15.6450    9.1990   24.2390 N.am      1 GFB1381     0.0000 
     23 C2         15.7340   10.0070   23.1660 C.2       1 GFB1381     0.0000 
     24 N2         16.7840   10.8480   23.0070 N.pl3     1 GFB1381     0.0000 
     25 N3         14.7690    9.9960   22.2350 N.2       1 GFB1381     0.0000 
     26 C1          6.4150    5.5280   17.6510 C.3       1 GFB1381     0.0000 
     27 C2A         6.7140    6.0570   16.2570 C.3       1 GFB1381     0.0000 
     28 O1          7.6110    5.6480   18.4270 O.3       1 GFB1381     0.0000 
     29 O5          5.3750    6.3370   18.2330 O.3       1 GFB1381     0.0000 
     30 C3          5.4570    5.9860   15.3830 C.3       1 GFB1381     0.0000 
     31 O2          7.8600    5.4750   15.6260 O.3       1 GFB1381     0.0000 
     32 C4A         4.4850    6.9850   16.0110 C.3       1 GFB1381     0.0000 
     33 O3          5.7790    6.3370   14.0170 O.3       1 GFB1381     0.0000 
     34 C5A         4.1800    6.6070   17.4590 C.3       1 GFB1381     0.0000 
     35 O4          5.0810    8.2970   15.9940 O.3       1 GFB1381     0.0000 
     36 C6A         3.3680    7.7210   18.1310 C.3       1 GFB1381     0.0000 
     37 O1X         7.6470    3.1010   18.7340 O.co2     1 GFB1381     0.0000 
     38 O2X         8.3420    4.7270   20.6930 O.co2     1 GFB1381     0.0000 
     39 H          10.5644    6.7300   19.7105 H         1 GFB1381     0.0000 
     40 H           9.3329    7.9562   19.3640 H         1 GFB1381     0.0000 
     41 H          11.1853    8.8743   17.7328 H         1 GFB1381     0.0000 
     42 H          12.6749    7.1716   19.6413 H         1 GFB1381     0.0000 
     43 H          12.6726   10.7234   20.4116 H         1 GFB1381     0.0000 
     44 H          14.3005    8.7889   19.8709 H         1 GFB1381     0.0000 
     45 H          11.0416    7.6738   21.7851 H         1 GFB1381     0.0000 
     46 H          16.3896    9.2357   24.9796 H         1 GFB1381     0.0000 
     47 H          17.4494   10.8672   23.7533 H         1 GFB1381     0.0000 
     48 H          16.8008   11.3751   22.1574 H         1 GFB1381     0.0000 
     49 H           6.1098    4.5105   17.5611 H         1 GFB1381     0.0000 
     50 H           6.9029    7.1688   16.3927 H         1 GFB1381     0.0000 
     51 H           5.0465    5.0098   15.4745 H         1 GFB1381     0.0000 
     52 H           3.5694    6.9721   15.4530 H         1 GFB1381     0.0000 
     53 H           3.5370    5.7177   17.4408 H         1 GFB1381     0.0000 
     54 H           3.8908    8.5705   18.2021 H         1 GFB1381     0.0000 
     55 H           2.5340    7.9319   17.6212 H         1 GFB1381     0.0000 
     56 H           3.0893    7.4699   19.0580 H         1 GFB1381     0.0000 
     57 H          12.4964    6.8280   17.2333 H         1 GFB1381     0.0000 
     58 H          13.7980    9.4109   17.4525 H         1 GFB1381     0.0000 
     59 H           8.6413    5.7982   16.1599 H         1 GFB1381     0.0000 
     60 H           6.7755    6.2750   13.9620 H         1 GFB1381     0.0000 
     61 H           5.8438    8.2263   15.3513 H         1 GFB1381     0.0000 
@<TRIPOS>BOND
     1    2    1 ar   
     2    3    2 ar   
     3    4    2 1    
     4    5    2 1    
     5    6    4 1    
     6    7    5 1    
     7   28    6 1    
     8   37    6 ar   
     9   38    6 ar   
    10    8    7 1    
    11   39    7 1    
    12   40    7 1    
    13    9    8 1    
    14   10    8 1    
    15   41    8 1    
    16   11    9 1    
    17   12   10 1    
    18   13   10 1    
    19   42   10 1    
    20   13   11 1    
    21   15   11 1    
    22   43   11 1    
    23   57   12 1    
    24   14   13 1    
    25   44   13 1    
    26   58   14 1    
    27   16   15 1    
    28   17   15 1    
    29   18   16 2    
    30   45   16 1    
    31   19   17 2    
    32   25   17 1    
    33   19   18 1    
    34   20   19 1    
    35   21   20 2    
    36   22   20 am   
    37   23   22 1    
    38   46   22 1    
    39   24   23 1    
    40   25   23 2    
    41   47   24 1    
    42   48   24 1    
    43   27   26 1    
    44   28   26 1    
    45   29   26 1    
    46   49   26 1    
    47   30   27 1    
    48   31   27 1    
    49   50   27 1    
    50   34   29 1    
    51   32   30 1    
    52   33   30 1    
    53   51   30 1    
    54   59   31 1    
    55   34   32 1    
    56   35   32 1    
    57   52   32 1    
    58   60   33 1    
    59   36   34 1    
    60   53   34 1    
    61   61   35 1    
    62   54   36 1    
    63   55   36 1    
    64   56   36 1    
@<TRIPOS>SUBSTRUCTURE
     1 GFB1381     1 GROUP   
@<TRIPOS>SET

