#    Name: 1r4l_XX5_1_INTS_M
#    Modification time : Tue Mar 25 00:21:14 2014

@<TRIPOS>MOLECULE
1r4l_XX5_1_INTS_M
   73     0    15     0     0
SMALL
NO_CHARGES


@<TRIPOS>ATOM
      1 Zn         38.7615    7.3015   22.9790 Zn        4 ZIC7        0.0000 
      2 Zn         38.2750    6.5680   23.4960 Zn       14 ZIL7        0.0000 
      3 Zn         39.2480    8.0350   22.4620 Zn        9 ZIP7        0.0000 
      4 N          37.7450    6.3410   22.1745 N.am      1 SEC2        0.0000 
      5 N          38.2750    6.5680   23.4960 N.am     11 SEL2        0.0000 
      6 N          37.2150    6.1140   20.8530 N.am      6 SEP2        0.0000 
      7 N          38.4490    4.9565   23.5230 N.am      1 SEC2        0.0000 
      8 N          38.6230    3.3450   23.5500 N.am      6 SEP2        0.0000 
      9 Zn         38.7530    8.1030   23.6750 Zn        4 ZIC7        0.0000 
     10 Zn         38.2580    8.1710   24.8880 Zn       14 ZIL7        0.0000 
     11 CA         36.5635    4.3530   28.0715 C.3       5 GLC5        0.0000 
     12 CA         37.2120    5.5410   26.5440 C.3      15 GLL5        0.0000 
     13 CA         35.9150    3.1650   29.5990 C.3      10 GLP5        0.0000 
     14 CA         35.3720    4.3480   28.3545 C.3       5 GLC5        0.0000 
     15 CA         34.8290    5.5310   27.1100 C.3      15 GLL5        0.0000 
     16 CA         33.1895    5.1370   26.9725 C.3       5 GLC5        0.0000 
     17 CA         31.5500    4.7430   26.8350 C.3      10 GLP5        0.0000 
     18 OD1        40.0880    8.1280   26.3155 O.co2     2 ASC3        0.0000 
     19 OD1        39.4770    6.3660   26.8120 O.co2    12 ASL3        0.0000 
     20 OD1        40.6990    9.8900   25.8190 O.co2     7 ASP3        0.0000 
     21 NZ         42.0670    3.1715   24.5390 N.4       3 LYC4        0.0000 
     22 NZ         41.4430    4.3310   24.9100 N.4      13 LYL4        0.0000 
     23 NZ         42.8270    1.0190   25.0320 N.4       8 LYP4        0.0000 
     24 N          42.0670    3.1715   24.5390 N.am      1 SEC2        0.0000 
     25 N          41.4430    4.3310   24.9100 N.am     11 SEL2        0.0000 
     26 N          42.6910    2.0120   24.1680 N.am      6 SEP2        0.0000 
     27 NZ         41.5570    2.3255   26.5220 N.4       3 LYC4        0.0000 
     28 NZ         40.9570    3.6150   26.8740 N.4      13 LYL4        0.0000 
     29 N          41.5570    2.3255   26.5220 N.am      1 SEC2        0.0000 
     30 N          40.9570    3.6150   26.8740 N.am     11 SEL2        0.0000 
     31 N          42.1570    1.0360   26.1700 N.am      6 SEP2        0.0000 
     32 N          40.2180    3.8325   27.9605 N.am      1 SEC2        0.0000 
     33 N          39.4790    4.0500   29.0470 N.am      6 SEP2        0.0000 
     34 N          40.2345    2.4770   26.8175 N.am      1 SEC2        0.0000 
     35 N          39.5120    1.3390   26.7610 N.am      6 SEP2        0.0000 
     36 CA         41.4840    6.9230   29.4815 C.3       5 GLC5        0.0000 
     37 CA         41.7770    6.3410   27.7390 C.3      15 GLL5        0.0000 
     38 CA         41.1910    7.5050   31.2240 C.3      10 GLP5        0.0000 
     39 CA         43.8295    8.5565   31.7850 C.3       5 GLC5        0.0000 
     40 CA         45.5690    8.4330   32.6490 C.3      15 GLL5        0.0000 
     41 CA         42.0900    8.6800   30.9210 C.3      10 GLP5        0.0000 
     42 CA         45.3805   10.1140   31.8790 C.3       5 GLC5        0.0000 
     43 CA         45.1920   11.7950   31.1090 C.3      10 GLP5        0.0000 
     44 CA         46.4865    8.4685   34.5865 C.3       5 GLC5        0.0000 
     45 CA         47.4040    8.5040   36.5240 C.3      10 GLP5        0.0000 
     46 CA         40.9580    4.6045   31.4300 C.3       5 GLC5        0.0000 
     47 CA         43.1710    4.5910   31.8240 C.3      15 GLL5        0.0000 
     48 CA         38.7450    4.6180   31.0360 C.3      10 GLP5        0.0000 
     49 CA         42.3865    4.4030   36.6225 C.3       5 GLC5        0.0000 
     50 CA         42.2250    4.5190   34.5160 C.3      15 GLL5        0.0000 
     51 CA         42.5480    4.2870   38.7290 C.3      10 GLP5        0.0000 
     52 CA         41.1240    5.8335   35.9510 C.3       5 GLC5        0.0000 
     53 CA         40.0230    7.1480   37.3860 C.3      10 GLP5        0.0000 
     54 CA         38.2863    5.3570   27.9500 C.3       5 GLC5        0.0000 
     55 CA         38.7180    4.9670   29.7290 C.3      10 GLP5        0.0000 
     56 CA         35.5837    7.0680   28.2198 C.3       5 GLC5        0.0000 
     57 CA         35.8460    6.0590   26.1190 C.3      15 GLL5        0.0000 
     58 CA         35.8300    8.3410   29.8250 C.3      10 GLP5        0.0000 
     59 CA         34.1073    4.7405   25.2130 C.3       5 GLC5        0.0000 
     60 CA         32.5690    3.6910   24.9960 C.3      10 GLP5        0.0000 
     61 CA         40.0207    5.5702   28.4300 C.3       5 GLC5        0.0000 
     62 CA         40.8700    6.0060   26.5230 C.3      15 GLL5        0.0000 
     63 CA         43.9857    8.2353   27.3090 C.3       5 GLC5        0.0000 
     64 CA         43.2350    6.1620   27.3570 C.3      15 GLL5        0.0000 
     65 CA         44.4250   10.0040   27.8150 C.3      10 GLP5        0.0000 
     66 CA         43.3747    7.6640   31.2848 C.3       5 GLC5        0.0000 
     67 CA         44.6660    6.3460   30.9900 C.3      15 GLL5        0.0000 
     68 CA         42.3623    6.6495   32.2408 C.3       5 GLC5        0.0000 
     69 CA         43.9050    6.3810   33.3690 C.3      15 GLL5        0.0000 
     70 CA         42.3727    6.1093   31.0710 C.3       5 GLC5        0.0000 
     71 CA         40.8847    5.5975   33.3465 C.3       5 GLC5        0.0000 
     72 CA         43.1620    5.2070   33.1460 C.3      15 GLL5        0.0000 
     73 CA         39.0760    6.3320   32.8620 C.3      10 GLP5        0.0000 
@<TRIPOS>BOND
@<TRIPOS>SUBSTRUCTURE
     1 SEC2        4 GROUP        1 X    SEC  0     ROOT SEC X 2
     2 ASC3       18 GROUP        1 X    ASC  0     **** ASC X 3
     3 LYC4       21 GROUP        1 X    LYC  0     **** LYC X 4
     4 ZIC7        1 GROUP        1 X    ZIC  0     **** ZIC X 5
     5 GLC5       11 GROUP        1 X    GLC  0     **** GLC X 6
     6 SEP2        6 GROUP        1 Y    SEP  0     ROOT SEP Y 9
     7 ASP3       20 GROUP        1 Y    ASP  0     **** ASP Y 10
     8 LYP4       23 GROUP        1 Y    LYP  0     **** LYP Y 11
     9 ZIP7        3 GROUP        1 Y    ZIP  0     **** ZIP Y 12
    10 GLP5       13 GROUP        1 Y    GLP  0     **** GLP Y 13
    11 SEL2        5 GROUP        1 Z    SEL  0     ROOT SEL Z 16
    12 ASL3       19 GROUP        1 Z    ASL  0     **** ASL Z 17
    13 LYL4       22 GROUP        1 Z    LYL  0     **** LYL Z 18
    14 ZIL7        2 GROUP        1 Z    ZIL  0     **** ZIL Z 19
    15 GLL5       12 GROUP        1 Z    GLL  0     **** GLL Z 20
@<TRIPOS>SET

