#    Name: 1r4l_XX5_1_ligand
#    Modification time : Tue Mar 25 00:21:14 2014

@<TRIPOS>MOLECULE
1r4l_XX5_1_ligand
   48    49     1     0     0
SMALL
NO_CHARGES


@<TRIPOS>ATOM
      1 O1         38.2750    6.5680   23.4960 O.co2     1 XX5804      0.0000 
      2 C2         38.3290    6.9780   24.6450 C.2       1 XX5804      0.0000 
      3 O3         38.2580    8.1710   24.8880 O.co2     1 XX5804      0.0000 
      4 C4         38.4970    5.9530   25.7980 C.3       1 XX5804      0.0000 
      5 C5         37.2120    5.5410   26.5440 C.3       1 XX5804      0.0000 
      6 C6         35.8460    6.0590   26.1190 C.3       1 XX5804      0.0000 
      7 C7         34.8290    5.5310   27.1100 C.3       1 XX5804      0.0000 
      8 C8         35.4450    5.5210   24.7410 C.3       1 XX5804      0.0000 
      9 N9         39.4770    6.3660   26.8120 N.4       1 XX5804      0.0000 
     10 C10        40.8700    6.0060   26.5230 C.3       1 XX5804      0.0000 
     11 C11        41.1040    4.5290   26.0730 C.2       1 XX5804      0.0000 
     12 O12        41.4430    4.3310   24.9100 O.co2     1 XX5804      0.0000 
     13 O13        40.9570    3.6150   26.8740 O.co2     1 XX5804      0.0000 
     14 C14        41.7770    6.3410   27.7390 C.3       1 XX5804      0.0000 
     15 C15        43.2350    6.1620   27.3570 C.2       1 XX5804      0.0000 
     16 C16        43.8580    6.7710   26.2490 C.2       1 XX5804      0.0000 
     17 N17        45.1210    6.3640   26.2460 N.2       1 XX5804      0.0000 
     18 C18        45.2640    5.5430   27.3090 C.2       1 XX5804      0.0000 
     19 N19        44.1580    5.3670   28.0440 N.pl3     1 XX5804      0.0000 
     20 C20        43.9510    4.5190   29.3010 C.3       1 XX5804      0.0000 
     21 C21        43.9250    5.1530   30.7230 C.ar      1 XX5804      0.0000 
     22 C22        44.6660    6.3460   30.9900 C.ar      1 XX5804      0.0000 
     23 C23        44.6530    6.9500   32.3070 C.ar      1 XX5804      0.0000 
     24 CL24       45.5690    8.4330   32.6490 Cl        1 XX5804      0.0000 
     25 C25        43.9050    6.3810   33.3690 C.ar      1 XX5804      0.0000 
     26 C26        43.1710    4.5910   31.8240 C.ar      1 XX5804      0.0000 
     27 C27        43.1620    5.2070   33.1460 C.ar      1 XX5804      0.0000 
     28 CL28       42.2250    4.5190   34.5160 Cl        1 XX5804      0.0000 
     29 H          38.8916    5.0050   25.3347 H         1 XX5804      0.0000 
     30 H          37.3608    5.7913   27.6426 H         1 XX5804      0.0000 
     31 H          37.1736    4.4052   26.5547 H         1 XX5804      0.0000 
     32 H          35.8281    7.1094   26.1188 H         1 XX5804      0.0000 
     33 H          41.2478    6.6478   25.6928 H         1 XX5804      0.0000 
     34 H          41.5227    5.6742   28.5532 H         1 XX5804      0.0000 
     35 H          41.5943    7.3667   28.0335 H         1 XX5804      0.0000 
     36 H          43.4145    7.3554   25.6468 H         1 XX5804      0.0000 
     37 H          46.1437    5.0967   27.5290 H         1 XX5804      0.0000 
     38 H          44.7395    3.7018   29.3119 H         1 XX5804      0.0000 
     39 H          42.9875    3.9308   29.1778 H         1 XX5804      0.0000 
     40 H          45.2127    6.7835   30.2506 H         1 XX5804      0.0000 
     41 H          43.9087    6.8234   34.2863 H         1 XX5804      0.0000 
     42 H          42.6283    3.7386   31.6751 H         1 XX5804      0.0000 
     43 H          34.8157    4.5313   27.1314 H         1 XX5804      0.0000 
     44 H          35.0215    5.8416   28.0408 H         1 XX5804      0.0000 
     45 H          33.9019    5.8318   26.8865 H         1 XX5804      0.0000 
     46 H          36.0970    5.7913   24.0326 H         1 XX5804      0.0000 
     47 H          35.3991    4.5221   24.7313 H         1 XX5804      0.0000 
     48 H          34.5474    5.8585   24.4574 H         1 XX5804      0.0000 
@<TRIPOS>BOND
     1    2    1 ar   
     2    3    2 ar   
     3    4    2 1    
     4    5    4 1    
     5    9    4 1    
     6   29    4 1    
     7    6    5 1    
     8   30    5 1    
     9   31    5 1    
    10    7    6 1    
    11    8    6 1    
    12   32    6 1    
    13   43    7 1    
    14   44    7 1    
    15   45    7 1    
    16   46    8 1    
    17   47    8 1    
    18   48    8 1    
    19   10    9 1    
    20   11   10 1    
    21   14   10 1    
    22   33   10 1    
    23   12   11 ar   
    24   13   11 ar   
    25   15   14 1    
    26   34   14 1    
    27   35   14 1    
    28   16   15 2    
    29   19   15 1    
    30   17   16 1    
    31   36   16 1    
    32   18   17 2    
    33   19   18 1    
    34   37   18 1    
    35   20   19 1    
    36   21   20 1    
    37   38   20 1    
    38   39   20 1    
    39   22   21 ar   
    40   26   21 ar   
    41   23   22 ar   
    42   40   22 1    
    43   24   23 1    
    44   25   23 ar   
    45   27   25 ar   
    46   41   25 1    
    47   27   26 ar   
    48   42   26 1    
    49   28   27 1    
@<TRIPOS>SUBSTRUCTURE
     1 XX5804      1 GROUP   
@<TRIPOS>SET

