#    Name: 2zzn_SAM_2_INTS_M
#    Modification time : Tue Mar 25 11:25:02 2014

@<TRIPOS>MOLECULE
2zzn_SAM_2_INTS_M
   73     0    12     0     0
SMALL
NO_CHARGES


@<TRIPOS>ATOM
      1 O          42.0645  -32.9745  -36.3910 O.2       1 ALC1        0.0000 
      2 O          42.5790  -33.5550  -37.4320 O.2       9 ALL1        0.0000 
      3 O          41.5500  -32.3940  -35.3500 O.2       5 ALP1        0.0000 
      4 CA         43.3990  -33.7160  -39.3465 C.3       4 GLC5        0.0000 
      5 CA         41.8670  -33.0060  -38.6010 C.3      12 GLL5        0.0000 
      6 CA         44.9310  -34.4260  -40.0920 C.3       8 GLP5        0.0000 
      7 NZ         44.7980  -30.9780  -39.1570 N.4       3 LYC4        0.0000 
      8 NZ         43.5720  -31.3020  -38.5200 N.4      11 LYL4        0.0000 
      9 NZ         47.2680  -31.0470  -39.5390 N.4       7 LYP4        0.0000 
     10 N          44.7980  -30.9780  -39.1570 N.am      2 SEC2        0.0000 
     11 N          43.5720  -31.3020  -38.5200 N.am     10 SEL2        0.0000 
     12 N          46.0240  -30.6540  -39.7940 N.am      6 SEP2        0.0000 
     13 N          42.5920  -29.9030  -41.0665 N.am      2 SEC2        0.0000 
     14 N          42.3810  -31.2990  -40.2310 N.am     10 SEL2        0.0000 
     15 N          42.8030  -28.5070  -41.9020 N.am      6 SEP2        0.0000 
     16 CA         39.4600  -35.2175  -38.5945 C.3       4 GLC5        0.0000 
     17 CA         39.4990  -33.6090  -37.5740 C.3      12 GLL5        0.0000 
     18 CA         39.4210  -36.8260  -39.6150 C.3       8 GLP5        0.0000 
     19 CA         38.8615  -30.9085  -37.7105 C.3       4 GLC5        0.0000 
     20 CA         38.4830  -31.6840  -35.8000 C.3      12 GLL5        0.0000 
     21 CA         39.2400  -30.1330  -39.6210 C.3       8 GLP5        0.0000 
     22 CA         38.2555  -31.3710  -33.7305 C.3       4 GLC5        0.0000 
     23 CA         38.0280  -31.0580  -31.6610 C.3       8 GLP5        0.0000 
     24 CA         35.2610  -32.3280  -36.6430 C.3       4 GLC5        0.0000 
     25 CA         36.7180  -33.7830  -36.4010 C.3      12 GLL5        0.0000 
     26 CA         33.8040  -30.8730  -36.8850 C.3       8 GLP5        0.0000 
     27 CA         37.8620  -35.9050  -38.4150 C.3       4 GLC5        0.0000 
     28 CA         36.3030  -34.9840  -37.2150 C.3      12 GLL5        0.0000 
     29 CA         34.4990  -32.7545  -37.5495 C.3       4 GLC5        0.0000 
     30 CA         35.1940  -34.6360  -38.2140 C.3      12 GLL5        0.0000 
     31 O          33.8445  -37.5045  -38.9655 O.2       1 ALC1        0.0000 
     32 O          33.3930  -36.2020  -38.9020 O.2       9 ALL1        0.0000 
     33 O          34.2960  -38.8070  -39.0290 O.2       5 ALP1        0.0000 
     34 O          34.8550  -37.1000  -38.8225 O.2       1 ALC1        0.0000 
     35 O          36.3170  -37.9980  -38.7430 O.2       5 ALP1        0.0000 
     36 CA         35.2710  -36.6205  -34.6150 C.3       4 GLC5        0.0000 
     37 CA         34.5300  -36.4680  -36.7180 C.3      12 GLL5        0.0000 
     38 CA         36.0120  -36.7730  -32.5120 C.3       8 GLP5        0.0000 
     39 CA         35.2800  -38.3905  -37.5405 C.3       4 GLC5        0.0000 
     40 CA         36.0300  -40.3130  -38.3630 C.3       8 GLP5        0.0000 
     41 CA         31.3365  -39.1200  -34.9560 C.3       4 GLC5        0.0000 
     42 CA         32.0990  -38.5350  -32.9820 C.3      12 GLL5        0.0000 
     43 CA         30.5740  -39.7050  -36.9300 C.3       8 GLP5        0.0000 
     44 CA         31.4205  -40.5660  -32.7480 C.3       4 GLC5        0.0000 
     45 CA         30.7420  -42.5970  -32.5140 C.3       8 GLP5        0.0000 
     46 N          32.7320  -41.0080  -32.3295 N.am      2 SEC2        0.0000 
     47 N          32.5580  -39.7850  -33.2230 N.am     10 SEL2        0.0000 
     48 N          32.9060  -42.2310  -31.4360 N.am      6 SEP2        0.0000 
     49 CA         34.8010  -41.6410  -33.9700 C.3       4 GLC5        0.0000 
     50 CA         33.3900  -40.0470  -34.2360 C.3      12 GLL5        0.0000 
     51 CA         36.2120  -43.2350  -33.7040 C.3       8 GLP5        0.0000 
     52 CA         34.3385  -40.4825  -35.7045 C.3       4 GLC5        0.0000 
     53 CA         35.2870  -40.9180  -37.1730 C.3       8 GLP5        0.0000 
     54 CA         31.9820  -39.8760  -35.5830 C.3       4 GLC5        0.0000 
     55 CA         32.0660  -41.3220  -33.3750 C.3       4 GLC5        0.0000 
     56 CA         34.1750  -40.7065  -32.2765 C.3       4 GLC5        0.0000 
     57 CA         34.9600  -41.3660  -30.3170 C.3       8 GLP5        0.0000 
     58 N          33.3540  -39.7960  -36.1880 N.am      2 SEC2        0.0000 
     59 N          33.8070  -39.0860  -35.0540 N.am     10 SEL2        0.0000 
     60 N          32.9010  -40.5060  -37.3220 N.am      6 SEP2        0.0000 
     61 CA         34.3445  -39.3605  -36.0340 C.3       4 GLC5        0.0000 
     62 CA         33.4020  -37.8030  -34.8950 C.3      12 GLL5        0.0000 
     63 CA         40.2005  -31.4522  -39.0078 C.3       4 GLC5        0.0000 
     64 CA         40.4550  -32.5370  -38.1880 C.3      12 GLL5        0.0000 
     65 CA         38.9788  -31.6455  -38.5045 C.3       4 GLC5        0.0000 
     66 CA         37.3582  -35.3383  -35.2395 C.3       4 GLC5        0.0000 
     67 CA         38.2060  -36.2930  -33.6710 C.3       8 GLP5        0.0000 
     68 CA         32.9243  -34.3422  -38.7062 C.3       4 GLC5        0.0000 
     69 CA         31.2640  -33.6170  -39.4100 C.3       8 GLP5        0.0000 
     70 CA         32.6193  -37.1317  -37.2613 C.3       4 GLC5        0.0000 
     71 CA         33.9750  -35.4990  -37.7910 C.3      12 GLL5        0.0000 
     72 CA         30.9860  -38.2800  -37.2680 C.3       8 GLP5        0.0000 
     73 CA         31.9728  -37.9595  -35.8167 C.3       4 GLC5        0.0000 
@<TRIPOS>BOND
@<TRIPOS>SUBSTRUCTURE
     1 ALC1        1 GROUP        1 X    ALC  0     ROOT ALC X 1
     2 SEC2       10 GROUP        1 X    SEC  0     **** SEC X 2
     3 LYC4        7 GROUP        1 X    LYC  0     **** LYC X 4
     4 GLC5        4 GROUP        1 X    GLC  0     **** GLC X 6
     5 ALP1        3 GROUP        1 Y    ALP  0     ROOT ALP Y 8
     6 SEP2       12 GROUP        1 Y    SEP  0     **** SEP Y 9
     7 LYP4        9 GROUP        1 Y    LYP  0     **** LYP Y 11
     8 GLP5        6 GROUP        1 Y    GLP  0     **** GLP Y 13
     9 ALL1        2 GROUP        1 Z    ALL  0     ROOT ALL Z 15
    10 SEL2       11 GROUP        1 Z    SEL  0     **** SEL Z 16
    11 LYL4        8 GROUP        1 Z    LYL  0     **** LYL Z 18
    12 GLL5        5 GROUP        1 Z    GLL  0     **** GLL Z 20
@<TRIPOS>SET

