#    Name: 2zzn_SAM_2_ligand
#    Modification time : Tue Mar 25 11:25:02 2014

@<TRIPOS>MOLECULE
2zzn_SAM_2_ligand
   50    52     1     0     0
SMALL
NO_CHARGES


@<TRIPOS>ATOM
      1 N          42.5790  -33.5550  -37.4320 N.4       1 SAM402      0.0000 
      2 CA         41.8670  -33.0060  -38.6010 C.3       1 SAM402      0.0000 
      3 C          42.6590  -31.7920  -39.1570 C.2       1 SAM402      0.0000 
      4 O          43.5720  -31.3020  -38.5200 O.co2     1 SAM402      0.0000 
      5 OXT        42.3810  -31.2990  -40.2310 O.co2     1 SAM402      0.0000 
      6 CB         40.4550  -32.5370  -38.1880 C.3       1 SAM402      0.0000 
      7 CG         39.4990  -33.6090  -37.5740 C.3       1 SAM402      0.0000 
      8 SD         37.9360  -32.7070  -37.2020 S.3       1 SAM402      0.0000 
      9 CE         38.4830  -31.6840  -35.8000 C.3       1 SAM402      0.0000 
     10 C5'        36.7180  -33.7830  -36.4010 C.3       1 SAM402      0.0000 
     11 C4'        36.3030  -34.9840  -37.2150 C.3       1 SAM402      0.0000 
     12 O4'        35.7940  -35.9400  -36.2810 O.3       1 SAM402      0.0000 
     13 C3'        35.1940  -34.6360  -38.2140 C.3       1 SAM402      0.0000 
     14 O3'        35.6030  -34.8770  -39.5670 O.3       1 SAM402      0.0000 
     15 C2'        33.9750  -35.4990  -37.7910 C.3       1 SAM402      0.0000 
     16 O2'        33.3930  -36.2020  -38.9020 O.3       1 SAM402      0.0000 
     17 C1'        34.5300  -36.4680  -36.7180 C.3       1 SAM402      0.0000 
     18 N9         33.6500  -36.6220  -35.5510 N.pl3     1 SAM402      0.0000 
     19 C8         32.9360  -35.6370  -34.9100 C.2       1 SAM402      0.0000 
     20 N7         32.2740  -36.1410  -33.9090 N.2       1 SAM402      0.0000 
     21 C5         32.5170  -37.4750  -33.8360 C.ar      1 SAM402      0.0000 
     22 C6         32.0990  -38.5350  -32.9820 C.ar      1 SAM402      0.0000 
     23 N6         31.2390  -38.2900  -31.9220 N.pl3     1 SAM402      0.0000 
     24 N1         32.5580  -39.7850  -33.2230 N.ar      1 SAM402      0.0000 
     25 C2         33.3900  -40.0470  -34.2360 C.ar      1 SAM402      0.0000 
     26 N3         33.8070  -39.0860  -35.0540 N.ar      1 SAM402      0.0000 
     27 C4         33.4020  -37.8030  -34.8950 C.ar      1 SAM402      0.0000 
     28 H          41.7772  -33.7319  -39.3743 H         1 SAM402      0.0000 
     29 H          39.9520  -32.0965  -39.0759 H         1 SAM402      0.0000 
     30 H          40.5553  -31.7067  -37.4560 H         1 SAM402      0.0000 
     31 H          39.7934  -33.9356  -36.6372 H         1 SAM402      0.0000 
     32 H          39.1856  -34.3210  -38.2565 H         1 SAM402      0.0000 
     33 H          35.9065  -33.0920  -36.1977 H         1 SAM402      0.0000 
     34 H          37.2184  -34.0369  -35.4723 H         1 SAM402      0.0000 
     35 H          37.1444  -35.3665  -37.7390 H         1 SAM402      0.0000 
     36 H          34.9218  -33.6035  -38.0414 H         1 SAM402      0.0000 
     37 H          33.2795  -34.8441  -37.2977 H         1 SAM402      0.0000 
     38 H          34.6860  -37.4266  -37.1995 H         1 SAM402      0.0000 
     39 H          32.9509  -34.6986  -35.1985 H         1 SAM402      0.0000 
     40 H          30.9661  -39.0872  -31.3835 H         1 SAM402      0.0000 
     41 H          30.9661  -37.3373  -31.7879 H         1 SAM402      0.0000 
     42 H          33.7208  -41.0389  -34.3866 H         1 SAM402      0.0000 
     43 H          43.4170  -33.0462  -37.2349 H         1 SAM402      0.0000 
     44 H          42.0161  -33.5238  -36.6060 H         1 SAM402      0.0000 
     45 H          42.8418  -34.5096  -37.5719 H         1 SAM402      0.0000 
     46 H          38.9638  -32.2255  -35.1104 H         1 SAM402      0.0000 
     47 H          39.1071  -30.9588  -36.0907 H         1 SAM402      0.0000 
     48 H          37.7130  -31.2413  -35.3405 H         1 SAM402      0.0000 
     49 H          35.0206  -35.6257  -39.8838 H         1 SAM402      0.0000 
     50 H          33.7436  -37.1357  -38.8296 H         1 SAM402      0.0000 
@<TRIPOS>BOND
     1    2    1 1    
     2   43    1 1    
     3   44    1 1    
     4   45    1 1    
     5    3    2 1    
     6    6    2 1    
     7   28    2 1    
     8    4    3 ar   
     9    5    3 ar   
    10    7    6 1    
    11   29    6 1    
    12   30    6 1    
    13    8    7 1    
    14   31    7 1    
    15   32    7 1    
    16    9    8 1    
    17   10    8 1    
    18   46    9 1    
    19   47    9 1    
    20   48    9 1    
    21   11   10 1    
    22   33   10 1    
    23   34   10 1    
    24   12   11 1    
    25   13   11 1    
    26   35   11 1    
    27   17   12 1    
    28   14   13 1    
    29   15   13 1    
    30   36   13 1    
    31   49   14 1    
    32   16   15 1    
    33   17   15 1    
    34   37   15 1    
    35   50   16 1    
    36   18   17 1    
    37   38   17 1    
    38   19   18 1    
    39   27   18 1    
    40   20   19 2    
    41   39   19 1    
    42   21   20 1    
    43   22   21 ar   
    44   27   21 ar   
    45   23   22 1    
    46   24   22 ar   
    47   40   23 1    
    48   41   23 1    
    49   25   24 ar   
    50   26   25 ar   
    51   42   25 1    
    52   27   26 ar   
@<TRIPOS>SUBSTRUCTURE
     1 SAM402      1 GROUP   
@<TRIPOS>SET

