#    Name: 1rw8_580_1_INTS_M
#    Modification time : Tue Mar 25 01:21:54 2014

@<TRIPOS>MOLECULE
1rw8_580_1_INTS_M
   68     0     3     0     0
SMALL
NO_CHARGES


@<TRIPOS>ATOM
      1 CA          4.8960   16.1565   12.8410 C.3       1 GLC5        0.0000 
      2 CA          5.6040   15.4780   10.8420 C.3       3 GLL5        0.0000 
      3 CA          4.1880   16.8350   14.8400 C.3       2 GLP5        0.0000 
      4 CA          4.1425   14.1900   12.6625 C.3       1 GLC5        0.0000 
      5 CA          5.9700   14.2530   11.3730 C.3       3 GLL5        0.0000 
      6 CA          2.3150   14.1270   13.9520 C.3       2 GLP5        0.0000 
      7 CA          3.9095   10.9205   11.5605 C.3       1 GLC5        0.0000 
      8 CA          5.4860   11.9500   11.2320 C.3       3 GLL5        0.0000 
      9 CA          2.3330    9.8910   11.8890 C.3       2 GLP5        0.0000 
     10 CA          5.7455   11.4090   14.1090 C.3       1 GLC5        0.0000 
     11 CA          6.6030   12.1950   12.2890 C.3       3 GLL5        0.0000 
     12 CA          4.8880   10.6230   15.9290 C.3       2 GLP5        0.0000 
     13 CA          6.8025   15.3530   13.7145 C.3       1 GLC5        0.0000 
     14 CA          6.9280   13.7080   12.3840 C.3       3 GLL5        0.0000 
     15 CA          6.6770   16.9980   15.0450 C.3       2 GLP5        0.0000 
     16 CA          3.8940   14.5280    7.4880 C.3       1 GLC5        0.0000 
     17 CA          3.7310   15.9850    8.9620 C.3       3 GLL5        0.0000 
     18 CA          4.0570   13.0710    6.0140 C.3       2 GLP5        0.0000 
     19 CA          2.5890   16.7255   10.3415 C.3       1 GLC5        0.0000 
     20 CA          1.4470   17.4660   11.7210 C.3       2 GLP5        0.0000 
     21 CA          3.3780   17.6740   11.6460 C.3       1 GLC5        0.0000 
     22 CA          5.3090   17.8820   11.5710 C.3       3 GLL5        0.0000 
     23 CA          4.7485   17.3585   13.2055 C.3       1 GLC5        0.0000 
     24 CA          6.2675   17.1670    7.9790 C.3       1 GLC5        0.0000 
     25 CA          4.2780   17.0550    8.2200 C.3       3 GLL5        0.0000 
     26 CA          8.2570   17.2790    7.7380 C.3       2 GLP5        0.0000 
     27 CA          4.4465   18.8650    5.9245 C.3       1 GLC5        0.0000 
     28 CA          3.4200   17.8330    7.4080 C.3       3 GLL5        0.0000 
     29 CA          5.4730   19.8970    4.4410 C.3       2 GLP5        0.0000 
     30 CA          1.4060   16.8655    5.4705 C.3       1 GLC5        0.0000 
     31 CA          2.0350   17.5410    7.3340 C.3       3 GLL5        0.0000 
     32 CA          0.7770   16.1900    3.6070 C.3       2 GLP5        0.0000 
     33 CA          1.5345   19.1910    6.0245 C.3       1 GLC5        0.0000 
     34 CA          1.0340   20.8410    4.7150 C.3       2 GLP5        0.0000 
     35 CA          8.2305   22.0360   11.6450 C.3       1 GLC5        0.0000 
     36 CA          7.6650   20.5720   12.2050 C.3       3 GLL5        0.0000 
     37 CA          8.7960   23.5000   11.0850 C.3       2 GLP5        0.0000 
     38 CA          7.4105   21.6775   13.7390 C.3       1 GLC5        0.0000 
     39 CA          7.1560   22.7830   15.2730 C.3       2 GLP5        0.0000 
     40 CA         -1.1425   15.1780    8.7570 C.3       1 GLC5        0.0000 
     41 CA          0.1140   16.0570    8.1040 C.3       3 GLL5        0.0000 
     42 CA         -2.3990   14.2990    9.4100 C.3       2 GLP5        0.0000 
     43 CA         -1.7105   17.1050    7.5280 C.3       1 GLC5        0.0000 
     44 CA         -3.5350   18.1530    6.9520 C.3       2 GLP5        0.0000 
     45 CA          6.8710   14.8447    9.2852 C.3       1 GLC5        0.0000 
     46 CA          7.9550   14.8240    7.4630 C.3       2 GLP5        0.0000 
     47 CA          6.7082   10.9447   10.2578 C.3       1 GLC5        0.0000 
     48 CA          7.3720    9.8170    8.7550 C.3       2 GLP5        0.0000 
     49 CA          5.6997   19.7065   10.3052 C.3       1 GLC5        0.0000 
     50 CA          5.8390   20.8910    8.8690 C.3       2 GLP5        0.0000 
     51 CA          7.8685   17.4614    9.5534 C.3       1 GLC5        0.0000 
     52 CA          8.0920   18.3420   11.5360 C.3       3 GLL5        0.0000 
     53 CA          4.8440   19.1675    8.3415 C.3       1 GLC5        0.0000 
     54 CA          1.8802   18.9600    8.2985 C.3       1 GLC5        0.0000 
     55 CA          1.0330   20.2330    9.2260 C.3       2 GLP5        0.0000 
     56 CA          3.6625   16.3727    6.1750 C.3       1 GLC5        0.0000 
     57 CA          4.3830   15.2530    4.7760 C.3       2 GLP5        0.0000 
     58 CA         -0.2015   16.0105    6.5568 C.3       1 GLC5        0.0000 
     59 CA          1.5520   16.4590    8.0990 C.3       3 GLL5        0.0000 
     60 CA         -1.2360   15.7630    5.0120 C.3       2 GLP5        0.0000 
     61 CA          0.9330   18.2455    8.6638 C.3       1 GLC5        0.0000 
     62 CA          9.0488   19.9244   10.7525 C.3       1 GLC5        0.0000 
     63 CA          7.1960   19.3770   11.8900 C.3       3 GLL5        0.0000 
     64 CA         10.4430   20.1330    9.5460 C.3       2 GLP5        0.0000 
     65 CA          6.7468   20.3034   10.4140 C.3       1 GLC5        0.0000 
     66 CA          1.2004   16.9973    9.8156 C.3       1 GLC5        0.0000 
     67 CA          6.8345   17.7273   13.3399 C.3       1 GLC5        0.0000 
     68 CA          5.8120   19.1620   11.9120 C.3       3 GLL5        0.0000 
@<TRIPOS>BOND
@<TRIPOS>SUBSTRUCTURE
     1 GLC5        1 GROUP        1 X    GLC  0     ROOT GLC X 6
     2 GLP5        3 GROUP        1 Y    GLP  0     ROOT GLP Y 13
     3 GLL5        2 GROUP        1 Z    GLL  0     ROOT GLL Z 20
@<TRIPOS>SET

