#    Name: 1rw8_580_1_ligand
#    Modification time : Tue Mar 25 01:21:54 2014

@<TRIPOS>MOLECULE
1rw8_580_1_ligand
   38    41     1     0     0
SMALL
NO_CHARGES


@<TRIPOS>ATOM
      1 C1          5.6040   15.4780   10.8420 C.2       1 580501      0.0000 
      2 C2          4.5310   15.1030    9.8480 C.2       1 580501      0.0000 
      3 N3          4.3320   13.7430    9.8440 N.2       1 580501      0.0000 
      4 N4          5.2360   13.3190   10.7860 N.pl3     1 580501      0.0000 
      5 C5          5.9700   14.2530   11.3730 C.2       1 580501      0.0000 
      6 C6          5.4860   11.9500   11.2320 C.3       1 580501      0.0000 
      7 C7          6.6030   12.1950   12.2890 C.3       1 580501      0.0000 
      8 C8          6.9280   13.7080   12.3840 C.3       1 580501      0.0000 
      9 C15         3.7310   15.9850    8.9620 C.ar      1 580501      0.0000 
     10 C16         6.1690   16.8260   11.2090 C.ar      1 580501      0.0000 
     11 C17         5.3090   17.8820   11.5710 C.ar      1 580501      0.0000 
     12 C18         5.8120   19.1620   11.9120 C.ar      1 580501      0.0000 
     13 C19         7.1960   19.3770   11.8900 C.ar      1 580501      0.0000 
     14 C20         8.0920   18.3420   11.5360 C.ar      1 580501      0.0000 
     15 C21         7.5670   17.0650   11.1940 C.ar      1 580501      0.0000 
     16 C26         4.2780   17.0550    8.2200 C.ar      1 580501      0.0000 
     17 C27         3.4200   17.8330    7.4080 C.ar      1 580501      0.0000 
     18 C28         2.0350   17.5410    7.3340 C.ar      1 580501      0.0000 
     19 C29         1.5520   16.4590    8.0990 C.ar      1 580501      0.0000 
     20 N30         2.3740   15.7310    8.8660 N.ar      1 580501      0.0000 
     21 F34         7.6650   20.5720   12.2050 F         1 580501      0.0000 
     22 C35         0.1140   16.0570    8.1040 C.3       1 580501      0.0000 
     23 H           5.8855   11.3493   10.4649 H         1 580501      0.0000 
     24 H           4.6530   11.5346   11.7244 H         1 580501      0.0000 
     25 H           7.4920   11.6578   11.9916 H         1 580501      0.0000 
     26 H           6.2594   11.8435   13.2511 H         1 580501      0.0000 
     27 H           6.6930   14.0459   13.3487 H         1 580501      0.0000 
     28 H           7.9216   13.8613   12.0851 H         1 580501      0.0000 
     29 H           4.2902   17.7230   11.5892 H         1 580501      0.0000 
     30 H           5.1723   19.9081   12.1677 H         1 580501      0.0000 
     31 H           9.0903   18.5031   11.5250 H         1 580501      0.0000 
     32 H           8.2081   16.3097   10.9339 H         1 580501      0.0000 
     33 H           5.2682   17.2627    8.2678 H         1 580501      0.0000 
     34 H           3.8019   18.6150    6.8679 H         1 580501      0.0000 
     35 H           1.4219   18.0872    6.7563 H         1 580501      0.0000 
     36 H          -0.2038   15.8032    7.1905 H         1 580501      0.0000 
     37 H          -0.0499   15.2711    8.7002 H         1 580501      0.0000 
     38 H          -0.4773   16.7968    8.4250 H         1 580501      0.0000 
@<TRIPOS>BOND
     1    2    1 1    
     2    5    1 2    
     3   10    1 1    
     4    3    2 2    
     5    9    2 1    
     6    4    3 1    
     7    5    4 1    
     8    6    4 1    
     9    8    5 1    
    10    7    6 1    
    11   23    6 1    
    12   24    6 1    
    13    8    7 1    
    14   25    7 1    
    15   26    7 1    
    16   27    8 1    
    17   28    8 1    
    18   16    9 ar   
    19   20    9 ar   
    20   11   10 ar   
    21   15   10 ar   
    22   12   11 ar   
    23   29   11 1    
    24   13   12 ar   
    25   30   12 1    
    26   14   13 ar   
    27   21   13 1    
    28   15   14 ar   
    29   31   14 1    
    30   32   15 1    
    31   17   16 ar   
    32   33   16 1    
    33   18   17 ar   
    34   34   17 1    
    35   19   18 ar   
    36   35   18 1    
    37   20   19 ar   
    38   22   19 1    
    39   36   22 1    
    40   37   22 1    
    41   38   22 1    
@<TRIPOS>SUBSTRUCTURE
     1 580501      1 GROUP   
@<TRIPOS>SET

