#    Name: 2P1C_2_CAVITY_N1_6.mol2
#    Modification time : Tue Mar 11 04:19:29 2014

@<TRIPOS>MOLECULE
2P1C_2_CAVITY_N1_6.mol2
  110     0     7     0     0
SMALL
NO_CHARGES


@<TRIPOS>ATOM
      1 CA         70.3682   36.9876  -25.4893 C.3       6 GLY6        0.0000 
      2 O          68.9059   36.6775  -25.6142 O.2       2 ALA2        0.0000 
      3 CA         68.6561   38.0635  -26.1305 C.3       6 GLY6        0.0000 
      4 O          67.4436   36.3675  -25.7391 O.2       2 ALA2        0.0000 
      5 CA         67.1938   37.7535  -26.2554 C.3       6 GLY6        0.0000 
      6 N          70.3959   36.0842  -23.5702 N.2       2 ALA2        0.0000 
      7 CA         70.1461   37.4702  -24.0865 C.3       6 GLY6        0.0000 
      8 N          68.9336   35.7741  -23.6951 N.2       2 ALA2        0.0000 
      9 CZ         68.6838   37.1601  -24.2114 C.ar      5 PHE5        0.0000 
     10 CZ         68.4340   38.5461  -24.7277 C.ar      5 PHE5        0.0000 
     11 CA         67.2215   36.8500  -24.3363 C.3       6 GLY6        0.0000 
     12 CA         66.9717   38.2360  -24.8526 C.3       6 GLY6        0.0000 
     13 CA         70.4236   35.1807  -21.6511 C.3       6 GLY6        0.0000 
     14 N          70.1738   36.5667  -22.1674 N.2       2 ALA2        0.0000 
     15 CA         69.9240   37.9527  -22.6837 C.3       6 GLY6        0.0000 
     16 CA         68.9614   34.8706  -21.7760 C.3       6 GLY6        0.0000 
     17 CA         68.7115   36.2566  -22.2923 C.3       6 GLY6        0.0000 
     18 CZ         68.4617   37.6426  -22.8086 C.ar      5 PHE5        0.0000 
     19 CA         67.2492   35.9465  -22.4172 C.3       6 GLY6        0.0000 
     20 CA         66.9994   37.3325  -22.9335 C.3       6 GLY6        0.0000 
     21 CZ         66.7496   38.7185  -23.4498 C.ar      5 PHE5        0.0000 
     22 CA         69.9517   37.0492  -20.7646 C.3       6 GLY6        0.0000 
     23 CZ         69.7019   38.4352  -21.2809 C.ar      5 PHE5        0.0000 
     24 CA         68.4894   36.7391  -20.8895 C.3       6 GLY6        0.0000 
     25 CZ         68.2396   38.1251  -21.4058 C.ar      5 PHE5        0.0000 
     26 N          66.7773   37.8150  -21.5307 N.2       2 ALA2        0.0000 
     27 CZ         66.5275   39.2010  -22.0470 C.ar      5 PHE5        0.0000 
     28 CA         68.0175   38.6076  -20.0030 C.3       6 GLY6        0.0000 
     29 CA         66.5552   38.2976  -20.1279 C.3       6 GLY6        0.0000 
     30 CZ         66.3054   39.6836  -20.6442 C.ar      5 PHE5        0.0000 
     31 N          80.2247   37.3390  -33.6732 N.2       2 ALA2        0.0000 
     32 OD1        78.5126   38.4150  -34.3144 O.3       3 ASP3        0.0000 
     33 OD1        77.0503   38.1049  -34.4392 O.3       3 ASP3        0.0000 
     34 OD1        76.8005   39.4909  -34.9556 O.3       3 ASP3        0.0000 
     35 NZ         75.3382   39.1808  -35.0804 N.2       4 LYS4        0.0000 
     36 NZ         73.8759   38.8707  -35.2053 N.2       4 LYS4        0.0000 
     37 O          80.0026   37.8216  -32.2704 O.2       2 ALA2        0.0000 
     38 CA         79.7528   39.2076  -32.7867 C.3       6 GLY6        0.0000 
     39 CA         78.5403   37.5115  -32.3953 C.3       6 GLY6        0.0000 
     40 O          78.2905   38.8975  -32.9116 O.2       2 ALA2        0.0000 
     41 DU         78.0406   40.2835  -33.4279 H         7 CUB7        0.0000 
     42 OD1        76.8282   38.5874  -33.0365 O.3       3 ASP3        0.0000 
     43 DU         76.5784   39.9734  -33.5528 H         7 CUB7        0.0000 
     44 OD1        75.3659   38.2773  -33.1613 O.3       3 ASP3        0.0000 
     45 DU         75.1161   39.6633  -33.6776 H         7 CUB7        0.0000 
     46 CZ         74.8663   41.0493  -34.1939 C.ar      5 PHE5        0.0000 
     47 OD1        74.1535   36.5812  -32.7699 O.3       3 ASP3        0.0000 
     48 NZ         73.9036   37.9672  -33.2862 N.2       4 LYS4        0.0000 
     49 NZ         73.6538   39.3532  -33.8025 N.2       4 LYS4        0.0000 
     50 CZ         73.4040   40.7392  -34.3188 C.ar      5 PHE5        0.0000 
     51 NZ         72.4414   37.6571  -33.4111 N.2       4 LYS4        0.0000 
     52 CZ         72.1915   39.0431  -33.9274 C.ar      5 PHE5        0.0000 
     53 N          70.9791   37.3470  -33.5359 N.2       2 ALA2        0.0000 
     54 CZ         70.7293   38.7330  -34.0522 C.ar      5 PHE5        0.0000 
     55 CA         79.5306   39.6901  -31.3839 C.3       6 GLY6        0.0000 
     56 O          78.0684   39.3800  -31.5088 O.2       2 ALA2        0.0000 
     57 O          77.8185   40.7660  -32.0251 O.2       2 ALA2        0.0000 
     58 O          76.3563   40.4559  -32.1500 O.2       2 ALA2        0.0000 
     59 O          76.1064   41.8419  -32.6663 O.2       2 ALA2        0.0000 
     60 O          74.8940   40.1458  -32.2748 O.2       2 ALA2        0.0000 
     61 O          74.6441   41.5318  -32.7911 O.2       2 ALA2        0.0000 
     62 O          74.1812   35.6777  -30.8508 O.2       2 ALA2        0.0000 
     63 O          73.9314   37.0637  -31.3671 O.2       2 ALA2        0.0000 
     64 DU         73.6815   38.4497  -31.8834 H         7 CUB7        0.0000 
     65 O          73.4317   39.8357  -32.3997 O.2       2 ALA2        0.0000 
     66 O          73.1819   41.2217  -32.9160 O.2       2 ALA2        0.0000 
     67 NZ         72.9687   33.9816  -30.4593 N.2       4 LYS4        0.0000 
     68 NZ         72.7189   35.3676  -30.9756 N.2       4 LYS4        0.0000 
     69 NZ         72.4691   36.7536  -31.4919 N.2       4 LYS4        0.0000 
     70 DU         72.2193   38.1396  -32.0083 H         7 CUB7        0.0000 
     71 O          71.9694   39.5256  -32.5246 O.2       2 ALA2        0.0000 
     72 NZ         71.2566   35.0575  -31.1005 N.2       4 LYS4        0.0000 
     73 N          71.0068   36.4435  -31.6168 N.2       2 ALA2        0.0000 
     74 N          70.7570   37.8295  -32.1331 N.2       2 ALA2        0.0000 
     75 CZ         70.5072   39.2155  -32.6494 C.ar      5 PHE5        0.0000 
     76 OD1        69.7944   34.7474  -31.2254 O.3       3 ASP3        0.0000 
     77 N          69.5445   36.1334  -31.7417 N.2       2 ALA2        0.0000 
     78 O          77.5964   41.2485  -30.6223 O.2       2 ALA2        0.0000 
     79 CA         76.1341   40.9384  -30.7472 C.3       6 GLY6        0.0000 
     80 CA         74.9217   39.2423  -30.3557 C.3       6 GLY6        0.0000 
     81 NZ         73.9591   36.1602  -29.4480 N.2       4 LYS4        0.0000 
     82 CA         73.7093   37.5462  -29.9643 C.3       6 GLY6        0.0000 
     83 CA         73.4594   38.9323  -30.4806 C.3       6 GLY6        0.0000 
     84 NZ         72.4968   35.8501  -29.5728 N.2       4 LYS4        0.0000 
     85 CA         72.2470   37.2362  -30.0892 C.3       6 GLY6        0.0000 
     86 OG         71.9971   38.6222  -30.6055 O.2       1 SER1        0.0000 
     87 OG         71.7473   40.0082  -31.1218 O.2       1 SER1        0.0000 
     88 NZ         71.2844   34.1541  -29.1814 N.2       4 LYS4        0.0000 
     89 NZ         71.0345   35.5401  -29.6977 N.2       4 LYS4        0.0000 
     90 DU         70.7847   36.9261  -30.2140 H         7 CUB7        0.0000 
     91 OG         70.5349   38.3121  -30.7303 O.2       1 SER1        0.0000 
     92 OD1        69.5723   35.2300  -29.8226 O.3       3 ASP3        0.0000 
     93 N          69.3224   36.6160  -30.3389 N.2       2 ALA2        0.0000 
     94 OG         69.0726   38.0020  -30.8552 O.2       1 SER1        0.0000 
     95 CA         67.8601   36.3059  -30.4638 C.3       6 GLY6        0.0000 
     96 CA         72.0249   37.7187  -28.6864 C.3       6 GLY6        0.0000 
     97 OG         71.7750   39.1047  -29.2027 O.2       1 SER1        0.0000 
     98 NZ         70.8124   36.0226  -28.2949 N.2       4 LYS4        0.0000 
     99 OG         70.5626   37.4086  -28.8112 O.2       1 SER1        0.0000 
    100 O          69.3501   35.7125  -28.4198 O.2       2 ALA2        0.0000 
    101 N          69.1003   37.0985  -28.9361 N.2       2 ALA2        0.0000 
    102 N          68.8505   38.4845  -29.4524 N.2       2 ALA2        0.0000 
    103 CA         67.8879   35.4024  -28.5446 C.3       6 GLY6        0.0000 
    104 CA         70.5903   36.5051  -26.8921 C.3       6 GLY6        0.0000 
    105 CA         70.3405   37.8911  -27.4084 C.3       6 GLY6        0.0000 
    106 O          69.1280   36.1950  -27.0170 O.2       2 ALA2        0.0000 
    107 N          68.8782   37.5810  -27.5333 N.2       2 ALA2        0.0000 
    108 CZ         68.6284   38.9670  -28.0496 C.ar      5 PHE5        0.0000 
    109 O          67.6658   35.8849  -27.1419 O.2       2 ALA2        0.0000 
    110 N          67.4159   37.2709  -27.6582 N.2       2 ALA2        0.0000 
@<TRIPOS>BOND
@<TRIPOS>SUBSTRUCTURE
     1 SER1       86 GROUP   
     2 ALA2        2 GROUP   
     3 ASP3       32 GROUP   
     4 LYS4       35 GROUP   
     5 PHE5        9 GROUP   
     6 GLY6        1 GROUP   
     7 CUB7       41 GROUP   
@<TRIPOS>SET

