#    Name: 2p1c_GG3_2_INTS_M
#    Modification time : Mon Mar 24 18:09:21 2014

@<TRIPOS>MOLECULE
2p1c_GG3_2_INTS_M
   84     0    15     0     0
SMALL
NO_CHARGES


@<TRIPOS>ATOM
      1 CA         73.0325   38.2000  -29.3320 C.3       5 GLC5        0.0000 
      2 CA         71.5080   37.5130  -30.8360 C.3      15 GLL5        0.0000 
      3 CA         74.5570   38.8870  -27.8280 C.3      10 GLP5        0.0000 
      4 NZ         75.4370   34.9450  -33.1225 N.4       3 LYC4        0.0000 
      5 NZ         74.4350   34.1520  -32.5280 N.4      13 LYL4        0.0000 
      6 NZ         76.4390   35.7380  -33.7170 N.4       8 LYP4        0.0000 
      7 Zn         74.0575   32.9720  -32.7270 Zn        4 ZIC7        0.0000 
      8 Zn         74.4350   34.1520  -32.5280 Zn       14 ZIL7        0.0000 
      9 Zn         73.6800   31.7920  -32.9260 Zn        9 ZIP7        0.0000 
     10 N          73.3185   34.2755  -33.4970 N.am      2 SEC2        0.0000 
     11 N          74.4350   34.1520  -32.5280 N.am     12 SEL2        0.0000 
     12 N          72.2020   34.3990  -34.4660 N.am      7 SEP2        0.0000 
     13 N          75.4370   34.9450  -33.1225 N.am      2 SEC2        0.0000 
     14 N          76.4390   35.7380  -33.7170 N.am      7 SEP2        0.0000 
     15 Zn         74.8575   33.1275  -29.0520 Zn        4 ZIC7        0.0000 
     16 Zn         74.8250   33.9590  -30.0240 Zn       14 ZIL7        0.0000 
     17 Zn         74.8900   32.2960  -28.0800 Zn        9 ZIP7        0.0000 
     18 N          75.7650   34.9050  -29.1100 N.am      2 SEC2        0.0000 
     19 N          74.8250   33.9590  -30.0240 N.am     12 SEL2        0.0000 
     20 N          76.7050   35.8510  -28.1960 N.am      7 SEP2        0.0000 
     21 NZ         75.8855   36.0065  -29.6905 N.4       3 LYC4        0.0000 
     22 NZ         75.0660   36.1620  -31.1850 N.4      13 LYL4        0.0000 
     23 NZ         77.4950   36.7750  -28.7230 N.4       8 LYP4        0.0000 
     24 NZ         75.7525   35.9500  -32.4510 N.4       3 LYC4        0.0000 
     25 N          76.0695   36.8250  -30.4725 N.am      2 SEC2        0.0000 
     26 N          75.0660   36.1620  -31.1850 N.am     12 SEL2        0.0000 
     27 N          77.0730   37.4880  -29.7600 N.am      7 SEP2        0.0000 
     28 N          75.8855   36.0065  -29.6905 N.am      2 SEC2        0.0000 
     29 N          75.7525   35.9500  -32.4510 N.am      2 SEC2        0.0000 
     30 NZ         69.8235   32.9275  -31.6065 N.4       3 LYC4        0.0000 
     31 NZ         71.7250   33.1140  -31.9490 N.4      13 LYL4        0.0000 
     32 NZ         67.9220   32.7410  -31.2640 N.4       8 LYP4        0.0000 
     33 Zn         72.7025   32.4530  -32.4375 Zn        4 ZIC7        0.0000 
     34 Zn         71.7250   33.1140  -31.9490 Zn       14 ZIL7        0.0000 
     35 Zn         71.1735   32.4045  -28.7455 Zn        4 ZIC7        0.0000 
     36 Zn         72.2320   32.8170  -29.5400 Zn       14 ZIL7        0.0000 
     37 Zn         70.1150   31.9920  -27.9510 Zn        9 ZIP7        0.0000 
     38 NZ         69.0820   33.5390  -30.7435 N.4       3 LYC4        0.0000 
     39 NZ         70.2420   34.3370  -30.2230 N.4      13 LYL4        0.0000 
     40 N          69.0820   33.5390  -30.7435 N.am      2 SEC2        0.0000 
     41 N          70.2420   34.3370  -30.2230 N.am     12 SEL2        0.0000 
     42 N          67.9220   32.7410  -31.2640 N.am      7 SEP2        0.0000 
     43 O          73.0335   35.0500  -28.3400 O.2       1 ALC1        0.0000 
     44 O          72.8050   35.8720  -29.3870 O.2      11 ALL1        0.0000 
     45 O          73.2620   34.2280  -27.2930 O.2       6 ALP1        0.0000 
     46 CA         67.6390   38.7395  -31.9520 C.3       5 GLC5        0.0000 
     47 CA         69.3620   38.6120  -30.7640 C.3      15 GLL5        0.0000 
     48 CA         65.9160   38.8670  -33.1400 C.3      10 GLP5        0.0000 
     49 CA         68.5150   39.9890  -29.8640 C.3       5 GLC5        0.0000 
     50 CA         67.6680   41.3660  -28.9640 C.3      10 GLP5        0.0000 
     51 CA         67.5755   35.3640  -29.2010 C.3       5 GLC5        0.0000 
     52 CA         68.9370   36.5000  -28.2300 C.3      15 GLL5        0.0000 
     53 CA         66.2140   34.2280  -30.1720 C.3      10 GLP5        0.0000 
     54 CA         70.1745   38.2625  -25.6555 C.3       5 GLC5        0.0000 
     55 CA         69.2400   36.5340  -26.7410 C.3      15 GLL5        0.0000 
     56 CA         71.1090   39.9910  -24.5700 C.3      10 GLP5        0.0000 
     57 CA         71.1075   35.7745  -25.8990 C.3       5 GLC5        0.0000 
     58 CA         72.9750   35.0150  -25.0570 C.3      10 GLP5        0.0000 
     59 CA         70.7790   38.2495  -22.8815 C.3       5 GLC5        0.0000 
     60 CA         69.6000   36.8380  -22.4320 C.3      15 GLL5        0.0000 
     61 CA         71.9580   39.6610  -23.3310 C.3      10 GLP5        0.0000 
     62 CA         71.1040   36.6405  -21.1460 C.3       5 GLC5        0.0000 
     63 CA         72.6080   36.4430  -19.8600 C.3      10 GLP5        0.0000 
     64 CA         69.7815   34.7270  -21.7035 C.3       5 GLC5        0.0000 
     65 CA         69.9630   32.6160  -20.9750 C.3      10 GLP5        0.0000 
     66 CA         71.2290   35.8775  -24.4515 C.3       5 GLC5        0.0000 
     67 CA         69.4830   36.7400  -23.8460 C.3      15 GLL5        0.0000 
     68 CA         66.8675   35.7758  -24.6490 C.3       5 GLC5        0.0000 
     69 CA         68.0220   37.0200  -25.9970 C.3      15 GLL5        0.0000 
     70 CA         65.6040   34.4920  -24.0580 C.3      10 GLP5        0.0000 
     71 CA         69.9852   38.4552  -24.3672 C.3       5 GLC5        0.0000 
     72 CA         68.2400   37.0990  -24.4830 C.3      15 GLL5        0.0000 
     73 CA         66.5135   38.6891  -25.2415 C.3       5 GLC5        0.0000 
     74 CA         65.3860   40.0750  -26.0250 C.3      10 GLP5        0.0000 
     75 CA         65.2968   37.5953  -22.6397 C.3       5 GLC5        0.0000 
     76 CA         67.1510   37.5470  -23.6760 C.3      15 GLL5        0.0000 
     77 CA         63.3780   37.5960  -22.3080 C.3      10 GLP5        0.0000 
     78 CA         66.4098   36.0433  -23.5147 C.3       5 GLC5        0.0000 
     79 CA         67.2800   37.6420  -22.2670 C.3      15 GLL5        0.0000 
     80 CA         68.0897   37.1803  -20.0087 C.3       5 GLC5        0.0000 
     81 CA         68.2900   36.8970  -18.0580 C.3      10 GLP5        0.0000 
     82 CA         68.0496   35.3234  -23.2625 C.3       5 GLC5        0.0000 
     83 CA         68.4990   37.2850  -21.6520 C.3      15 GLL5        0.0000 
     84 CA         66.8330   33.7460  -23.5810 C.3      10 GLP5        0.0000 
@<TRIPOS>BOND
@<TRIPOS>SUBSTRUCTURE
     1 ALC1       43 GROUP        1 X    ALC  0     ROOT ALC X 1
     2 SEC2       10 GROUP        1 X    SEC  0     **** SEC X 2
     3 LYC4        4 GROUP        1 X    LYC  0     **** LYC X 4
     4 ZIC7        7 GROUP        1 X    ZIC  0     **** ZIC X 5
     5 GLC5        1 GROUP        1 X    GLC  0     **** GLC X 6
     6 ALP1       45 GROUP        1 Y    ALP  0     ROOT ALP Y 8
     7 SEP2       12 GROUP        1 Y    SEP  0     **** SEP Y 9
     8 LYP4        6 GROUP        1 Y    LYP  0     **** LYP Y 11
     9 ZIP7        9 GROUP        1 Y    ZIP  0     **** ZIP Y 12
    10 GLP5        3 GROUP        1 Y    GLP  0     **** GLP Y 13
    11 ALL1       44 GROUP        1 Z    ALL  0     ROOT ALL Z 15
    12 SEL2       11 GROUP        1 Z    SEL  0     **** SEL Z 16
    13 LYL4        5 GROUP        1 Z    LYL  0     **** LYL Z 18
    14 ZIL7        8 GROUP        1 Z    ZIL  0     **** ZIL Z 19
    15 GLL5        2 GROUP        1 Z    GLL  0     **** GLL Z 20
@<TRIPOS>SET

