#    Name: 2p1c_GG3_2_ligand
#    Modification time : Mon Mar 24 18:09:22 2014

@<TRIPOS>MOLECULE
2p1c_GG3_2_ligand
   46    46     1     0     0
SMALL
NO_CHARGES


@<TRIPOS>ATOM
      1 C2         71.5080   37.5130  -30.8360 C.3       1 GG38004     0.0000 
      2 C6         70.0990   37.2830  -28.8660 C.3       1 GG38004     0.0000 
      3 C7         72.0410   36.2910  -31.6870 C.3       1 GG38004     0.0000 
      4 C8         72.6600   35.2590  -30.6890 C.3       1 GG38004     0.0000 
      5 O16        74.4350   34.1520  -32.5280 O.co2     1 GG38004     0.0000 
      6 P14        74.3620   34.8140  -31.1560 P.3       1 GG38004     0.0000 
      7 O17        74.8250   33.9590  -30.0240 O.co2     1 GG38004     0.0000 
      8 O15        75.0660   36.1620  -31.1850 O.co2     1 GG38004     0.0000 
      9 P9         71.5870   33.7500  -30.5800 P.3       1 GG38004     0.0000 
     10 O11        71.7250   33.1140  -31.9490 O.co2     1 GG38004     0.0000 
     11 O10        72.2320   32.8170  -29.5400 O.co2     1 GG38004     0.0000 
     12 O12        70.2420   34.3370  -30.2230 O.co2     1 GG38004     0.0000 
     13 O13        72.8050   35.8720  -29.3870 O.3       1 GG38004     0.0000 
     14 N13        70.0970   37.4020  -30.3400 N.4       1 GG38004     0.0000 
     15 C21        69.3620   38.6120  -30.7640 C.3       1 GG38004     0.0000 
     16 C22        68.9370   36.5000  -28.2300 C.3       1 GG38004     0.0000 
     17 C26        69.2400   36.5340  -26.7410 C.3       1 GG38004     0.0000 
     18 C27        68.0220   37.0200  -25.9970 C.3       1 GG38004     0.0000 
     19 C28        68.2400   37.0990  -24.4830 C.ar      1 GG38004     0.0000 
     20 C33        67.1510   37.5470  -23.6760 C.ar      1 GG38004     0.0000 
     21 C32        67.2800   37.6420  -22.2670 C.ar      1 GG38004     0.0000 
     22 C31        68.4990   37.2850  -21.6520 C.ar      1 GG38004     0.0000 
     23 C30        69.6000   36.8380  -22.4320 C.ar      1 GG38004     0.0000 
     24 C29        69.4830   36.7400  -23.8460 C.ar      1 GG38004     0.0000 
     25 H          71.6224   38.4198  -31.4643 H         1 GG38004     0.0000 
     26 H          72.2045   37.6417  -29.9825 H         1 GG38004     0.0000 
     27 H          70.1115   38.3023  -28.4026 H         1 GG38004     0.0000 
     28 H          71.0529   36.8061  -28.5247 H         1 GG38004     0.0000 
     29 H          72.7959   36.6396  -32.3523 H         1 GG38004     0.0000 
     30 H          71.2200   35.8443  -32.1973 H         1 GG38004     0.0000 
     31 H          69.6450   36.5311  -30.7791 H         1 GG38004     0.0000 
     32 H          68.9510   35.4997  -28.5834 H         1 GG38004     0.0000 
     33 H          68.0235   37.0016  -28.4289 H         1 GG38004     0.0000 
     34 H          70.0730   37.2056  -26.5600 H         1 GG38004     0.0000 
     35 H          69.5010   35.5355  -26.4055 H         1 GG38004     0.0000 
     36 H          67.1760   36.3462  -26.1953 H         1 GG38004     0.0000 
     37 H          67.7400   38.0175  -26.3637 H         1 GG38004     0.0000 
     38 H          66.2666   37.8022  -24.1244 H         1 GG38004     0.0000 
     39 H          66.4959   37.9662  -21.7050 H         1 GG38004     0.0000 
     40 H          68.5957   37.3470  -20.6343 H         1 GG38004     0.0000 
     41 H          70.4768   36.5867  -21.9766 H         1 GG38004     0.0000 
     42 H          70.2606   36.4219  -24.4085 H         1 GG38004     0.0000 
     43 H          69.7717   39.4449  -30.3919 H         1 GG38004     0.0000 
     44 H          69.3509   38.7102  -31.7591 H         1 GG38004     0.0000 
     45 H          68.4093   38.5932  -30.4607 H         1 GG38004     0.0000 
     46 H          72.9269   35.1079  -28.7535 H         1 GG38004     0.0000 
@<TRIPOS>BOND
     1    3    1 1    
     2   14    1 1    
     3   25    1 1    
     4   26    1 1    
     5   14    2 1    
     6   16    2 1    
     7   27    2 1    
     8   28    2 1    
     9    4    3 1    
    10   29    3 1    
    11   30    3 1    
    12    6    4 1    
    13    9    4 1    
    14   13    4 1    
    15    6    5 ar   
    16    7    6 ar   
    17    8    6 ar   
    18   10    9 ar   
    19   11    9 ar   
    20   12    9 ar   
    21   46   13 1    
    22   15   14 1    
    23   31   14 1    
    24   43   15 1    
    25   44   15 1    
    26   45   15 1    
    27   17   16 1    
    28   32   16 1    
    29   33   16 1    
    30   18   17 1    
    31   34   17 1    
    32   35   17 1    
    33   19   18 1    
    34   36   18 1    
    35   37   18 1    
    36   20   19 ar   
    37   24   19 ar   
    38   21   20 ar   
    39   38   20 1    
    40   22   21 ar   
    41   39   21 1    
    42   23   22 ar   
    43   40   22 1    
    44   24   23 ar   
    45   41   23 1    
    46   42   24 1    
@<TRIPOS>SUBSTRUCTURE
     1 GG38004     1 GROUP   
@<TRIPOS>SET

