#    Name: 3tnl_NAD_3_INTS_M
#    Modification time : Mon Mar 24 20:26:19 2014

@<TRIPOS>MOLECULE
3tnl_NAD_3_INTS_M
   77     0     9     0     0
SMALL
NO_CHARGES


@<TRIPOS>ATOM
      1 N           1.4630   23.6275    8.7895 N.am      2 SEC2        0.0000 
      2 N           2.7860   23.6220    9.4240 N.am      8 SEL2        0.0000 
      3 N           0.1400   23.6330    8.1550 N.am      5 SEP2        0.0000 
      4 CA          5.9440   22.7050    7.3900 C.3       3 GLC5        0.0000 
      5 CA          5.5860   24.7380    6.9980 C.3       9 GLL5        0.0000 
      6 CA          6.3020   20.6720    7.7820 C.3       6 GLP5        0.0000 
      7 CA          5.4685   26.6175    4.6195 C.3       3 GLC5        0.0000 
      8 CA          5.4700   24.7160    5.4830 C.3       9 GLL5        0.0000 
      9 CA          5.4670   28.5190    3.7560 C.3       6 GLP5        0.0000 
     10 N           3.6020   23.2605    2.9865 N.am      2 SEC2        0.0000 
     11 N           4.8970   23.3980    3.5850 N.am      8 SEL2        0.0000 
     12 N           2.3070   23.1230    2.3880 N.am      5 SEP2        0.0000 
     13 O           5.0025   22.8915    2.3090 O.2       1 ALC1        0.0000 
     14 O           4.8970   23.3980    3.5850 O.2       7 ALL1        0.0000 
     15 O           5.1080   22.3850    1.0330 O.2       4 ALP1        0.0000 
     16 N           6.7215   21.3280    2.3410 N.am      2 SEC2        0.0000 
     17 N           7.3170   22.2730    3.4800 N.am      8 SEL2        0.0000 
     18 N           6.1260   20.3830    1.2020 N.am      5 SEP2        0.0000 
     19 O           8.1855   21.3450    3.7075 O.2       1 ALC1        0.0000 
     20 O           7.3170   22.2730    3.4800 O.2       7 ALL1        0.0000 
     21 O           9.0540   20.4170    3.9350 O.2       4 ALP1        0.0000 
     22 CA          6.9765   26.3045    3.4845 C.3       3 GLC5        0.0000 
     23 CA          7.3930   24.6000    4.1700 C.3       9 GLL5        0.0000 
     24 CA          6.5600   28.0090    2.7990 C.3       6 GLP5        0.0000 
     25 CA         11.8385   23.6945    2.4435 C.3       3 GLC5        0.0000 
     26 CA         12.0510   25.7440    3.2560 C.3       9 GLL5        0.0000 
     27 CA         11.6260   21.6450    1.6310 C.3       6 GLP5        0.0000 
     28 CA         11.1980   23.3660    1.5030 C.3       3 GLC5        0.0000 
     29 CA         10.7700   25.0870    1.3750 C.3       9 GLL5        0.0000 
     30 CA         10.8320   26.9865    1.8485 C.3       3 GLC5        0.0000 
     31 CA         10.8940   28.8860    2.3220 C.3       6 GLP5        0.0000 
     32 CA         11.0015   26.3185    0.0055 C.3       3 GLC5        0.0000 
     33 CA         11.2330   27.5500   -1.3640 C.3       6 GLP5        0.0000 
     34 CA         10.6665   23.3770    2.5250 C.3       3 GLC5        0.0000 
     35 CA          9.7070   25.1090    3.4190 C.3       9 GLL5        0.0000 
     36 CA          8.1335   26.5590    3.1090 C.3       3 GLC5        0.0000 
     37 N           0.3525   26.2735    7.7605 N.am      2 SEC2        0.0000 
     38 N           1.7270   26.3750    7.9360 N.am      8 SEL2        0.0000 
     39 N          -1.0220   26.1720    7.5850 N.am      5 SEP2        0.0000 
     40 CA          1.5760   28.5225    7.2720 C.3       3 GLC5        0.0000 
     41 CA          3.6610   28.5660    7.6850 C.3       9 GLL5        0.0000 
     42 CA         -0.5090   28.4790    6.8590 C.3       6 GLP5        0.0000 
     43 CA          2.9745   31.2540    6.3135 C.3       3 GLC5        0.0000 
     44 CA          3.7660   30.0890    7.6120 C.3       9 GLL5        0.0000 
     45 CA          2.1830   32.4190    5.0150 C.3       6 GLP5        0.0000 
     46 CA          5.8280   32.4160    9.3245 C.3       3 GLC5        0.0000 
     47 CA          4.5490   30.6820    8.7680 C.3       9 GLL5        0.0000 
     48 CA          7.1070   34.1500    9.8810 C.3       6 GLP5        0.0000 
     49 CA          2.3175   32.0770    6.7960 C.3       3 GLC5        0.0000 
     50 CA          2.4520   31.7350    8.5770 C.3       9 GLL5        0.0000 
     51 CA          0.6940   33.1415    6.9970 C.3       3 GLC5        0.0000 
     52 CA          0.5620   33.1840    9.0250 C.3       9 GLL5        0.0000 
     53 CA          0.8260   33.0990    4.9690 C.3       6 GLP5        0.0000 
     54 CA         -1.2050   33.4255    7.6745 C.3       3 GLC5        0.0000 
     55 CA         -2.9720   33.6670    6.3240 C.3       6 GLP5        0.0000 
     56 CA         -0.9490   34.7620   11.1575 C.3       3 GLC5        0.0000 
     57 CA         -0.7170   33.4120    9.5070 C.3       9 GLL5        0.0000 
     58 CA         -1.1810   36.1120   12.8080 C.3       6 GLP5        0.0000 
     59 O           0.2515   35.6430    7.6070 O.2       1 ALC1        0.0000 
     60 O          -0.8920   35.6760    8.5750 O.2       7 ALL1        0.0000 
     61 O           1.3950   35.6100    6.6390 O.2       4 ALP1        0.0000 
     62 O          -1.3465   37.0295    8.1200 O.2       1 ALC1        0.0000 
     63 O          -1.8010   38.3830    7.6650 O.2       4 ALP1        0.0000 
     64 CA          3.5925   23.3605    6.0064 C.3       3 GLC5        0.0000 
     65 CA          1.6280   22.6860    6.4780 C.3       6 GLP5        0.0000 
     66 CA          6.2193   21.7033    5.5907 C.3       3 GLC5        0.0000 
     67 CA          5.5860   23.3430    4.8290 C.3       9 GLL5        0.0000 
     68 CA          6.1250   20.1420    6.4900 C.3       6 GLP5        0.0000 
     69 CA         10.7469   27.1330    2.9310 C.3       3 GLC5        0.0000 
     70 CA         10.9340   25.5580    4.0660 C.3       9 GLL5        0.0000 
     71 CA          4.5903   28.9232    5.7022 C.3       3 GLC5        0.0000 
     72 CA          6.0098   30.2667    7.2025 C.3       3 GLC5        0.0000 
     73 CA          7.8620   30.1480    6.2150 C.3       6 GLP5        0.0000 
     74 CA         -0.3730   29.7320    8.3688 C.3       3 GLC5        0.0000 
     75 CA         -0.8820   31.0700   10.1270 C.3       9 GLL5        0.0000 
     76 CA         -2.1104   31.9943    8.4453 C.3       3 GLC5        0.0000 
     77 CA         -3.2370   32.0120    6.9320 C.3       6 GLP5        0.0000 
@<TRIPOS>BOND
@<TRIPOS>SUBSTRUCTURE
     1 ALC1       13 GROUP        1 X    ALC  0     ROOT ALC X 1
     2 SEC2        1 GROUP        1 X    SEC  0     **** SEC X 2
     3 GLC5        4 GROUP        1 X    GLC  0     **** GLC X 6
     4 ALP1       15 GROUP        1 Y    ALP  0     ROOT ALP Y 8
     5 SEP2        3 GROUP        1 Y    SEP  0     **** SEP Y 9
     6 GLP5        6 GROUP        1 Y    GLP  0     **** GLP Y 13
     7 ALL1       14 GROUP        1 Z    ALL  0     ROOT ALL Z 15
     8 SEL2        2 GROUP        1 Z    SEL  0     **** SEL Z 16
     9 GLL5        5 GROUP        1 Z    GLL  0     **** GLL Z 20
@<TRIPOS>SET

