#    Name: 3tnl_NAD_3_ligand
#    Modification time : Mon Mar 24 20:26:19 2014

@<TRIPOS>MOLECULE
3tnl_NAD_3_ligand
   70    74     1     0     0
SMALL
NO_CHARGES


@<TRIPOS>ATOM
      1 PA          4.0810   24.3510    9.1370 P.3       1 NAD292      0.0000 
      2 O1A         5.3180   24.0580    9.9160 O.co2     1 NAD292      0.0000 
      3 O2A         2.7860   23.6220    9.4240 O.co2     1 NAD292      0.0000 
      4 O5B         4.4050   24.2020    7.5610 O.3       1 NAD292      0.0000 
      5 C5B         5.5860   24.7380    6.9980 C.3       1 NAD292      0.0000 
      6 C4B         5.4700   24.7160    5.4830 C.3       1 NAD292      0.0000 
      7 O4B         6.5710   25.4450    4.9790 O.3       1 NAD292      0.0000 
      8 C3B         5.5860   23.3430    4.8290 C.3       1 NAD292      0.0000 
      9 O3B         4.8970   23.3980    3.5850 O.3       1 NAD292      0.0000 
     10 C2B         7.0410   23.1860    4.5540 C.3       1 NAD292      0.0000 
     11 O2B         7.3170   22.2730    3.4800 O.3       1 NAD292      0.0000 
     12 C1B         7.3930   24.6000    4.1700 C.3       1 NAD292      0.0000 
     13 N9A         8.7990   24.9850    4.3860 N.pl3     1 NAD292      0.0000 
     14 C8A         9.3680   25.3510    5.5620 C.2       1 NAD292      0.0000 
     15 N7A        10.6660   25.6850    5.3960 N.2       1 NAD292      0.0000 
     16 C5A        10.9340   25.5580    4.0660 C.ar      1 NAD292      0.0000 
     17 C6A        12.0510   25.7440    3.2560 C.ar      1 NAD292      0.0000 
     18 N6A        13.2310   26.1520    3.7770 N.pl3     1 NAD292      0.0000 
     19 N1A        11.9180   25.5060    1.9410 N.ar      1 NAD292      0.0000 
     20 C2A        10.7700   25.0870    1.3750 C.ar      1 NAD292      0.0000 
     21 N3A         9.6570   24.9070    2.0960 N.ar      1 NAD292      0.0000 
     22 C4A         9.7070   25.1090    3.4190 C.ar      1 NAD292      0.0000 
     23 O3          3.8850   25.9560    9.2810 O.3       1 NAD292      0.0000 
     24 PN          2.4780   26.7710    9.1430 P.3       1 NAD292      0.0000 
     25 O1N         1.7830   26.7290   10.4890 O.co2     1 NAD292      0.0000 
     26 O2N         1.7270   26.3750    7.9360 O.co2     1 NAD292      0.0000 
     27 O5D         3.0360   28.2650    8.9320 O.3       1 NAD292      0.0000 
     28 C5D         3.6610   28.5660    7.6850 C.3       1 NAD292      0.0000 
     29 C4D         3.7660   30.0890    7.6120 C.3       1 NAD292      0.0000 
     30 O4D         2.4390   30.6560    7.6780 O.3       1 NAD292      0.0000 
     31 C3D         4.5490   30.6820    8.7680 C.3       1 NAD292      0.0000 
     32 O3D         5.4320   31.7070    8.2700 O.3       1 NAD292      0.0000 
     33 C2D         3.4810   31.3080    9.6310 C.3       1 NAD292      0.0000 
     34 O2D         3.9440   32.4240   10.4010 O.3       1 NAD292      0.0000 
     35 C1D         2.4520   31.7350    8.5770 C.3       1 NAD292      0.0000 
     36 N1N         1.0980   31.9440    9.0970 N.pl3     1 NAD292      0.0000 
     37 C2N         0.5620   33.1840    9.0250 C.ar      1 NAD292      0.0000 
     38 C3N        -0.7170   33.4120    9.5070 C.ar      1 NAD292      0.0000 
     39 C7N        -1.3460   34.7590    9.4240 C.2       1 NAD292      0.0000 
     40 O7N        -2.3230   34.9940   10.1230 O.2       1 NAD292      0.0000 
     41 N7N        -0.8920   35.6760    8.5750 N.am      1 NAD292      0.0000 
     42 C4N        -1.4540   32.3540   10.0730 C.ar      1 NAD292      0.0000 
     43 C5N        -0.8820   31.0700   10.1270 C.ar      1 NAD292      0.0000 
     44 C6N         0.4080   30.9000    9.6300 C.ar      1 NAD292      0.0000 
     45 H           6.4741   24.1576    7.2743 H         1 NAD292      0.0000 
     46 H           5.7544   25.7766    7.3059 H         1 NAD292      0.0000 
     47 H           4.5527   25.1727    5.1806 H         1 NAD292      0.0000 
     48 H           5.2470   22.6162    5.4784 H         1 NAD292      0.0000 
     49 H           7.5414   22.9576    5.4573 H         1 NAD292      0.0000 
     50 H           7.1248   24.7468    3.1264 H         1 NAD292      0.0000 
     51 H           8.8937   25.3696    6.4224 H         1 NAD292      0.0000 
     52 H          13.2375   26.3374    4.7596 H         1 NAD292      0.0000 
     53 H          13.9921   26.2320    3.1333 H         1 NAD292      0.0000 
     54 H          10.7514   24.8969    0.3371 H         1 NAD292      0.0000 
     55 H           3.0719   28.2299    6.8411 H         1 NAD292      0.0000 
     56 H           4.6616   28.1577    7.6205 H         1 NAD292      0.0000 
     57 H           4.2415   30.3664    6.6909 H         1 NAD292      0.0000 
     58 H           5.0299   29.9222    9.2915 H         1 NAD292      0.0000 
     59 H           3.0284   30.5371   10.2146 H         1 NAD292      0.0000 
     60 H           2.8276   32.6175    8.0945 H         1 NAD292      0.0000 
     61 H           1.0939   33.9703    8.6136 H         1 NAD292      0.0000 
     62 H          -1.3372   36.5706    8.6140 H         1 NAD292      0.0000 
     63 H          -0.1463   35.3884    7.9740 H         1 NAD292      0.0000 
     64 H          -2.3892   32.5170   10.4385 H         1 NAD292      0.0000 
     65 H          -1.4006   30.2925   10.5188 H         1 NAD292      0.0000 
     66 H           0.8382   29.9537    9.6737 H         1 NAD292      0.0000 
     67 H           5.3748   22.7465    2.9957 H         1 NAD292      0.0000 
     68 H           7.5717   21.4161    3.9280 H         1 NAD292      0.0000 
     69 H           5.3137   32.4772    8.8967 H         1 NAD292      0.0000 
     70 H           3.3989   33.2004   10.0848 H         1 NAD292      0.0000 
@<TRIPOS>BOND
     1    2    1 ar   
     2    3    1 ar   
     3    4    1 1    
     4   23    1 1    
     5    5    4 1    
     6    6    5 1    
     7   45    5 1    
     8   46    5 1    
     9    7    6 1    
    10    8    6 1    
    11   47    6 1    
    12   12    7 1    
    13    9    8 1    
    14   10    8 1    
    15   48    8 1    
    16   67    9 1    
    17   11   10 1    
    18   12   10 1    
    19   49   10 1    
    20   68   11 1    
    21   13   12 1    
    22   50   12 1    
    23   14   13 1    
    24   22   13 1    
    25   15   14 2    
    26   51   14 1    
    27   16   15 1    
    28   17   16 ar   
    29   22   16 ar   
    30   18   17 1    
    31   19   17 ar   
    32   52   18 1    
    33   53   18 1    
    34   20   19 ar   
    35   21   20 ar   
    36   54   20 1    
    37   22   21 ar   
    38   24   23 1    
    39   25   24 ar   
    40   26   24 ar   
    41   27   24 1    
    42   28   27 1    
    43   29   28 1    
    44   55   28 1    
    45   56   28 1    
    46   30   29 1    
    47   31   29 1    
    48   57   29 1    
    49   35   30 1    
    50   32   31 1    
    51   33   31 1    
    52   58   31 1    
    53   69   32 1    
    54   34   33 1    
    55   35   33 1    
    56   59   33 1    
    57   70   34 1    
    58   36   35 1    
    59   60   35 1    
    60   37   36 ar   
    61   44   36 ar   
    62   38   37 ar   
    63   61   37 1    
    64   39   38 1    
    65   42   38 ar   
    66   40   39 2    
    67   41   39 am   
    68   62   41 1    
    69   63   41 1    
    70   43   42 ar   
    71   64   42 1    
    72   44   43 ar   
    73   65   43 1    
    74   66   44 1    
@<TRIPOS>SUBSTRUCTURE
     1 NAD292      1 GROUP   
@<TRIPOS>SET

