#    Name: 4lgh_0JN_1_INTS_M
#    Modification time : Mon Apr  7 23:59:41 2014

@<TRIPOS>MOLECULE
4lgh_0JN_1_INTS_M
   66     0     9     0     0
SMALL
NO_CHARGES


@<TRIPOS>ATOM
      1 N          -9.2945    3.8155   -7.1400 N.am      2 SEC2        0.0000 
      2 N          -8.2320    4.8260   -7.3540 N.am      8 SEL2        0.0000 
      3 N         -10.3570    2.8050   -6.9260 N.am      5 SEP2        0.0000 
      4 CA         -8.9150    7.8675   -7.6550 C.3       3 GLC5        0.0000 
      5 CA         -8.6440    5.9800   -6.7130 C.3       9 GLL5        0.0000 
      6 CA         -9.1860    9.7550   -8.5970 C.3       6 GLP5        0.0000 
      7 CA         -9.6815    4.2585   -6.1255 C.3       3 GLC5        0.0000 
      8 CA        -10.7190    2.5370   -5.5380 C.3       6 GLP5        0.0000 
      9 CA         -7.3450    5.3300   -5.0215 C.3       3 GLC5        0.0000 
     10 CA         -6.0460    4.6800   -3.3300 C.3       6 GLP5        0.0000 
     11 CA         -5.7510    8.0385   -8.1000 C.3       3 GLC5        0.0000 
     12 CA         -6.3990    6.7300   -6.4820 C.3       9 GLL5        0.0000 
     13 CA         -5.1030    9.3470   -9.7180 C.3       6 GLP5        0.0000 
     14 CA         -6.2225    5.7050   -4.9060 C.3       3 GLC5        0.0000 
     15 CA         -3.3770    9.8100   -7.4310 C.3       3 GLC5        0.0000 
     16 CA         -3.9620    9.4440   -5.5240 C.3       9 GLL5        0.0000 
     17 CA         -2.7920   10.1760   -9.3380 C.3       6 GLP5        0.0000 
     18 CA         -7.2900   10.8805   -6.9965 C.3       3 GLC5        0.0000 
     19 CA         -6.2690    9.7480   -6.0930 C.3       9 GLL5        0.0000 
     20 CA         -8.3110   12.0130   -7.9000 C.3       6 GLP5        0.0000 
     21 CA         -0.8365    0.1105  -10.8680 C.3       3 GLC5        0.0000 
     22 CA         -2.3520    0.9210  -11.1550 C.3       9 GLL5        0.0000 
     23 CA          0.6790   -0.7000  -10.5810 C.3       6 GLP5        0.0000 
     24 CA         -1.0150    1.7330  -12.4630 C.3       3 GLC5        0.0000 
     25 CA          0.3220    2.5450  -13.7710 C.3       6 GLP5        0.0000 
     26 CA         -1.3205   -0.3845   -9.8335 C.3       3 GLC5        0.0000 
     27 CA         -2.1450    1.0930   -9.7760 C.3       9 GLL5        0.0000 
     28 CA         -0.4960   -1.8620   -9.8910 C.3       6 GLP5        0.0000 
     29 CA         -5.1265    6.3915  -13.1020 C.3       3 GLC5        0.0000 
     30 CA         -4.4910    5.3430  -11.4270 C.3       9 GLL5        0.0000 
     31 CA         -5.7620    7.4400  -14.7770 C.3       6 GLP5        0.0000 
     32 CA         -4.4920    3.5705  -14.1185 C.3       3 GLC5        0.0000 
     33 CA         -4.0520    4.1350  -12.0540 C.3       9 GLL5        0.0000 
     34 CA         -4.9320    3.0060  -16.1830 C.3       6 GLP5        0.0000 
     35 CA         -7.2910    7.8320   -2.8325 C.3       3 GLC5        0.0000 
     36 CA         -5.6970    8.6210   -3.9630 C.3       9 GLL5        0.0000 
     37 CA         -8.8850    7.0430   -1.7020 C.3       6 GLP5        0.0000 
     38 CA         -5.8715    6.6505   -3.6465 C.3       3 GLC5        0.0000 
     39 O          -7.4660    2.4210   -8.7460 O.2       1 ALC1        0.0000 
     40 O          -6.5500    3.3730   -8.2480 O.2       7 ALL1        0.0000 
     41 O          -8.3820    1.4690   -9.2440 O.2       4 ALP1        0.0000 
     42 CA         -4.1930    3.8265   -6.2240 C.3       3 GLC5        0.0000 
     43 CA         -3.4410    4.7340   -7.7470 C.3       9 GLL5        0.0000 
     44 CA         -4.9450    2.9190   -4.7010 C.3       6 GLP5        0.0000 
     45 CA         -7.1960    5.3190   -9.2540 C.3       3 GLC5        0.0000 
     46 CA         -6.9140    4.5890   -7.5760 C.3       9 GLL5        0.0000 
     47 CA         -7.9640    5.5690  -11.1510 C.3       6 GLP5        0.0000 
     48 CA         -5.6865    3.9940   -6.0290 C.3       3 GLC5        0.0000 
     49 CA         -5.4458    9.3175   -7.7430 C.3       3 GLC5        0.0000 
     50 CA         -5.3080    8.8280   -5.4430 C.3       9 GLL5        0.0000 
     51 CA         -2.0595    0.4328  -13.2317 C.3       3 GLC5        0.0000 
     52 CA         -2.9840    1.9360  -11.9060 C.3       9 GLL5        0.0000 
     53 CA         -1.4510   -0.5630  -14.9330 C.3       6 GLP5        0.0000 
     54 CA         -4.3360    1.1807  -12.3532 C.3       3 GLC5        0.0000 
     55 CA         -6.0040    0.9330  -13.1760 C.3       6 GLP5        0.0000 
     56 CA         -3.8547    0.7213   -8.7280 C.3       3 GLC5        0.0000 
     57 CA         -5.3660   -0.2100   -7.9930 C.3       6 GLP5        0.0000 
     58 CA         -4.7492    7.3918  -10.2363 C.3       3 GLC5        0.0000 
     59 CA         -4.3000    5.5300  -10.0820 C.3       9 GLL5        0.0000 
     60 CA         -6.0939    5.1774  -11.2776 C.3       3 GLC5        0.0000 
     61 CA         -2.8909    6.0574  -11.9776 C.3       3 GLC5        0.0000 
     62 CA         -1.5580    7.3290  -12.5510 C.3       6 GLP5        0.0000 
     63 CA         -2.1974    3.1634  -13.2735 C.3       3 GLC5        0.0000 
     64 CA         -0.7730    3.0010  -14.7270 C.3       6 GLP5        0.0000 
     65 CA         -4.8647    2.2745  -12.4180 C.3       3 GLC5        0.0000 
     66 CA         -3.3990    3.0970  -11.2660 C.3       9 GLL5        0.0000 
@<TRIPOS>BOND
@<TRIPOS>SUBSTRUCTURE
     1 ALC1       39 GROUP        1 X    ALC  0     ROOT ALC X 1
     2 SEC2        1 GROUP        1 X    SEC  0     **** SEC X 2
     3 GLC5        4 GROUP        1 X    GLC  0     **** GLC X 6
     4 ALP1       41 GROUP        1 Y    ALP  0     ROOT ALP Y 8
     5 SEP2        3 GROUP        1 Y    SEP  0     **** SEP Y 9
     6 GLP5        6 GROUP        1 Y    GLP  0     **** GLP Y 13
     7 ALL1       40 GROUP        1 Z    ALL  0     ROOT ALL Z 15
     8 SEL2        2 GROUP        1 Z    SEL  0     **** SEL Z 16
     9 GLL5        5 GROUP        1 Z    GLL  0     **** GLL Z 20
@<TRIPOS>SET

