#    Name: 4lgh_0JN_1_ligand
#    Modification time : Mon Apr  7 23:59:41 2014

@<TRIPOS>MOLECULE
4lgh_0JN_1_ligand
   46    49     1     0     0
SMALL
NO_CHARGES


@<TRIPOS>ATOM
      1 N1         -8.2320    4.8260   -7.3540 N.ar      1 0JN601      0.0000 
      2 C2         -8.6440    5.9800   -6.7130 C.ar      1 0JN601      0.0000 
      3 N3         -7.7540    6.8950   -6.2900 N.ar      1 0JN601      0.0000 
      4 C4         -6.3990    6.7300   -6.4820 C.ar      1 0JN601      0.0000 
      5 C5         -5.9420    5.5490   -7.1380 C.ar      1 0JN601      0.0000 
      6 C6         -6.9140    4.5890   -7.5760 C.ar      1 0JN601      0.0000 
      7 CAA        -3.9620    9.4440   -5.5240 C.3       1 0JN601      0.0000 
      8 CAB        -6.2690    9.7480   -6.0930 C.3       1 0JN601      0.0000 
      9 CAE        -2.3520    0.9210  -11.1550 C.ar      1 0JN601      0.0000 
     10 CAF        -2.1450    1.0930   -9.7760 C.ar      1 0JN601      0.0000 
     11 CAG        -4.4910    5.3430  -11.4270 C.ar      1 0JN601      0.0000 
     12 CAH        -4.3000    5.5300  -10.0820 C.ar      1 0JN601      0.0000 
     13 CAI        -2.9840    1.9360  -11.9060 C.ar      1 0JN601      0.0000 
     14 CAJ        -4.0520    4.1350  -12.0540 C.ar      1 0JN601      0.0000 
     15 CAR        -3.6480    4.5000   -9.2860 C.ar      1 0JN601      0.0000 
     16 CAS        -4.4710    5.7040   -7.1660 C.2       1 0JN601      0.0000 
     17 CAT        -3.3990    3.0970  -11.2660 C.ar      1 0JN601      0.0000 
     18 NAX        -5.2960    7.4870   -6.1570 N.pl3     1 0JN601      0.0000 
     19 CAY        -5.3080    8.8280   -5.4430 C.3       1 0JN601      0.0000 
     20 CAC        -5.6970    8.6210   -3.9630 C.3       1 0JN601      0.0000 
     21 NAP        -4.1470    6.8660   -6.5690 N.2       1 0JN601      0.0000 
     22 NAD        -6.5500    3.3730   -8.2480 N.pl3     1 0JN601      0.0000 
     23 CAM        -3.4410    4.7340   -7.7470 C.3       1 0JN601      0.0000 
     24 CAU        -3.2010    3.2730   -9.9190 C.ar      1 0JN601      0.0000 
     25 CAK        -2.5420    2.2120   -9.1500 C.ar      1 0JN601      0.0000 
     26 H          -9.6674    6.1279   -6.5628 H         1 0JN601      0.0000 
     27 H          -2.0462    0.0621  -11.6175 H         1 0JN601      0.0000 
     28 H          -1.6734    0.3237   -9.2553 H         1 0JN601      0.0000 
     29 H          -4.9473    6.0558  -12.0076 H         1 0JN601      0.0000 
     30 H          -4.6024    6.3807   -9.6025 H         1 0JN601      0.0000 
     31 H          -3.1296    1.8082  -12.9075 H         1 0JN601      0.0000 
     32 H          -4.1893    3.9890  -13.0455 H         1 0JN601      0.0000 
     33 H          -7.3050    2.7710   -8.5081 H         1 0JN601      0.0000 
     34 H          -5.5719    3.2299   -8.3997 H         1 0JN601      0.0000 
     35 H          -2.4364    5.1291   -7.5959 H         1 0JN601      0.0000 
     36 H          -3.5177    3.7701   -7.2439 H         1 0JN601      0.0000 
     37 H          -2.4123    2.3768   -8.1506 H         1 0JN601      0.0000 
     38 H          -3.2635    8.8674   -5.1001 H         1 0JN601      0.0000 
     39 H          -3.6802    9.5975   -6.4711 H         1 0JN601      0.0000 
     40 H          -3.9307   10.3301   -5.0616 H         1 0JN601      0.0000 
     41 H          -6.2878   10.6421   -5.6456 H         1 0JN601      0.0000 
     42 H          -6.0405    9.9057   -7.0537 H         1 0JN601      0.0000 
     43 H          -7.2018    9.3884   -6.0688 H         1 0JN601      0.0000 
     44 H          -5.0494    8.0247   -3.4887 H         1 0JN601      0.0000 
     45 H          -5.7213    9.4855   -3.4610 H         1 0JN601      0.0000 
     46 H          -6.6010    8.2035   -3.8715 H         1 0JN601      0.0000 
@<TRIPOS>BOND
     1    2    1 ar   
     2    6    1 ar   
     3    3    2 ar   
     4   26    2 1    
     5    4    3 ar   
     6    5    4 ar   
     7   18    4 1    
     8    6    5 ar   
     9   16    5 1    
    10   22    6 1    
    11   19    7 1    
    12   38    7 1    
    13   39    7 1    
    14   40    7 1    
    15   19    8 1    
    16   41    8 1    
    17   42    8 1    
    18   43    8 1    
    19   10    9 ar   
    20   13    9 ar   
    21   27    9 1    
    22   25   10 ar   
    23   28   10 1    
    24   12   11 ar   
    25   14   11 ar   
    26   29   11 1    
    27   15   12 ar   
    28   30   12 1    
    29   17   13 ar   
    30   31   13 1    
    31   17   14 ar   
    32   32   14 1    
    33   23   15 1    
    34   24   15 ar   
    35   21   16 2    
    36   23   16 1    
    37   24   17 ar   
    38   19   18 1    
    39   21   18 1    
    40   20   19 1    
    41   44   20 1    
    42   45   20 1    
    43   46   20 1    
    44   33   22 1    
    45   34   22 1    
    46   35   23 1    
    47   36   23 1    
    48   25   24 ar   
    49   37   25 1    
@<TRIPOS>SUBSTRUCTURE
     1 0JN601      1 GROUP   
@<TRIPOS>SET

