#    Name: 1nde_MON_1_INTS_M
#    Modification time : Mon Mar 24 18:02:45 2014

@<TRIPOS>MOLECULE
1nde_MON_1_INTS_M
  104     0     9     0     0
SMALL
NO_CHARGES


@<TRIPOS>ATOM
      1 CA        111.5885    6.7970 -103.8535 C.3       3 GLC5        0.0000 
      2 CA        110.7370    5.5320 -105.3590 C.3       9 GLL5        0.0000 
      3 CA        112.4400    8.0620 -102.3480 C.3       6 GLP5        0.0000 
      4 CA        109.1855    6.0110 -104.3025 C.3       3 GLC5        0.0000 
      5 CA        107.6340    6.4900 -103.2460 C.3       6 GLP5        0.0000 
      6 CA        112.0075    4.7855 -106.6600 C.3       3 GLC5        0.0000 
      7 CA        113.2780    4.0390 -107.9610 C.3       6 GLP5        0.0000 
      8 CA        112.7145    3.9155 -106.1370 C.3       3 GLC5        0.0000 
      9 CA        112.1510    3.7920 -104.3130 C.3       9 GLL5        0.0000 
     10 CA        110.2260    9.2255 -105.8850 C.3       3 GLC5        0.0000 
     11 CA        109.3710    7.2530 -106.3860 C.3       9 GLL5        0.0000 
     12 CA        111.0810   11.1980 -105.3840 C.3       6 GLP5        0.0000 
     13 CA        108.5025    6.8715 -104.8160 C.3       3 GLC5        0.0000 
     14 CA        108.2330    1.9900 -102.5280 C.3       3 GLC5        0.0000 
     15 CA        109.8560    2.6970 -102.9320 C.3       9 GLL5        0.0000 
     16 CA        106.6100    1.2830 -102.1240 C.3       6 GLP5        0.0000 
     17 CA        109.4415    0.7765 -102.6225 C.3       3 GLC5        0.0000 
     18 CA        109.0270   -1.1440 -102.3130 C.3       6 GLP5        0.0000 
     19 CA        113.7375    9.3460 -108.2720 C.3       3 GLC5        0.0000 
     20 CA        112.2390    7.7050 -108.4440 C.3       9 GLL5        0.0000 
     21 CA        115.2360   10.9870 -108.1000 C.3       6 GLP5        0.0000 
     22 CA        107.3590    7.3095 -104.6260 C.3       3 GLC5        0.0000 
     23 CA        107.0840    8.1290 -106.0060 C.3       9 GLL5        0.0000 
     24 CA        113.6990    5.9905 -110.1715 C.3       3 GLC5        0.0000 
     25 CA        113.6520    7.9070 -109.4800 C.3       9 GLL5        0.0000 
     26 CA        113.7460    4.0740 -110.8630 C.3       6 GLP5        0.0000 
     27 CA        115.3940    7.5660 -108.7585 C.3       3 GLC5        0.0000 
     28 CA        117.1360    7.2250 -108.0370 C.3       6 GLP5        0.0000 
     29 CA        106.4220   11.2030 -107.3635 C.3       3 GLC5        0.0000 
     30 CA        106.3950    9.3140 -106.7320 C.3       9 GLL5        0.0000 
     31 CA        106.4490   13.0920 -107.9950 C.3       6 GLP5        0.0000 
     32 CA        114.3090    9.9610 -110.5725 C.3       3 GLC5        0.0000 
     33 CA        112.5190    9.4020 -111.5480 C.3       9 GLL5        0.0000 
     34 CA        116.0990   10.5200 -109.5970 C.3       6 GLP5        0.0000 
     35 CA        113.2295    8.6355 -113.1725 C.3       3 GLC5        0.0000 
     36 CA        113.9400    7.8690 -114.7970 C.3       6 GLP5        0.0000 
     37 CA        106.3335    8.1105 -103.9810 C.3       3 GLC5        0.0000 
     38 CA        105.0330    9.7310 -104.7160 C.3       9 GLL5        0.0000 
     39 CA        103.3475    7.7925 -103.9320 C.3       3 GLC5        0.0000 
     40 CA        103.8050    9.8910 -104.0920 C.3       9 GLL5        0.0000 
     41 CA        102.8900    5.6940 -103.7720 C.3       6 GLP5        0.0000 
     42 CA        111.9570   12.0960 -111.7495 C.3       3 GLC5        0.0000 
     43 CA        110.5360   11.1320 -111.7190 C.3       9 GLL5        0.0000 
     44 CA        113.3780   13.0600 -111.7800 C.3       6 GLP5        0.0000 
     45 CA        109.3460    7.2075 -112.6625 C.3       3 GLC5        0.0000 
     46 CA        109.9960    8.7960 -111.2300 C.3       9 GLL5        0.0000 
     47 CA        108.6960    5.6190 -114.0950 C.3       6 GLP5        0.0000 
     48 CA        110.3460   12.9165 -112.6195 C.3       3 GLC5        0.0000 
     49 CA        109.1400   11.4420 -111.6570 C.3       9 GLL5        0.0000 
     50 CA        111.5520   14.3910 -113.5820 C.3       6 GLP5        0.0000 
     51 CA        107.2890    7.4175 -110.8385 C.3       3 GLC5        0.0000 
     52 CA        108.6200    9.1160 -111.1700 C.3       9 GLL5        0.0000 
     53 CA        105.9580    5.7190 -110.5070 C.3       6 GLP5        0.0000 
     54 N         100.6970   10.7985 -104.4085 N.am      2 SEC2        0.0000 
     55 N         101.4320    9.9610 -104.2060 N.am      8 SEL2        0.0000 
     56 N          99.9620   11.6360 -104.6110 N.am      5 SEP2        0.0000 
     57 O         101.7585    9.2455 -103.1480 O.2       1 ALC1        0.0000 
     58 O         101.4320    9.9610 -104.2060 O.2       7 ALL1        0.0000 
     59 O         102.0850    8.5300 -102.0900 O.2       4 ALP1        0.0000 
     60 O         102.4125   10.0315 -102.8015 O.2       1 ALC1        0.0000 
     61 O         103.3930   10.1020 -101.3970 O.2       4 ALP1        0.0000 
     62 CA        105.6640    9.4095 -111.9360 C.3       3 GLC5        0.0000 
     63 CA        106.5190   10.8070 -111.3060 C.3       9 GLL5        0.0000 
     64 CA        104.8090    8.0120 -112.5660 C.3       6 GLP5        0.0000 
     65 CA        104.7205   11.6365 -110.3570 C.3       3 GLC5        0.0000 
     66 CA        102.9220   12.4660 -109.4080 C.3       6 GLP5        0.0000 
     67 CA        106.4675   12.4255 -110.1675 C.3       3 GLC5        0.0000 
     68 CA        106.4160   14.0440 -109.0290 C.3       6 GLP5        0.0000 
     69 CA        105.2670   11.5470 -112.0550 C.3       3 GLC5        0.0000 
     70 CA        104.0150   12.2870 -112.8040 C.3       6 GLP5        0.0000 
     71 CA        108.7605    4.9553 -103.2235 C.3       3 GLC5        0.0000 
     72 CA        109.9180    4.1440 -103.4700 C.3       9 GLL5        0.0000 
     73 CA        108.5600    2.9153 -104.8090 C.3       3 GLC5        0.0000 
     74 CA        107.2330    2.4100 -106.4170 C.3       6 GLP5        0.0000 
     75 CA        112.5570    5.6810 -107.8920 C.3       3 GLC5        0.0000 
     76 CA        111.4330    6.9410 -107.2020 C.3       9 GLL5        0.0000 
     77 CA        105.8137    7.0842 -105.8090 C.3       3 GLC5        0.0000 
     78 CA        104.8880    5.4470 -105.2490 C.3       6 GLP5        0.0000 
     79 CA        114.5990    9.4000 -109.7290 C.3       3 GLC5        0.0000 
     80 CA        112.5460    8.6530 -110.2420 C.3       9 GLL5        0.0000 
     81 CA        104.9748    7.5320 -105.3305 C.3       3 GLC5        0.0000 
     82 CA        105.0900    9.5030 -106.1080 C.3       9 GLL5        0.0000 
     83 CA        112.5175   11.0932 -112.3690 C.3       3 GLC5        0.0000 
     84 CA        110.9910    9.8030 -111.5100 C.3       9 GLL5        0.0000 
     85 CA        113.2800   12.5840 -113.2090 C.3       6 GLP5        0.0000 
     86 CA        102.0508    8.7892 -108.0235 C.3       3 GLC5        0.0000 
     87 CA        102.6810    9.6030 -106.2350 C.3       9 GLL5        0.0000 
     88 CA        100.7990    8.0570 -109.4930 C.3       6 GLP5        0.0000 
     89 CA        105.3860   11.2350 -103.3390 C.3       3 GLC5        0.0000 
     90 CA        106.3530   12.6590 -102.2740 C.3       6 GLP5        0.0000 
     91 CA        110.2360   11.7535 -109.6525 C.3       3 GLC5        0.0000 
     92 CA        110.6340   12.2200 -107.6170 C.3       6 GLP5        0.0000 
     93 CA        109.2020    8.9710 -113.0775 C.3       3 GLC5        0.0000 
     94 CA        109.0960    8.9860 -114.9550 C.3       6 GLP5        0.0000 
     95 CA        102.8056    7.8316 -105.9712 C.3       3 GLC5        0.0000 
     96 CA        103.9240    9.4400 -106.8730 C.3       9 GLL5        0.0000 
     97 CA        102.6480    5.9920 -106.2470 C.3       6 GLP5        0.0000 
     98 CA        101.9361   10.7181 -106.8963 C.3       3 GLC5        0.0000 
     99 CA        100.9090   11.7650 -108.0970 C.3       6 GLP5        0.0000 
    100 CA        109.5239    9.9704 -113.2954 C.3       3 GLC5        0.0000 
    101 CA        106.6070    8.8930 -111.9210 C.3       3 GLC5        0.0000 
    102 CA        108.1900   10.4320 -111.3820 C.3       9 GLL5        0.0000 
    103 CA        107.0092   10.6457 -113.1055 C.3       3 GLC5        0.0000 
    104 CA        106.6640   10.6720 -114.8670 C.3       6 GLP5        0.0000 
@<TRIPOS>BOND
@<TRIPOS>SUBSTRUCTURE
     1 ALC1       57 GROUP        1 X    ALC  0     ROOT ALC X 1
     2 SEC2       54 GROUP        1 X    SEC  0     **** SEC X 2
     3 GLC5        1 GROUP        1 X    GLC  0     **** GLC X 6
     4 ALP1       59 GROUP        1 Y    ALP  0     ROOT ALP Y 8
     5 SEP2       56 GROUP        1 Y    SEP  0     **** SEP Y 9
     6 GLP5        3 GROUP        1 Y    GLP  0     **** GLP Y 13
     7 ALL1       58 GROUP        1 Z    ALL  0     ROOT ALL Z 15
     8 SEL2       55 GROUP        1 Z    SEL  0     **** SEL Z 16
     9 GLL5        2 GROUP        1 Z    GLL  0     **** GLL Z 20
@<TRIPOS>SET

