#    Name: 1nde_MON_1_ligand
#    Modification time : Mon Mar 24 18:02:45 2014

@<TRIPOS>MOLECULE
1nde_MON_1_ligand
   61    64     1     0     0
SMALL
NO_CHARGES


@<TRIPOS>ATOM
      1 C1        110.7370    5.5320 -105.3590 C.ar      1 MON101      0.0000 
      2 N2        110.9210    4.5570 -104.4530 N.3       1 MON101      0.0000 
      3 N3        109.6060    6.2620 -105.4990 N.ar      1 MON101      0.0000 
      4 N4        111.6410    5.9560 -106.2990 N.ar      1 MON101      0.0000 
      5 C5        112.1510    3.7920 -104.3130 C.3       1 MON101      0.0000 
      6 C6        109.9180    4.1440 -103.4700 C.3       1 MON101      0.0000 
      7 C7        109.3710    7.2530 -106.3860 C.ar      1 MON101      0.0000 
      8 C8        111.4330    6.9410 -107.2020 C.ar      1 MON101      0.0000 
      9 C9        112.1770    2.3680 -103.6560 C.3       1 MON101      0.0000 
     10 C10       109.8560    2.6970 -102.9320 C.3       1 MON101      0.0000 
     11 N11       110.3030    7.5170 -107.1710 N.ar      1 MON101      0.0000 
     12 N12       108.3340    8.0500 -106.6270 N.pl3     1 MON101      0.0000 
     13 S13       112.2390    7.7050 -108.4440 S.3       1 MON101      0.0000 
     14 N14       111.1930    2.2550 -102.5700 N.4       1 MON101      0.0000 
     15 C15       107.0840    8.1290 -106.0060 C.3       1 MON101      0.0000 
     16 C16       113.6520    7.9070 -109.4800 C.3       1 MON101      0.0000 
     17 C17       106.3950    9.3140 -106.7320 C.3       1 MON101      0.0000 
     18 C18       112.5460    8.6530 -110.2420 C.3       1 MON101      0.0000 
     19 C19       105.0900    9.5030 -106.1080 C.ar      1 MON101      0.0000 
     20 C20       112.5190    9.4020 -111.5480 C.3       1 MON101      0.0000 
     21 C21       103.9240    9.4400 -106.8730 C.ar      1 MON101      0.0000 
     22 C22       105.0330    9.7310 -104.7160 C.ar      1 MON101      0.0000 
     23 C23       110.9910    9.8030 -111.5100 C.ar      1 MON101      0.0000 
     24 C24       102.6810    9.6030 -106.2350 C.ar      1 MON101      0.0000 
     25 C25       103.8050    9.8910 -104.0920 C.ar      1 MON101      0.0000 
     26 C26       110.5360   11.1320 -111.7190 C.ar      1 MON101      0.0000 
     27 C27       109.9960    8.7960 -111.2300 C.ar      1 MON101      0.0000 
     28 C28       102.6240    9.8210 -104.8370 C.ar      1 MON101      0.0000 
     29 C29       109.1400   11.4420 -111.6570 C.ar      1 MON101      0.0000 
     30 C30       108.6200    9.1160 -111.1700 C.ar      1 MON101      0.0000 
     31 O31       101.4320    9.9610 -104.2060 O.3       1 MON101      0.0000 
     32 C32       108.1900   10.4320 -111.3820 C.ar      1 MON101      0.0000 
     33 CL33      106.5190   10.8070 -111.3060 Cl        1 MON101      0.0000 
     34 H         112.9319    4.4081 -103.7468 H         1 MON101      0.0000 
     35 H         112.6539    3.6708 -105.3340 H         1 MON101      0.0000 
     36 H         108.8731    4.3856 -103.8672 H         1 MON101      0.0000 
     37 H         109.9784    4.8264 -102.5542 H         1 MON101      0.0000 
     38 H         113.1940    2.1981 -103.2882 H         1 MON101      0.0000 
     39 H         111.9769    1.6403 -104.4490 H         1 MON101      0.0000 
     40 H         109.4265    2.0694 -103.7133 H         1 MON101      0.0000 
     41 H         109.1871    2.6903 -102.0710 H         1 MON101      0.0000 
     42 H         108.4587    8.7826 -107.4544 H         1 MON101      0.0000 
     43 H         107.1387    8.3833 -104.9648 H         1 MON101      0.0000 
     44 H         106.4722    7.2614 -106.1636 H         1 MON101      0.0000 
     45 H         113.7725    7.0228 -109.8291 H         1 MON101      0.0000 
     46 H         114.1884    8.5162 -108.9707 H         1 MON101      0.0000 
     47 H         106.3036    9.0556 -107.7763 H         1 MON101      0.0000 
     48 H         107.0223   10.1849 -106.6152 H         1 MON101      0.0000 
     49 H         112.0484    9.3828 -109.4307 H         1 MON101      0.0000 
     50 H         111.6243    7.8866 -110.2801 H         1 MON101      0.0000 
     51 H         112.6683    8.7677 -112.3493 H         1 MON101      0.0000 
     52 H         113.0827   10.2660 -111.4986 H         1 MON101      0.0000 
     53 H         103.9674    9.2789 -107.8767 H         1 MON101      0.0000 
     54 H         105.9036    9.7763 -104.1777 H         1 MON101      0.0000 
     55 H         101.8157    9.5647 -106.7773 H         1 MON101      0.0000 
     56 H         103.7575   10.0618 -103.0786 H         1 MON101      0.0000 
     57 H         111.2065   11.8761 -111.9155 H         1 MON101      0.0000 
     58 H         110.3062    7.8308 -111.0729 H         1 MON101      0.0000 
     59 H         108.8351   12.4047 -111.8141 H         1 MON101      0.0000 
     60 H         107.9384    8.3770 -110.9700 H         1 MON101      0.0000 
     61 H         101.5349    9.4626 -103.3452 H         1 MON101      0.0000 
@<TRIPOS>BOND
     1    2    1 1    
     2    3    1 ar   
     3    4    1 ar   
     4    5    2 1    
     5    6    2 1    
     6    7    3 ar   
     7    8    4 ar   
     8    9    5 1    
     9   34    5 1    
    10   35    5 1    
    11   10    6 1    
    12   36    6 1    
    13   37    6 1    
    14   11    7 ar   
    15   12    7 1    
    16   11    8 ar   
    17   13    8 1    
    18   14    9 1    
    19   38    9 1    
    20   39    9 1    
    21   14   10 1    
    22   40   10 1    
    23   41   10 1    
    24   15   12 1    
    25   42   12 1    
    26   16   13 1    
    27   17   15 1    
    28   43   15 1    
    29   44   15 1    
    30   18   16 1    
    31   45   16 1    
    32   46   16 1    
    33   19   17 1    
    34   47   17 1    
    35   48   17 1    
    36   20   18 1    
    37   49   18 1    
    38   50   18 1    
    39   21   19 ar   
    40   22   19 ar   
    41   23   20 1    
    42   51   20 1    
    43   52   20 1    
    44   24   21 ar   
    45   53   21 1    
    46   25   22 ar   
    47   54   22 1    
    48   26   23 ar   
    49   27   23 ar   
    50   28   24 ar   
    51   55   24 1    
    52   28   25 ar   
    53   56   25 1    
    54   29   26 ar   
    55   57   26 1    
    56   30   27 ar   
    57   58   27 1    
    58   31   28 1    
    59   32   29 ar   
    60   59   29 1    
    61   32   30 ar   
    62   60   30 1    
    63   61   31 1    
    64   33   32 1    
@<TRIPOS>SUBSTRUCTURE
     1 MON101      1 GROUP   
@<TRIPOS>SET

